data_image0
_chemical_formula_structural       Ho4H36C24O24
_chemical_formula_sum              "Ho4 H36 C24 O24"
_cell_length_a       7.86473
_cell_length_b       8.06679
_cell_length_c       15.4135
_cell_angle_alpha    104.475
_cell_angle_beta     104.046
_cell_angle_gamma    92.7647

_space_group_name_H-M_alt    "P 1"
_space_group_IT_number       1

loop_
  _space_group_symop_operation_xyz
  'x, y, z'

loop_
  _atom_site_type_symbol
  _atom_site_label
  _atom_site_symmetry_multiplicity
  _atom_site_fract_x
  _atom_site_fract_y
  _atom_site_fract_z
  _atom_site_occupancy
  Ho  Ho1       1.0  0.37882  0.62882  0.25753  1.0000
  Ho  Ho2       1.0  0.62118  0.37118  0.74247  1.0000
  Ho  Ho3       1.0  0.87328  0.62304  0.24635  1.0000
  Ho  Ho4       1.0  0.12672  0.37696  0.75365  1.0000
  H   H1        1.0  0.69973  0.17069  0.23733  1.0000
  H   H2        1.0  0.03875  0.06669  0.23746  1.0000
  H   H3        1.0  0.30027  0.82931  0.76267  1.0000
  H   H4        1.0  0.96124  0.93330  0.76253  1.0000
  H   H5        1.0  0.56464  0.12037  0.30961  1.0000
  H   H6        1.0  0.24600  0.18990  0.30980  1.0000
  H   H7        1.0  0.43537  0.87963  0.69039  1.0000
  H   H8        1.0  0.75400  0.81008  0.69019  1.0000
  H   H9        1.0  0.48741  0.05051  0.18689  1.0000
  H   H10       1.0  0.20039  0.13682  0.18706  1.0000
  H   H11       1.0  0.51259  0.94948  0.81311  1.0000
  H   H12       1.0  0.79960  0.86317  0.81293  1.0000
  H   H13       1.0  0.73646  0.27759  0.45544  1.0000
  H   H14       1.0  0.21908  0.17811  0.45548  1.0000
  H   H15       1.0  0.26353  0.72242  0.54456  1.0000
  H   H16       1.0  0.78092  0.82190  0.54452  1.0000
  H   H17       1.0  0.64045  0.44485  0.51953  1.0000
  H   H18       1.0  0.37925  0.07515  0.51960  1.0000
  H   H19       1.0  0.35955  0.55515  0.48048  1.0000
  H   H20       1.0  0.62075  0.92486  0.48040  1.0000
  H   H21       1.0  0.87220  0.46773  0.52559  1.0000
  H   H22       1.0  0.15355  0.05836  0.52565  1.0000
  H   H23       1.0  0.12780  0.53228  0.47441  1.0000
  H   H24       1.0  0.84646  0.94165  0.47435  1.0000
  H   H25       1.0  0.41453  0.12368  0.02070  1.0000
  H   H26       1.0  0.10603  0.89729  0.02120  1.0000
  H   H27       1.0  0.58548  0.87631  0.97930  1.0000
  H   H28       1.0  0.89396  0.10270  0.97880  1.0000
  H   H29       1.0  0.64292  0.21575  0.05652  1.0000
  H   H30       1.0  0.91356  0.84067  0.05695  1.0000
  H   H31       1.0  0.35708  0.78426  0.94348  1.0000
  H   H32       1.0  0.08643  0.15933  0.94305  1.0000
  H   H33       1.0  0.48516  0.28883  0.97546  1.0000
  H   H34       1.0  0.99016  0.68676  0.97567  1.0000
  H   H35       1.0  0.51484  0.71116  0.02454  1.0000
  H   H36       1.0  0.00982  0.31325  0.02433  1.0000
  C   C1        1.0  0.68122  0.90753  0.24159  1.0000
  C   C2        1.0  0.06082  0.33411  0.24171  1.0000
  C   C3        1.0  0.31880  0.09247  0.75841  1.0000
  C   C4        1.0  0.93918  0.66589  0.75829  1.0000
  C   C5        1.0  0.60567  0.07493  0.24561  1.0000
  C   C6        1.0  0.14088  0.17099  0.24578  1.0000
  C   C7        1.0  0.39434  0.92507  0.75439  1.0000
  C   C8        1.0  0.85912  0.82901  0.75421  1.0000
  C   C9        1.0  0.70132  0.48899  0.39692  1.0000
  C   C10       1.0  0.19562  0.90811  0.39699  1.0000
  C   C11       1.0  0.29867  0.51103  0.60309  1.0000
  C   C12       1.0  0.80439  0.09191  0.60301  1.0000
  C   C13       1.0  0.73959  0.41840  0.48031  1.0000
  C   C14       1.0  0.24087  0.06226  0.48039  1.0000
  C   C15       1.0  0.26041  0.58160  0.51969  1.0000
  C   C16       1.0  0.75914  0.93774  0.51961  1.0000
  C   C17       1.0  0.46930  0.37630  0.11518  1.0000
  C   C18       1.0  0.14596  0.73877  0.11534  1.0000
  C   C19       1.0  0.53070  0.62369  0.88482  1.0000
  C   C20       1.0  0.85403  0.26122  0.88465  1.0000
  C   C21       1.0  0.50508  0.24142  0.03775  1.0000
  C   C22       1.0  0.03258  0.79637  0.03807  1.0000
  C   C23       1.0  0.49492  0.75858  0.96224  1.0000
  C   C24       1.0  0.96741  0.20363  0.96193  1.0000
  O   O1        1.0  0.64187  0.80910  0.29040  1.0000
  O   O2        1.0  0.14869  0.48162  0.29055  1.0000
  O   O3        1.0  0.35815  0.19089  0.70960  1.0000
  O   O4        1.0  0.85132  0.51837  0.70945  1.0000
  O   O5        1.0  0.78429  0.85993  0.19048  1.0000
  O   O6        1.0  0.90663  0.33020  0.19050  1.0000
  O   O7        1.0  0.21572  0.14007  0.80952  1.0000
  O   O8        1.0  0.09337  0.66981  0.80951  1.0000
  O   O9        1.0  0.54202  0.51150  0.36184  1.0000
  O   O10       1.0  0.31972  0.85055  0.36180  1.0000
  O   O11       1.0  0.45798  0.48851  0.63816  1.0000
  O   O12       1.0  0.68028  0.14946  0.63820  1.0000
  O   O13       1.0  0.82841  0.51968  0.36344  1.0000
  O   O14       1.0  0.03503  0.84369  0.36365  1.0000
  O   O15       1.0  0.17159  0.48033  0.63657  1.0000
  O   O16       1.0  0.96497  0.15631  0.63637  1.0000
  O   O17       1.0  0.32206  0.37049  0.13520  1.0000
  O   O18       1.0  0.31322  0.76493  0.13542  1.0000
  O   O19       1.0  0.67794  0.62951  0.86479  1.0000
  O   O20       1.0  0.68677  0.23506  0.86457  1.0000
  O   O21       1.0  0.58834  0.50458  0.16202  1.0000
  O   O22       1.0  0.07390  0.65685  0.16198  1.0000
  O   O23       1.0  0.41166  0.49542  0.83797  1.0000
  O   O24       1.0  0.92608  0.34313  0.83801  1.0000
