data_image0
_chemical_formula_structural       Cd3H26C44Br4N8O18
_chemical_formula_sum              "Cd3 H26 C44 Br4 N8 O18"
_cell_length_a       8.67043
_cell_length_b       10.217
_cell_length_c       14.7588
_cell_angle_alpha    75.4475
_cell_angle_beta     90.3631
_cell_angle_gamma    72.2789

_space_group_name_H-M_alt    "P 1"
_space_group_IT_number       1

loop_
  _space_group_symop_operation_xyz
  'x, y, z'

loop_
  _atom_site_type_symbol
  _atom_site_label
  _atom_site_symmetry_multiplicity
  _atom_site_fract_x
  _atom_site_fract_y
  _atom_site_fract_z
  _atom_site_occupancy
  Cd  Cd1       1.0  0.50000  0.00000  0.50000  1.0000
  Cd  Cd2       1.0  0.13821  0.55415  0.39921  1.0000
  Cd  Cd3       1.0  0.86179  0.44585  0.60079  1.0000
  H   H1        1.0  0.37626  0.58391  0.05113  1.0000
  H   H2        1.0  0.62374  0.41609  0.94887  1.0000
  H   H3        1.0  0.97332  0.14110  0.35807  1.0000
  H   H4        1.0  0.02668  0.85890  0.64193  1.0000
  H   H5        1.0  0.50975  0.16021  0.25243  1.0000
  H   H6        1.0  0.49025  0.83979  0.74757  1.0000
  H   H7        1.0  0.81000  0.65760  0.37817  1.0000
  H   H8        1.0  0.19000  0.34240  0.62183  1.0000
  H   H9        1.0  0.83746  0.80303  0.38200  1.0000
  H   H10       1.0  0.16254  0.19697  0.61800  1.0000
  H   H11       1.0  0.47953  0.49144  0.60032  1.0000
  H   H12       1.0  0.52047  0.50856  0.39968  1.0000
  H   H13       1.0  0.31016  0.54215  0.73066  1.0000
  H   H14       1.0  0.68984  0.45785  0.26934  1.0000
  H   H15       1.0  0.39783  0.09082  0.84634  1.0000
  H   H16       1.0  0.60217  0.90918  0.15366  1.0000
  H   H17       1.0  0.57019  0.04121  0.71794  1.0000
  H   H18       1.0  0.42981  0.95879  0.28206  1.0000
  H   H19       1.0  0.35485  0.82057  0.04461  1.0000
  H   H20       1.0  0.64515  0.17943  0.95539  1.0000
  H   H21       1.0  0.25034  0.08289  0.01492  1.0000
  H   H22       1.0  0.74966  0.91711  0.98508  1.0000
  H   H23       1.0  0.86334  0.04458  0.19137  1.0000
  H   H24       1.0  0.13666  0.95542  0.80862  1.0000
  H   H25       1.0  0.96967  0.78323  0.22421  1.0000
  H   H26       1.0  0.03033  0.21677  0.77579  1.0000
  C   C1        1.0  0.82056  0.03698  0.41429  1.0000
  C   C2        1.0  0.17944  0.96302  0.58571  1.0000
  C   C3        1.0  0.76835  0.14022  0.46990  1.0000
  C   C4        1.0  0.23165  0.85978  0.53010  1.0000
  C   C5        1.0  0.82181  0.25413  0.47561  1.0000
  C   C6        1.0  0.17819  0.74587  0.52439  1.0000
  C   C7        1.0  0.93794  0.31539  0.42183  1.0000
  C   C8        1.0  0.06206  0.68461  0.57817  1.0000
  C   C9        1.0  0.64217  0.23366  0.57649  1.0000
  C   C10       1.0  0.35783  0.76634  0.42351  1.0000
  C   C11       1.0  0.53688  0.26256  0.65082  1.0000
  C   C12       1.0  0.46312  0.73744  0.34918  1.0000
  C   C13       1.0  0.46349  0.40376  0.65503  1.0000
  C   C14       1.0  0.53651  0.59624  0.34497  1.0000
  C   C15       1.0  0.36830  0.43281  0.72773  1.0000
  C   C16       1.0  0.63170  0.56719  0.27227  1.0000
  C   C17       1.0  0.34690  0.31945  0.79650  1.0000
  C   C18       1.0  0.65310  0.68056  0.20350  1.0000
  C   C19       1.0  0.41709  0.17851  0.79322  1.0000
  C   C20       1.0  0.58291  0.82149  0.20678  1.0000
  C   C21       1.0  0.51195  0.15075  0.72030  1.0000
  C   C22       1.0  0.48805  0.84925  0.27970  1.0000
  C   C23       1.0  0.36116  0.29299  0.34540  1.0000
  C   C24       1.0  0.63884  0.70701  0.65460  1.0000
  C   C25       1.0  0.32948  0.40722  0.25592  1.0000
  C   C26       1.0  0.67052  0.59278  0.74408  1.0000
  C   C27       1.0  0.39856  0.40799  0.17063  1.0000
  C   C28       1.0  0.60144  0.59201  0.82937  1.0000
  C   C29       1.0  0.50974  0.29776  0.13289  1.0000
  C   C30       1.0  0.49026  0.70223  0.86712  1.0000
  C   C31       1.0  0.24465  0.62787  0.16841  1.0000
  C   C32       1.0  0.75535  0.37213  0.83159  1.0000
  C   C33       1.0  0.17332  0.78253  0.13956  1.0000
  C   C34       1.0  0.82669  0.21747  0.86044  1.0000
  C   C35       1.0  0.24841  0.86850  0.07800  1.0000
  C   C36       1.0  0.75159  0.13150  0.92200  1.0000
  C   C37       1.0  0.18991  0.01630  0.06070  1.0000
  C   C38       1.0  0.81009  0.98370  0.93930  1.0000
  C   C39       1.0  0.05425  0.07781  0.10390  1.0000
  C   C40       1.0  0.94576  0.92219  0.89610  1.0000
  C   C41       1.0  0.97208  0.99500  0.16069  1.0000
  C   C42       1.0  0.02792  0.00500  0.83931  1.0000
  C   C43       1.0  0.03292  0.84754  0.17889  1.0000
  C   C44       1.0  0.96708  0.15246  0.82111  1.0000
  Br  Br1       1.0  0.21526  0.35719  0.89534  1.0000
  Br  Br2       1.0  0.78474  0.64281  0.10466  1.0000
  Br  Br3       1.0  0.98037  0.27850  0.08950  1.0000
  Br  Br4       1.0  0.01963  0.72150  0.91050  1.0000
  N   N1        1.0  0.65449  0.12941  0.53313  1.0000
  N   N2        1.0  0.34551  0.87059  0.46687  1.0000
  N   N3        1.0  0.74198  0.31116  0.54331  1.0000
  N   N4        1.0  0.25802  0.68884  0.45670  1.0000
  N   N5        1.0  0.23403  0.54294  0.25278  1.0000
  N   N6        1.0  0.76597  0.45706  0.74722  1.0000
  N   N7        1.0  0.34318  0.54762  0.11775  1.0000
  N   N8        1.0  0.65682  0.45237  0.88225  1.0000
  O   O1        1.0  0.75619  0.93946  0.42285  1.0000
  O   O2        1.0  0.24381  0.06054  0.57715  1.0000
  O   O3        1.0  0.93507  0.04605  0.35881  1.0000
  O   O4        1.0  0.06493  0.95395  0.64119  1.0000
  O   O5        1.0  0.01126  0.25863  0.35997  1.0000
  O   O6        1.0  0.98874  0.74137  0.64003  1.0000
  O   O7        1.0  0.95429  0.42629  0.44044  1.0000
  O   O8        1.0  0.04571  0.57371  0.55957  1.0000
  O   O9        1.0  0.31858  0.32596  0.42048  1.0000
  O   O10       1.0  0.68142  0.67404  0.57952  1.0000
  O   O11       1.0  0.43836  0.16470  0.34310  1.0000
  O   O12       1.0  0.56165  0.83530  0.65690  1.0000
  O   O13       1.0  0.55938  0.16540  0.18780  1.0000
  O   O14       1.0  0.44062  0.83460  0.81220  1.0000
  O   O15       1.0  0.55410  0.32803  0.05310  1.0000
  O   O16       1.0  0.44590  0.67197  0.94689  1.0000
  O   O17       1.0  0.88027  0.71604  0.35796  1.0000
  O   O18       1.0  0.11973  0.28396  0.64204  1.0000
