data_image0
_chemical_formula_structural       Ca4H36C44Br4N8O24
_chemical_formula_sum              "Ca4 H36 C44 Br4 N8 O24"
_cell_length_a       6.9309
_cell_length_b       12.9469
_cell_length_c       15.1811
_cell_angle_alpha    104.04
_cell_angle_beta     90.0001
_cell_angle_gamma    89.9999

_space_group_name_H-M_alt    "P 1"
_space_group_IT_number       1

loop_
  _space_group_symop_operation_xyz
  'x, y, z'

loop_
  _atom_site_type_symbol
  _atom_site_label
  _atom_site_symmetry_multiplicity
  _atom_site_fract_x
  _atom_site_fract_y
  _atom_site_fract_z
  _atom_site_occupancy
  Ca  Ca1       1.0  0.65064  0.76739  0.43249  1.0000
  Ca  Ca2       1.0  0.15064  0.73261  0.56752  1.0000
  Ca  Ca3       1.0  0.34936  0.23260  0.56751  1.0000
  Ca  Ca4       1.0  0.84936  0.26739  0.43247  1.0000
  H   H1        1.0  0.52015  0.63598  0.25873  1.0000
  H   H2        1.0  0.02015  0.86402  0.74127  1.0000
  H   H3        1.0  0.47985  0.36402  0.74127  1.0000
  H   H4        1.0  0.97985  0.13598  0.25873  1.0000
  H   H5        1.0  0.08215  0.62094  0.84074  1.0000
  H   H6        1.0  0.58215  0.87906  0.15926  1.0000
  H   H7        1.0  0.91786  0.37906  0.15926  1.0000
  H   H8        1.0  0.41786  0.12094  0.84074  1.0000
  H   H9        1.0  0.31914  0.54534  0.92979  1.0000
  H   H10       1.0  0.81914  0.95466  0.07021  1.0000
  H   H11       1.0  0.68086  0.45466  0.07021  1.0000
  H   H12       1.0  0.18086  0.04534  0.92979  1.0000
  H   H13       1.0  0.98601  0.25537  0.88329  1.0000
  H   H14       1.0  0.48600  0.24463  0.11671  1.0000
  H   H15       1.0  0.01399  0.74464  0.11671  1.0000
  H   H16       1.0  0.51399  0.75536  0.88329  1.0000
  H   H17       1.0  0.74762  0.33134  0.79605  1.0000
  H   H18       1.0  0.24762  0.16866  0.20395  1.0000
  H   H19       1.0  0.25238  0.66866  0.20395  1.0000
  H   H20       1.0  0.75238  0.83133  0.79605  1.0000
  H   H21       1.0  0.47801  0.91947  0.58352  1.0000
  H   H22       1.0  0.97801  0.58053  0.41647  1.0000
  H   H23       1.0  0.52199  0.08053  0.41647  1.0000
  H   H24       1.0  0.02199  0.41947  0.58353  1.0000
  H   H25       1.0  0.62072  0.99165  0.54563  1.0000
  H   H26       1.0  0.12072  0.50835  0.45437  1.0000
  H   H27       1.0  0.37928  0.00835  0.45437  1.0000
  H   H28       1.0  0.87928  0.49165  0.54563  1.0000
  H   H29       1.0  0.91828  0.64408  0.71476  1.0000
  H   H30       1.0  0.41828  0.85591  0.28524  1.0000
  H   H31       1.0  0.08173  0.35592  0.28524  1.0000
  H   H32       1.0  0.58172  0.14408  0.71476  1.0000
  H   H33       1.0  0.69293  0.70166  0.23116  1.0000
  H   H34       1.0  0.19292  0.79834  0.76884  1.0000
  H   H35       1.0  0.30707  0.29834  0.76884  1.0000
  H   H36       1.0  0.80707  0.20166  0.23116  1.0000
  C   C1        1.0  0.64218  0.68137  0.59866  1.0000
  C   C2        1.0  0.14218  0.81863  0.40134  1.0000
  C   C3        1.0  0.35782  0.31863  0.40134  1.0000
  C   C4        1.0  0.85781  0.18137  0.59866  1.0000
  C   C5        1.0  0.63145  0.61587  0.66611  1.0000
  C   C6        1.0  0.13144  0.88412  0.33389  1.0000
  C   C7        1.0  0.36856  0.38413  0.33389  1.0000
  C   C8        1.0  0.86855  0.11587  0.66611  1.0000
  C   C9        1.0  0.50085  0.53864  0.67928  1.0000
  C   C10       1.0  0.00084  0.96136  0.32072  1.0000
  C   C11       1.0  0.49916  0.46136  0.32072  1.0000
  C   C12       1.0  0.99915  0.03864  0.67928  1.0000
  C   C13       1.0  0.30228  0.51363  0.64246  1.0000
  C   C14       1.0  0.80228  0.98637  0.35754  1.0000
  C   C15       1.0  0.69772  0.48638  0.35754  1.0000
  C   C16       1.0  0.19771  0.01363  0.64246  1.0000
  C   C17       1.0  0.75882  0.52189  0.75645  1.0000
  C   C18       1.0  0.25882  0.97810  0.24355  1.0000
  C   C19       1.0  0.24118  0.47811  0.24355  1.0000
  C   C20       1.0  0.74118  0.02189  0.75645  1.0000
  C   C21       1.0  0.89812  0.48122  0.81143  1.0000
  C   C22       1.0  0.39811  0.01878  0.18857  1.0000
  C   C23       1.0  0.10189  0.51878  0.18857  1.0000
  C   C24       1.0  0.60189  0.98122  0.81143  1.0000
  C   C25       1.0  0.06026  0.54065  0.84952  1.0000
  C   C26       1.0  0.56027  0.95934  0.15048  1.0000
  C   C27       1.0  0.93974  0.45935  0.15048  1.0000
  C   C28       1.0  0.43973  0.04065  0.84952  1.0000
  C   C29       1.0  0.19394  0.49903  0.90016  1.0000
  C   C30       1.0  0.69393  0.00097  0.09984  1.0000
  C   C31       1.0  0.80606  0.50098  0.09984  1.0000
  C   C32       1.0  0.30606  0.99903  0.90016  1.0000
  C   C33       1.0  0.16527  0.39670  0.91224  1.0000
  C   C34       1.0  0.66528  0.10330  0.08776  1.0000
  C   C35       1.0  0.83473  0.60330  0.08776  1.0000
  C   C36       1.0  0.33472  0.89670  0.91224  1.0000
  C   C37       1.0  0.00587  0.33576  0.87467  1.0000
  C   C38       1.0  0.50587  0.16424  0.12533  1.0000
  C   C39       1.0  0.99413  0.66424  0.12533  1.0000
  C   C40       1.0  0.49413  0.83576  0.87467  1.0000
  C   C41       1.0  0.87228  0.37856  0.82505  1.0000
  C   C42       1.0  0.37228  0.12144  0.17495  1.0000
  C   C43       1.0  0.12771  0.62145  0.17495  1.0000
  C   C44       1.0  0.62771  0.87856  0.82505  1.0000
  Br  Br1       1.0  0.34817  0.33645  0.97928  1.0000
  Br  Br2       1.0  0.84817  0.16355  0.02072  1.0000
  Br  Br3       1.0  0.65183  0.66355  0.02072  1.0000
  Br  Br4       1.0  0.15183  0.83645  0.97928  1.0000
  N   N1        1.0  0.79139  0.60355  0.71644  1.0000
  N   N2        1.0  0.29138  0.89645  0.28356  1.0000
  N   N3        1.0  0.20861  0.39644  0.28357  1.0000
  N   N4        1.0  0.70861  0.10355  0.71644  1.0000
  N   N5        1.0  0.58225  0.48118  0.73443  1.0000
  N   N6        1.0  0.08224  0.01882  0.26556  1.0000
  N   N7        1.0  0.41776  0.51882  0.26556  1.0000
  N   N8        1.0  0.91776  0.98118  0.73443  1.0000
  O   O1        1.0  0.48975  0.70132  0.55887  1.0000
  O   O2        1.0  0.98975  0.79868  0.44113  1.0000
  O   O3        1.0  0.51026  0.29868  0.44113  1.0000
  O   O4        1.0  0.01025  0.20132  0.55887  1.0000
  O   O5        1.0  0.80879  0.71017  0.57898  1.0000
  O   O6        1.0  0.30879  0.78983  0.42102  1.0000
  O   O7        1.0  0.19122  0.28983  0.42102  1.0000
  O   O8        1.0  0.69120  0.21018  0.57898  1.0000
  O   O9        1.0  0.19293  0.59000  0.63762  1.0000
  O   O10       1.0  0.69294  0.91001  0.36238  1.0000
  O   O11       1.0  0.80707  0.41000  0.36238  1.0000
  O   O12       1.0  0.30706  0.09000  0.63762  1.0000
  O   O13       1.0  0.25154  0.41587  0.62010  1.0000
  O   O14       1.0  0.75153  0.08413  0.37990  1.0000
  O   O15       1.0  0.74847  0.58413  0.37990  1.0000
  O   O16       1.0  0.24846  0.91587  0.62009  1.0000
  O   O17       1.0  0.60791  0.92001  0.55441  1.0000
  O   O18       1.0  0.10791  0.57999  0.44559  1.0000
  O   O19       1.0  0.39209  0.07999  0.44559  1.0000
  O   O20       1.0  0.89209  0.42001  0.55441  1.0000
  O   O21       1.0  0.57250  0.71080  0.26524  1.0000
  O   O22       1.0  0.07250  0.78920  0.73475  1.0000
  O   O23       1.0  0.42750  0.28920  0.73476  1.0000
  O   O24       1.0  0.92750  0.21080  0.26524  1.0000
