data_image0
_chemical_formula_structural       Zn2H12C22Br2N4O10
_chemical_formula_sum              "Zn2 H12 C22 Br2 N4 O10"
_cell_length_a       6.80759
_cell_length_b       6.80781
_cell_length_c       13.2443
_cell_angle_alpha    89.9993
_cell_angle_beta     90.0006
_cell_angle_gamma    109.846

_space_group_name_H-M_alt    "P 1"
_space_group_IT_number       1

loop_
  _space_group_symop_operation_xyz
  'x, y, z'

loop_
  _atom_site_type_symbol
  _atom_site_label
  _atom_site_symmetry_multiplicity
  _atom_site_fract_x
  _atom_site_fract_y
  _atom_site_fract_z
  _atom_site_occupancy
  Zn  Zn1       1.0  0.65226  0.34769  0.50004  1.0000
  Zn  Zn2       1.0  0.65226  0.34769  0.99996  1.0000
  H   H1        1.0  0.37678  0.53232  0.55558  1.0000
  H   H2        1.0  0.46768  0.62320  0.44443  1.0000
  H   H3        1.0  0.37677  0.53232  0.94442  1.0000
  H   H4        1.0  0.46768  0.62320  0.05556  1.0000
  H   H5        1.0  0.29634  0.11494  0.58653  1.0000
  H   H6        1.0  0.88504  0.70364  0.41349  1.0000
  H   H7        1.0  0.29634  0.11493  0.91347  1.0000
  H   H8        1.0  0.88505  0.70365  0.08652  1.0000
  H   H9        1.0  0.91262  0.93183  0.58689  1.0000
  H   H10       1.0  0.06819  0.08738  0.41311  1.0000
  H   H11       1.0  0.91262  0.93183  0.91311  1.0000
  H   H12       1.0  0.06819  0.08738  0.08689  1.0000
  C   C1        1.0  0.02666  0.47544  0.61661  1.0000
  C   C2        1.0  0.52457  0.97336  0.38341  1.0000
  C   C3        1.0  0.02666  0.47545  0.88339  1.0000
  C   C4        1.0  0.52457  0.97337  0.11659  1.0000
  C   C5        1.0  0.85976  0.39933  0.69540  1.0000
  C   C6        1.0  0.60072  0.14032  0.30460  1.0000
  C   C7        1.0  0.85976  0.39933  0.80460  1.0000
  C   C8        1.0  0.60072  0.14032  0.19539  1.0000
  C   C9        1.0  0.54171  0.25139  0.75000  1.0000
  C   C10       1.0  0.74868  0.45826  0.25000  1.0000
  C   C11       1.0  0.32186  0.14017  0.75000  1.0000
  C   C12       1.0  0.85984  0.67815  0.25000  1.0000
  C   C13       1.0  0.21184  0.08099  0.65764  1.0000
  C   C14       1.0  0.91895  0.78816  0.34237  1.0000
  C   C15       1.0  0.21184  0.08100  0.84236  1.0000
  C   C16       1.0  0.91895  0.78816  0.15763  1.0000
  C   C17       1.0  0.99927  0.97610  0.65728  1.0000
  C   C18       1.0  0.02383  0.00072  0.34272  1.0000
  C   C19       1.0  0.99928  0.97611  0.84272  1.0000
  C   C20       1.0  0.02383  0.00072  0.15728  1.0000
  C   C21       1.0  0.89187  0.92653  0.75000  1.0000
  C   C22       1.0  0.07333  0.10808  0.25000  1.0000
  Br  Br1       1.0  0.60393  0.78906  0.75000  1.0000
  Br  Br2       1.0  0.21082  0.39601  0.25000  1.0000
  N   N1        1.0  0.66173  0.30998  0.66423  1.0000
  N   N2        1.0  0.69010  0.33830  0.33579  1.0000
  N   N3        1.0  0.66172  0.30998  0.83577  1.0000
  N   N4        1.0  0.69010  0.33830  0.16420  1.0000
  O   O1        1.0  0.96152  0.47355  0.52524  1.0000
  O   O2        1.0  0.52647  0.03853  0.47477  1.0000
  O   O3        1.0  0.96152  0.47356  0.97476  1.0000
  O   O4        1.0  0.52646  0.03852  0.02523  1.0000
  O   O5        1.0  0.21481  0.52942  0.64212  1.0000
  O   O6        1.0  0.47063  0.78524  0.35786  1.0000
  O   O7        1.0  0.21480  0.52942  0.85787  1.0000
  O   O8        1.0  0.47063  0.78523  0.14215  1.0000
  O   O9        1.0  0.47598  0.52400  0.50000  1.0000
  O   O10       1.0  0.47598  0.52400  0.00000  1.0000
