data_image0
_chemical_formula_structural       Ag8H16C16O16
_chemical_formula_sum              "Ag8 H16 C16 O16"
_cell_length_a       8.41116
_cell_length_b       8.41113
_cell_length_c       10.0035
_cell_angle_alpha    114.306
_cell_angle_beta     114.307
_cell_angle_gamma    91.1796

_space_group_name_H-M_alt    "P 1"
_space_group_IT_number       1

loop_
  _space_group_symop_operation_xyz
  'x, y, z'

loop_
  _atom_site_type_symbol
  _atom_site_label
  _atom_site_symmetry_multiplicity
  _atom_site_fract_x
  _atom_site_fract_y
  _atom_site_fract_z
  _atom_site_occupancy
  Ag  Ag1       1.0  0.77539  0.02533  0.05058  1.0000
  Ag  Ag2       1.0  0.22461  0.97467  0.94942  1.0000
  Ag  Ag3       1.0  0.52532  0.27539  0.55058  1.0000
  Ag  Ag4       1.0  0.47467  0.72461  0.44942  1.0000
  Ag  Ag5       1.0  0.49761  0.74767  0.75012  1.0000
  Ag  Ag6       1.0  0.24767  0.99761  0.25012  1.0000
  Ag  Ag7       1.0  0.50239  0.25233  0.24988  1.0000
  Ag  Ag8       1.0  0.75233  0.00239  0.74987  1.0000
  H   H1        1.0  0.40383  0.42662  0.81074  1.0000
  H   H2        1.0  0.09321  0.61592  0.18924  1.0000
  H   H3        1.0  0.92662  0.90383  0.31073  1.0000
  H   H4        1.0  0.11592  0.59320  0.68924  1.0000
  H   H5        1.0  0.59617  0.57338  0.18926  1.0000
  H   H6        1.0  0.90679  0.38408  0.81076  1.0000
  H   H7        1.0  0.07338  0.09617  0.68927  1.0000
  H   H8        1.0  0.88408  0.40680  0.31075  1.0000
  H   H9        1.0  0.33137  0.35488  0.92507  1.0000
  H   H10       1.0  0.90652  0.42989  0.07514  1.0000
  H   H11       1.0  0.85488  0.83137  0.42507  1.0000
  H   H12       1.0  0.92989  0.40652  0.57514  1.0000
  H   H13       1.0  0.66863  0.64512  0.07494  1.0000
  H   H14       1.0  0.09348  0.57011  0.92486  1.0000
  H   H15       1.0  0.14512  0.16864  0.57493  1.0000
  H   H16       1.0  0.07011  0.59348  0.42486  1.0000
  C   C1        1.0  0.56485  0.27313  0.91616  1.0000
  C   C2        1.0  0.14880  0.35703  0.08380  1.0000
  C   C3        1.0  0.77313  0.06485  0.41616  1.0000
  C   C4        1.0  0.85703  0.64879  0.58379  1.0000
  C   C5        1.0  0.43515  0.72687  0.08384  1.0000
  C   C6        1.0  0.85121  0.64297  0.91621  1.0000
  C   C7        1.0  0.22687  0.93515  0.58384  1.0000
  C   C8        1.0  0.14297  0.35120  0.41621  1.0000
  C   C9        1.0  0.44936  0.40969  0.92258  1.0000
  C   C10       1.0  0.02689  0.48718  0.07746  1.0000
  C   C11       1.0  0.90969  0.94936  0.42258  1.0000
  C   C12       1.0  0.98718  0.52689  0.57746  1.0000
  C   C13       1.0  0.55065  0.59031  0.07742  1.0000
  C   C14       1.0  0.97311  0.51282  0.92254  1.0000
  C   C15       1.0  0.09031  0.05065  0.57742  1.0000
  C   C16       1.0  0.01282  0.47311  0.42254  1.0000
  O   O1        1.0  0.62627  0.23633  0.03714  1.0000
  O   O2        1.0  0.08927  0.19933  0.96281  1.0000
  O   O3        1.0  0.73633  0.12627  0.53716  1.0000
  O   O4        1.0  0.69934  0.58927  0.46281  1.0000
  O   O5        1.0  0.37373  0.76367  0.96285  1.0000
  O   O6        1.0  0.91073  0.80066  0.03719  1.0000
  O   O7        1.0  0.26367  0.87373  0.46285  1.0000
  O   O8        1.0  0.30066  0.41073  0.53719  1.0000
  O   O9        1.0  0.29458  0.90517  0.70852  1.0000
  O   O10       1.0  0.08601  0.19655  0.29157  1.0000
  O   O11       1.0  0.40518  0.79457  0.20852  1.0000
  O   O12       1.0  0.69654  0.58601  0.79157  1.0000
  O   O13       1.0  0.70542  0.09483  0.29148  1.0000
  O   O14       1.0  0.91399  0.80345  0.70843  1.0000
  O   O15       1.0  0.59483  0.20543  0.79148  1.0000
  O   O16       1.0  0.30346  0.41398  0.20843  1.0000
