data_image0
_chemical_formula_structural       Hg2H32C48N28O4
_chemical_formula_sum              "Hg2 H32 C48 N28 O4"
_cell_length_a       7.33067
_cell_length_b       10.6466
_cell_length_c       15.9217
_cell_angle_alpha    89.9999
_cell_angle_beta     90.0004
_cell_angle_gamma    92.8451

_space_group_name_H-M_alt    "P 1"
_space_group_IT_number       1

loop_
  _space_group_symop_operation_xyz
  'x, y, z'

loop_
  _atom_site_type_symbol
  _atom_site_label
  _atom_site_symmetry_multiplicity
  _atom_site_fract_x
  _atom_site_fract_y
  _atom_site_fract_z
  _atom_site_occupancy
  Hg  Hg1       1.0  0.00000  0.50000  0.00000  1.0000
  Hg  Hg2       1.0  0.49999  0.50000  0.50000  1.0000
  H   H1        1.0  0.45005  0.20759  0.22453  1.0000
  H   H2        1.0  0.04995  0.79241  0.72453  1.0000
  H   H3        1.0  0.54994  0.79241  0.77547  1.0000
  H   H4        1.0  0.95005  0.20758  0.27547  1.0000
  H   H5        1.0  0.49141  0.27619  0.37138  1.0000
  H   H6        1.0  0.00859  0.72381  0.87138  1.0000
  H   H7        1.0  0.50860  0.72381  0.62862  1.0000
  H   H8        1.0  0.99141  0.27619  0.12862  1.0000
  H   H9        1.0  0.74762  0.61526  0.30189  1.0000
  H   H10       1.0  0.75239  0.38473  0.80189  1.0000
  H   H11       1.0  0.25238  0.38474  0.69811  1.0000
  H   H12       1.0  0.24762  0.61526  0.19811  1.0000
  H   H13       1.0  0.71194  0.56389  0.14834  1.0000
  H   H14       1.0  0.78806  0.43611  0.64834  1.0000
  H   H15       1.0  0.28806  0.43611  0.85166  1.0000
  H   H16       1.0  0.21194  0.56389  0.35166  1.0000
  H   H17       1.0  0.50014  0.18448  0.81239  1.0000
  H   H18       1.0  0.99986  0.81552  0.31239  1.0000
  H   H19       1.0  0.49985  0.81552  0.18761  1.0000
  H   H20       1.0  0.00014  0.18448  0.68761  1.0000
  H   H21       1.0  0.34245  0.00547  0.73846  1.0000
  H   H22       1.0  0.15755  0.99453  0.23846  1.0000
  H   H23       1.0  0.65755  0.99453  0.26154  1.0000
  H   H24       1.0  0.84245  0.00547  0.76154  1.0000
  H   H25       1.0  0.09679  0.87363  0.95811  1.0000
  H   H26       1.0  0.40321  0.12637  0.45811  1.0000
  H   H27       1.0  0.90321  0.12637  0.04189  1.0000
  H   H28       1.0  0.59680  0.87363  0.54189  1.0000
  H   H29       1.0  0.24673  0.04570  0.04243  1.0000
  H   H30       1.0  0.25327  0.95430  0.54243  1.0000
  H   H31       1.0  0.75326  0.95430  0.95757  1.0000
  H   H32       1.0  0.74673  0.04570  0.45757  1.0000
  C   C1        1.0  0.56180  0.34426  0.08656  1.0000
  C   C2        1.0  0.93819  0.65574  0.58656  1.0000
  C   C3        1.0  0.43819  0.65574  0.91344  1.0000
  C   C4        1.0  0.06181  0.34425  0.41344  1.0000
  C   C5        1.0  0.47737  0.23242  0.97987  1.0000
  C   C6        1.0  0.02263  0.76758  0.47988  1.0000
  C   C7        1.0  0.52262  0.76758  0.02013  1.0000
  C   C8        1.0  0.97737  0.23242  0.52013  1.0000
  C   C9        1.0  0.57886  0.38098  0.17391  1.0000
  C   C10       1.0  0.92114  0.61902  0.67392  1.0000
  C   C11       1.0  0.42113  0.61903  0.82608  1.0000
  C   C12       1.0  0.07887  0.38097  0.32609  1.0000
  C   C13       1.0  0.51621  0.29909  0.23762  1.0000
  C   C14       1.0  0.98379  0.70091  0.73762  1.0000
  C   C15       1.0  0.48379  0.70091  0.76238  1.0000
  C   C16       1.0  0.01621  0.29909  0.26238  1.0000
  C   C17       1.0  0.53970  0.33744  0.32042  1.0000
  C   C18       1.0  0.96030  0.66256  0.82042  1.0000
  C   C19       1.0  0.46030  0.66256  0.67958  1.0000
  C   C20       1.0  0.03970  0.33744  0.17958  1.0000
  C   C21       1.0  0.68118  0.52677  0.28125  1.0000
  C   C22       1.0  0.81882  0.47323  0.78125  1.0000
  C   C23       1.0  0.31882  0.47323  0.71875  1.0000
  C   C24       1.0  0.18119  0.52677  0.21875  1.0000
  C   C25       1.0  0.66280  0.49763  0.19634  1.0000
  C   C26       1.0  0.83720  0.50237  0.69634  1.0000
  C   C27       1.0  0.33720  0.50237  0.80366  1.0000
  C   C28       1.0  0.16280  0.49763  0.30366  1.0000
  C   C29       1.0  0.38645  0.12971  0.93400  1.0000
  C   C30       1.0  0.11355  0.87028  0.43400  1.0000
  C   C31       1.0  0.61355  0.87029  0.06600  1.0000
  C   C32       1.0  0.88645  0.12971  0.56600  1.0000
  C   C33       1.0  0.41246  0.11748  0.84720  1.0000
  C   C34       1.0  0.08754  0.88252  0.34720  1.0000
  C   C35       1.0  0.58754  0.88253  0.15280  1.0000
  C   C36       1.0  0.91246  0.11747  0.65280  1.0000
  C   C37       1.0  0.32312  0.01665  0.80595  1.0000
  C   C38       1.0  0.17688  0.98336  0.30595  1.0000
  C   C39       1.0  0.67688  0.98336  0.19405  1.0000
  C   C40       1.0  0.82312  0.01664  0.69405  1.0000
  C   C41       1.0  0.18790  0.94405  0.92767  1.0000
  C   C42       1.0  0.31210  0.05595  0.42767  1.0000
  C   C43       1.0  0.81210  0.05595  0.07233  1.0000
  C   C44       1.0  0.68790  0.94405  0.57233  1.0000
  C   C45       1.0  0.27126  0.04038  0.97514  1.0000
  C   C46       1.0  0.22875  0.95962  0.47514  1.0000
  C   C47       1.0  0.72874  0.95962  0.02486  1.0000
  C   C48       1.0  0.77126  0.04038  0.52486  1.0000
  N   N1        1.0  0.64270  0.39508  0.02032  1.0000
  N   N2        1.0  0.85729  0.60492  0.52032  1.0000
  N   N3        1.0  0.35729  0.60492  0.97968  1.0000
  N   N4        1.0  0.14271  0.39508  0.47968  1.0000
  N   N5        1.0  0.58856  0.32308  0.95143  1.0000
  N   N6        1.0  0.91144  0.67692  0.45143  1.0000
  N   N7        1.0  0.41143  0.67692  0.04857  1.0000
  N   N8        1.0  0.08856  0.32308  0.54857  1.0000
  N   N9        1.0  0.61990  0.44856  0.34272  1.0000
  N   N10       1.0  0.88010  0.55144  0.84272  1.0000
  N   N11       1.0  0.38010  0.55144  0.65728  1.0000
  N   N12       1.0  0.11990  0.44856  0.15728  1.0000
  N   N13       1.0  0.21249  0.93043  0.84457  1.0000
  N   N14       1.0  0.28751  0.06958  0.34457  1.0000
  N   N15       1.0  0.78751  0.06957  0.15543  1.0000
  N   N16       1.0  0.71249  0.93042  0.65543  1.0000
  N   N17       1.0  0.92104  0.68393  0.03296  1.0000
  N   N18       1.0  0.57896  0.31607  0.53296  1.0000
  N   N19       1.0  0.07896  0.31607  0.96704  1.0000
  N   N20       1.0  0.42103  0.68393  0.46704  1.0000
  N   N21       1.0  0.99879  0.74305  0.08876  1.0000
  N   N22       1.0  0.50121  0.25695  0.58876  1.0000
  N   N23       1.0  0.00122  0.25695  0.91124  1.0000
  N   N24       1.0  0.49878  0.74305  0.41124  1.0000
  N   N25       1.0  0.06245  0.80870  0.14049  1.0000
  N   N26       1.0  0.43755  0.19130  0.64049  1.0000
  N   N27       1.0  0.93754  0.19130  0.85951  1.0000
  N   N28       1.0  0.56246  0.80870  0.35951  1.0000
  O   O1        1.0  0.45439  0.24036  0.06517  1.0000
  O   O2        1.0  0.04562  0.75964  0.56517  1.0000
  O   O3        1.0  0.54561  0.75964  0.93483  1.0000
  O   O4        1.0  0.95439  0.24036  0.43484  1.0000
