data_image0
_chemical_formula_structural       Mn4H24C32N32O4
_chemical_formula_sum              "Mn4 H24 C32 N32 O4"
_cell_length_a       7.37543
_cell_length_b       8.91485
_cell_length_c       18.4314
_cell_angle_alpha    90.0001
_cell_angle_beta     89.9994
_cell_angle_gamma    109.255

_space_group_name_H-M_alt    "P 1"
_space_group_IT_number       1

loop_
  _space_group_symop_operation_xyz
  'x, y, z'

loop_
  _atom_site_type_symbol
  _atom_site_label
  _atom_site_symmetry_multiplicity
  _atom_site_fract_x
  _atom_site_fract_y
  _atom_site_fract_z
  _atom_site_occupancy
  Mn  Mn1       1.0  0.97736  0.82792  0.62510  1.0000
  Mn  Mn2       1.0  0.02264  0.67207  0.12510  1.0000
  Mn  Mn3       1.0  0.02265  0.17207  0.37490  1.0000
  Mn  Mn4       1.0  0.97736  0.32793  0.87489  1.0000
  H   H1        1.0  0.32104  0.02867  0.56762  1.0000
  H   H2        1.0  0.67896  0.47133  0.06761  1.0000
  H   H3        1.0  0.67896  0.97132  0.43239  1.0000
  H   H4        1.0  0.32104  0.52867  0.93239  1.0000
  H   H5        1.0  0.16255  0.08451  0.52753  1.0000
  H   H6        1.0  0.83745  0.41549  0.02753  1.0000
  H   H7        1.0  0.83745  0.91548  0.47247  1.0000
  H   H8        1.0  0.16255  0.58452  0.97247  1.0000
  H   H9        1.0  0.57030  0.86124  0.58466  1.0000
  H   H10       1.0  0.42971  0.63878  0.08466  1.0000
  H   H11       1.0  0.42970  0.13876  0.41534  1.0000
  H   H12       1.0  0.57030  0.36123  0.91534  1.0000
  H   H13       1.0  0.57020  0.32407  0.60665  1.0000
  H   H14       1.0  0.42981  0.17595  0.10665  1.0000
  H   H15       1.0  0.42980  0.67593  0.39335  1.0000
  H   H16       1.0  0.57019  0.82406  0.89336  1.0000
  H   H17       1.0  0.90291  0.40383  0.66319  1.0000
  H   H18       1.0  0.09710  0.09618  0.16319  1.0000
  H   H19       1.0  0.09708  0.59616  0.33681  1.0000
  H   H20       1.0  0.90291  0.90383  0.83681  1.0000
  H   H21       1.0  0.05403  0.18690  0.67559  1.0000
  H   H22       1.0  0.94597  0.31311  0.17559  1.0000
  H   H23       1.0  0.94596  0.81310  0.32441  1.0000
  H   H24       1.0  0.05403  0.68689  0.82442  1.0000
  C   C1        1.0  0.59436  0.57084  0.69981  1.0000
  C   C2        1.0  0.40565  0.92916  0.19981  1.0000
  C   C3        1.0  0.40565  0.42916  0.30019  1.0000
  C   C4        1.0  0.59435  0.07084  0.80020  1.0000
  C   C5        1.0  0.29062  0.46021  0.75153  1.0000
  C   C6        1.0  0.70937  0.03979  0.25154  1.0000
  C   C7        1.0  0.70937  0.53979  0.24847  1.0000
  C   C8        1.0  0.29063  0.96021  0.74846  1.0000
  C   C9        1.0  0.76332  0.61049  0.49244  1.0000
  C   C10       1.0  0.23667  0.88951  0.99244  1.0000
  C   C11       1.0  0.23668  0.38950  0.50756  1.0000
  C   C12       1.0  0.76332  0.11050  0.00756  1.0000
  C   C13       1.0  0.78113  0.40084  0.42353  1.0000
  C   C14       1.0  0.21887  0.09916  0.92353  1.0000
  C   C15       1.0  0.21888  0.59916  0.57647  1.0000
  C   C16       1.0  0.78113  0.90086  0.07647  1.0000
  C   C17       1.0  0.64488  0.98326  0.60178  1.0000
  C   C18       1.0  0.35512  0.51676  0.10177  1.0000
  C   C19       1.0  0.35512  0.01674  0.39822  1.0000
  C   C20       1.0  0.64488  0.48324  0.89823  1.0000
  C   C21       1.0  0.64650  0.23917  0.61425  1.0000
  C   C22       1.0  0.35351  0.26084  0.11425  1.0000
  C   C23       1.0  0.35350  0.76082  0.38575  1.0000
  C   C24       1.0  0.64649  0.73916  0.88575  1.0000
  C   C25       1.0  0.82928  0.28322  0.64452  1.0000
  C   C26       1.0  0.17073  0.21678  0.14452  1.0000
  C   C27       1.0  0.17072  0.71678  0.35548  1.0000
  C   C28       1.0  0.82926  0.78321  0.85548  1.0000
  C   C29       1.0  0.91252  0.16462  0.65146  1.0000
  C   C30       1.0  0.08748  0.33539  0.15146  1.0000
  C   C31       1.0  0.08748  0.83538  0.34854  1.0000
  C   C32       1.0  0.91251  0.66462  0.84854  1.0000
  N   N1        1.0  0.74371  0.66162  0.68155  1.0000
  N   N2        1.0  0.25629  0.83838  0.18155  1.0000
  N   N3        1.0  0.25630  0.33839  0.31845  1.0000
  N   N4        1.0  0.74371  0.16161  0.81845  1.0000
  N   N5        1.0  0.43930  0.45715  0.71579  1.0000
  N   N6        1.0  0.56069  0.04285  0.21580  1.0000
  N   N7        1.0  0.56070  0.54286  0.28420  1.0000
  N   N8        1.0  0.43930  0.95714  0.78421  1.0000
  N   N9        1.0  0.14535  0.44495  0.78260  1.0000
  N   N10       1.0  0.85464  0.05505  0.28260  1.0000
  N   N11       1.0  0.85465  0.55505  0.21739  1.0000
  N   N12       1.0  0.14536  0.94495  0.71739  1.0000
  N   N13       1.0  0.81638  0.73496  0.52248  1.0000
  N   N14       1.0  0.18362  0.76503  0.02248  1.0000
  N   N15       1.0  0.18362  0.26502  0.47752  1.0000
  N   N16       1.0  0.81638  0.23498  0.97752  1.0000
  N   N17       1.0  0.69005  0.47377  0.46226  1.0000
  N   N18       1.0  0.30994  0.02623  0.96226  1.0000
  N   N19       1.0  0.30995  0.52622  0.53774  1.0000
  N   N20       1.0  0.69006  0.97379  0.03774  1.0000
  N   N21       1.0  0.84889  0.32455  0.38689  1.0000
  N   N22       1.0  0.15111  0.17544  0.88689  1.0000
  N   N23       1.0  0.15112  0.67544  0.61310  1.0000
  N   N24       1.0  0.84889  0.82457  0.11310  1.0000
  N   N25       1.0  0.82153  0.01483  0.62938  1.0000
  N   N26       1.0  0.17847  0.48518  0.12938  1.0000
  N   N27       1.0  0.17847  0.98517  0.37062  1.0000
  N   N28       1.0  0.82154  0.51482  0.87062  1.0000
  N   N29       1.0  0.55329  0.08865  0.59366  1.0000
  N   N30       1.0  0.44672  0.41136  0.09366  1.0000
  N   N31       1.0  0.44671  0.91135  0.40634  1.0000
  N   N32       1.0  0.55328  0.58863  0.90635  1.0000
  O   O1        1.0  0.18133  0.99255  0.55256  1.0000
  O   O2        1.0  0.81867  0.50745  0.05256  1.0000
  O   O3        1.0  0.81867  0.00744  0.44744  1.0000
  O   O4        1.0  0.18133  0.49256  0.94744  1.0000
