data_image0
_chemical_formula_structural       Cd4H40C64N16O16
_chemical_formula_sum              "Cd4 H40 C64 N16 O16"
_cell_length_a       9.74314
_cell_length_b       11.2824
_cell_length_c       14.7324
_cell_angle_alpha    106.06
_cell_angle_beta     90
_cell_angle_gamma    89.9994

_space_group_name_H-M_alt    "P 1"
_space_group_IT_number       1

loop_
  _space_group_symop_operation_xyz
  'x, y, z'

loop_
  _atom_site_type_symbol
  _atom_site_label
  _atom_site_symmetry_multiplicity
  _atom_site_fract_x
  _atom_site_fract_y
  _atom_site_fract_z
  _atom_site_occupancy
  Cd  Cd1       1.0  0.89105  0.36102  0.48095  1.0000
  Cd  Cd2       1.0  0.39105  0.63897  0.01904  1.0000
  Cd  Cd3       1.0  0.10895  0.63897  0.51905  1.0000
  Cd  Cd4       1.0  0.60895  0.36103  0.98096  1.0000
  H   H1        1.0  0.70725  0.40320  0.30161  1.0000
  H   H2        1.0  0.20725  0.59681  0.19838  1.0000
  H   H3        1.0  0.29275  0.59680  0.69837  1.0000
  H   H4        1.0  0.79274  0.40320  0.80162  1.0000
  H   H5        1.0  0.39412  0.66105  0.27319  1.0000
  H   H6        1.0  0.89412  0.33897  0.22682  1.0000
  H   H7        1.0  0.60587  0.33895  0.72681  1.0000
  H   H8        1.0  0.10588  0.66104  0.77318  1.0000
  H   H9        1.0  0.05437  0.24035  0.27557  1.0000
  H   H10       1.0  0.55435  0.75964  0.22441  1.0000
  H   H11       1.0  0.94565  0.75965  0.72442  1.0000
  H   H12       1.0  0.44563  0.24037  0.77559  1.0000
  H   H13       1.0  0.39825  0.76464  0.44718  1.0000
  H   H14       1.0  0.89823  0.23537  0.05283  1.0000
  H   H15       1.0  0.60175  0.23535  0.55283  1.0000
  H   H16       1.0  0.10176  0.76463  0.94717  1.0000
  H   H17       1.0  0.26215  0.85459  0.32758  1.0000
  H   H18       1.0  0.76214  0.14540  0.17242  1.0000
  H   H19       1.0  0.73787  0.14542  0.67243  1.0000
  H   H20       1.0  0.23790  0.85458  0.82758  1.0000
  H   H21       1.0  0.13999  0.07009  0.14035  1.0000
  H   H22       1.0  0.63997  0.92989  0.35964  1.0000
  H   H23       1.0  0.86003  0.92991  0.85965  1.0000
  H   H24       1.0  0.36002  0.07011  0.64036  1.0000
  H   H25       1.0  0.72471  0.60101  0.65068  1.0000
  H   H26       1.0  0.22470  0.39897  0.84932  1.0000
  H   H27       1.0  0.27528  0.39897  0.34932  1.0000
  H   H28       1.0  0.77529  0.60104  0.15068  1.0000
  H   H29       1.0  0.07953  0.19477  0.60274  1.0000
  H   H30       1.0  0.57954  0.80523  0.89725  1.0000
  H   H31       1.0  0.92044  0.80522  0.39725  1.0000
  H   H32       1.0  0.42046  0.19477  0.10276  1.0000
  H   H33       1.0  0.54214  0.74291  0.61604  1.0000
  H   H34       1.0  0.04213  0.25709  0.88396  1.0000
  H   H35       1.0  0.45785  0.25708  0.38395  1.0000
  H   H36       1.0  0.95786  0.74292  0.11604  1.0000
  H   H37       1.0  0.19949  0.98674  0.52416  1.0000
  H   H38       1.0  0.69949  0.01326  0.97583  1.0000
  H   H39       1.0  0.80051  0.01326  0.47584  1.0000
  H   H40       1.0  0.30052  0.98673  0.02417  1.0000
  C   C1        1.0  0.56082  0.64373  0.46943  1.0000
  C   C2        1.0  0.06081  0.35627  0.03057  1.0000
  C   C3        1.0  0.43918  0.35626  0.53056  1.0000
  C   C4        1.0  0.93919  0.64372  0.96943  1.0000
  C   C5        1.0  0.55250  0.52874  0.27768  1.0000
  C   C6        1.0  0.05250  0.47127  0.22232  1.0000
  C   C7        1.0  0.44749  0.47126  0.72231  1.0000
  C   C8        1.0  0.94749  0.52874  0.77768  1.0000
  C   C9        1.0  0.55308  0.47049  0.17315  1.0000
  C   C10       1.0  0.05308  0.52954  0.32686  1.0000
  C   C11       1.0  0.44691  0.52952  0.82685  1.0000
  C   C12       1.0  0.94691  0.47046  0.67314  1.0000
  C   C13       1.0  0.64729  0.54140  0.42973  1.0000
  C   C14       1.0  0.14728  0.45860  0.07027  1.0000
  C   C15       1.0  0.35271  0.45859  0.57026  1.0000
  C   C16       1.0  0.85272  0.54140  0.92973  1.0000
  C   C17       1.0  0.64361  0.48305  0.33309  1.0000
  C   C18       1.0  0.14361  0.51696  0.16691  1.0000
  C   C19       1.0  0.35639  0.51695  0.66691  1.0000
  C   C20       1.0  0.85638  0.48304  0.83309  1.0000
  C   C21       1.0  0.46556  0.63005  0.31869  1.0000
  C   C22       1.0  0.96556  0.36996  0.18132  1.0000
  C   C23       1.0  0.53444  0.36995  0.68131  1.0000
  C   C24       1.0  0.03444  0.63004  0.81868  1.0000
  C   C25       1.0  0.10113  0.15814  0.28689  1.0000
  C   C26       1.0  0.60112  0.84185  0.21310  1.0000
  C   C27       1.0  0.89889  0.84185  0.71311  1.0000
  C   C28       1.0  0.39888  0.15816  0.78690  1.0000
  C   C29       1.0  0.11145  0.14316  0.37777  1.0000
  C   C30       1.0  0.61144  0.85684  0.12222  1.0000
  C   C31       1.0  0.88856  0.85685  0.62222  1.0000
  C   C32       1.0  0.38855  0.14317  0.87779  1.0000
  C   C33       1.0  0.46810  0.68928  0.41496  1.0000
  C   C34       1.0  0.96810  0.31073  0.08505  1.0000
  C   C35       1.0  0.53189  0.31073  0.58504  1.0000
  C   C36       1.0  0.03190  0.68926  0.91495  1.0000
  C   C37       1.0  0.20702  0.95439  0.22667  1.0000
  C   C38       1.0  0.70701  0.04559  0.27333  1.0000
  C   C39       1.0  0.79300  0.04561  0.77334  1.0000
  C   C40       1.0  0.29300  0.95441  0.72668  1.0000
  C   C41       1.0  0.25444  0.85385  0.14334  1.0000
  C   C42       1.0  0.75443  0.14613  0.35666  1.0000
  C   C43       1.0  0.74557  0.14614  0.85667  1.0000
  C   C44       1.0  0.24557  0.85387  0.64334  1.0000
  C   C45       1.0  0.21947  0.93926  0.31762  1.0000
  C   C46       1.0  0.71946  0.06073  0.18238  1.0000
  C   C47       1.0  0.78055  0.06075  0.68237  1.0000
  C   C48       1.0  0.28056  0.93927  0.81763  1.0000
  C   C49       1.0  0.17192  0.03542  0.39240  1.0000
  C   C50       1.0  0.67191  0.96457  0.10760  1.0000
  C   C51       1.0  0.82810  0.96458  0.60761  1.0000
  C   C52       1.0  0.32810  0.03542  0.89240  1.0000
  C   C53       1.0  0.14919  0.06307  0.21238  1.0000
  C   C54       1.0  0.64918  0.93692  0.28762  1.0000
  C   C55       1.0  0.85083  0.93693  0.78763  1.0000
  C   C56       1.0  0.35082  0.06308  0.71238  1.0000
  C   C57       1.0  0.68565  0.59605  0.58080  1.0000
  C   C58       1.0  0.18565  0.40395  0.91921  1.0000
  C   C59       1.0  0.31434  0.40395  0.41920  1.0000
  C   C60       1.0  0.81434  0.59606  0.08079  1.0000
  C   C61       1.0  0.10257  0.16051  0.52791  1.0000
  C   C62       1.0  0.60258  0.83950  0.97209  1.0000
  C   C63       1.0  0.89742  0.83949  0.47209  1.0000
  C   C64       1.0  0.39742  0.16051  0.02792  1.0000
  N   N1        1.0  0.58913  0.67585  0.56529  1.0000
  N   N2        1.0  0.08913  0.32414  0.93472  1.0000
  N   N3        1.0  0.41086  0.32414  0.43471  1.0000
  N   N4        1.0  0.91087  0.67586  0.06528  1.0000
  N   N5        1.0  0.72347  0.51444  0.50163  1.0000
  N   N6        1.0  0.22347  0.48556  0.99837  1.0000
  N   N7        1.0  0.27653  0.48555  0.49836  1.0000
  N   N8        1.0  0.77653  0.51445  0.00163  1.0000
  N   N9        1.0  0.06862  0.21930  0.46406  1.0000
  N   N10       1.0  0.56862  0.78070  0.03594  1.0000
  N   N11       1.0  0.93138  0.78070  0.53594  1.0000
  N   N12       1.0  0.43137  0.21931  0.96407  1.0000
  N   N13       1.0  0.16555  0.05109  0.48902  1.0000
  N   N14       1.0  0.66555  0.94891  0.01097  1.0000
  N   N15       1.0  0.83445  0.94892  0.51098  1.0000
  N   N16       1.0  0.33446  0.05109  0.98903  1.0000
  O   O1        1.0  0.49799  0.52770  0.11869  1.0000
  O   O2        1.0  0.99800  0.47232  0.38132  1.0000
  O   O3        1.0  0.50199  0.47232  0.88132  1.0000
  O   O4        1.0  0.00200  0.52767  0.61868  1.0000
  O   O5        1.0  0.61471  0.36731  0.14141  1.0000
  O   O6        1.0  0.11472  0.63270  0.35859  1.0000
  O   O7        1.0  0.38527  0.63269  0.85858  1.0000
  O   O8        1.0  0.88527  0.36730  0.64142  1.0000
  O   O9        1.0  0.29501  0.75304  0.15803  1.0000
  O   O10       1.0  0.79500  0.24694  0.34197  1.0000
  O   O11       1.0  0.70499  0.24696  0.84197  1.0000
  O   O12       1.0  0.20500  0.75306  0.65804  1.0000
  O   O13       1.0  0.25240  0.86989  0.06093  1.0000
  O   O14       1.0  0.75238  0.13009  0.43907  1.0000
  O   O15       1.0  0.74761  0.13010  0.93907  1.0000
  O   O16       1.0  0.24761  0.86992  0.56094  1.0000
