data_image0
_chemical_formula_structural       Cd2H28C32N8O12
_chemical_formula_sum              "Cd2 H28 C32 N8 O12"
_cell_length_a       9.15916
_cell_length_b       9.03551
_cell_length_c       12.8476
_cell_angle_alpha    78.1717
_cell_angle_beta     69.1158
_cell_angle_gamma    59.5238

_space_group_name_H-M_alt    "P 1"
_space_group_IT_number       1

loop_
  _space_group_symop_operation_xyz
  'x, y, z'

loop_
  _atom_site_type_symbol
  _atom_site_label
  _atom_site_symmetry_multiplicity
  _atom_site_fract_x
  _atom_site_fract_y
  _atom_site_fract_z
  _atom_site_occupancy
  Cd  Cd1       1.0  0.50000  0.00000  1.00000  1.0000
  Cd  Cd2       1.0  0.50000  0.50000  0.50000  1.0000
  H   H1        1.0  0.30156  0.55589  0.07086  1.0000
  H   H2        1.0  0.92817  0.94351  0.42949  1.0000
  H   H3        1.0  0.69844  0.44411  0.92914  1.0000
  H   H4        1.0  0.07183  0.05649  0.57050  1.0000
  H   H5        1.0  0.18943  0.37588  0.21427  1.0000
  H   H6        1.0  0.77966  0.12371  0.28590  1.0000
  H   H7        1.0  0.81057  0.62412  0.78573  1.0000
  H   H8        1.0  0.22033  0.87630  0.71410  1.0000
  H   H9        1.0  0.90043  0.99580  0.84595  1.0000
  H   H10       1.0  0.74190  0.50388  0.65410  1.0000
  H   H11       1.0  0.09958  0.00420  0.15404  1.0000
  H   H12       1.0  0.25810  0.49612  0.34590  1.0000
  H   H13       1.0  0.67392  0.66349  0.16344  1.0000
  H   H14       1.0  0.50065  0.83666  0.33645  1.0000
  H   H15       1.0  0.32608  0.33651  0.83656  1.0000
  H   H16       1.0  0.49935  0.16334  0.66355  1.0000
  H   H17       1.0  0.19523  0.81374  0.89451  1.0000
  H   H18       1.0  0.90336  0.68579  0.60553  1.0000
  H   H19       1.0  0.80478  0.18625  0.10549  1.0000
  H   H20       1.0  0.09664  0.31421  0.39447  1.0000
  H   H21       1.0  0.56031  0.24153  0.03367  1.0000
  H   H22       1.0  0.83572  0.25844  0.46631  1.0000
  H   H23       1.0  0.43968  0.75847  0.96633  1.0000
  H   H24       1.0  0.16428  0.74156  0.53370  1.0000
  H   H25       1.0  0.42262  0.35337  0.96561  1.0000
  H   H26       1.0  0.74186  0.14655  0.53432  1.0000
  H   H27       1.0  0.57738  0.64663  0.03439  1.0000
  H   H28       1.0  0.25814  0.85345  0.46568  1.0000
  C   C1        1.0  0.87889  0.72634  0.05092  1.0000
  C   C2        1.0  0.65612  0.77330  0.44903  1.0000
  C   C3        1.0  0.12111  0.27366  0.94908  1.0000
  C   C4        1.0  0.34388  0.22670  0.55097  1.0000
  C   C5        1.0  0.84884  0.42013  0.29389  1.0000
  C   C6        1.0  0.56289  0.07964  0.20612  1.0000
  C   C7        1.0  0.15116  0.57987  0.70611  1.0000
  C   C8        1.0  0.43710  0.92036  0.79388  1.0000
  C   C9        1.0  0.92505  0.51069  0.19694  1.0000
  C   C10       1.0  0.63273  0.98905  0.30308  1.0000
  C   C11       1.0  0.07495  0.48931  0.80306  1.0000
  C   C12       1.0  0.36727  0.01095  0.69692  1.0000
  C   C13       1.0  0.05615  0.69475  0.02497  1.0000
  C   C14       1.0  0.77582  0.80476  0.47506  1.0000
  C   C15       1.0  0.94385  0.30525  0.97503  1.0000
  C   C16       1.0  0.22418  0.19524  0.52494  1.0000
  C   C17       1.0  0.16926  0.57265  0.08565  1.0000
  C   C18       1.0  0.82754  0.92684  0.41449  1.0000
  C   C19       1.0  0.83074  0.42735  0.91435  1.0000
  C   C20       1.0  0.17246  0.07316  0.58551  1.0000
  C   C21       1.0  0.10232  0.47877  0.16956  1.0000
  C   C22       1.0  0.75070  0.02085  0.33054  1.0000
  C   C23       1.0  0.89768  0.52123  0.83043  1.0000
  C   C24       1.0  0.24930  0.97916  0.66946  1.0000
  C   C25       1.0  0.92113  0.89776  0.91210  1.0000
  C   C26       1.0  0.73084  0.60186  0.58790  1.0000
  C   C27       1.0  0.07888  0.10224  0.08789  1.0000
  C   C28       1.0  0.26916  0.39814  0.41210  1.0000
  C   C29       1.0  0.81175  0.63619  0.13799  1.0000
  C   C30       1.0  0.58589  0.86362  0.36196  1.0000
  C   C31       1.0  0.18825  0.36381  0.86200  1.0000
  C   C32       1.0  0.41412  0.13638  0.63804  1.0000
  N   N1        1.0  0.79816  0.85528  0.97883  1.0000
  N   N2        1.0  0.63219  0.64444  0.52110  1.0000
  N   N3        1.0  0.20184  0.14473  0.02116  1.0000
  N   N4        1.0  0.36782  0.35556  0.47890  1.0000
  N   N5        1.0  0.07768  0.80545  0.93640  1.0000
  N   N6        1.0  0.81945  0.69402  0.56363  1.0000
  N   N7        1.0  0.92233  0.19455  0.06360  1.0000
  N   N8        1.0  0.18055  0.30598  0.43637  1.0000
  O   O1        1.0  0.68716  0.45977  0.31474  1.0000
  O   O2        1.0  0.46196  0.03974  0.18519  1.0000
  O   O3        1.0  0.31284  0.54023  0.68526  1.0000
  O   O4        1.0  0.53804  0.96026  0.81481  1.0000
  O   O5        1.0  0.94918  0.30934  0.35223  1.0000
  O   O6        1.0  0.61042  0.19065  0.14791  1.0000
  O   O7        1.0  0.05082  0.69066  0.64778  1.0000
  O   O8        1.0  0.38957  0.80935  0.85210  1.0000
  O   O9        1.0  0.53963  0.25397  0.95863  1.0000
  O   O10       1.0  0.75236  0.24597  0.54131  1.0000
  O   O11       1.0  0.46037  0.74603  0.04137  1.0000
  O   O12       1.0  0.24764  0.75403  0.45869  1.0000
