data_image0
_chemical_formula_structural       La2H42C54O12
_chemical_formula_sum              "La2 H42 C54 O12"
_cell_length_a       7.82846
_cell_length_b       13.3692
_cell_length_c       13.3692
_cell_angle_alpha    116.293
_cell_angle_beta     101.256
_cell_angle_gamma    101.255

_space_group_name_H-M_alt    "P 1"
_space_group_IT_number       1

loop_
  _space_group_symop_operation_xyz
  'x, y, z'

loop_
  _atom_site_type_symbol
  _atom_site_label
  _atom_site_symmetry_multiplicity
  _atom_site_fract_x
  _atom_site_fract_y
  _atom_site_fract_z
  _atom_site_occupancy
  La  La1       1.0  0.00623  0.00000  0.99996  1.0000
  La  La2       1.0  0.50623  0.99996  0.00000  1.0000
  H   H1        1.0  0.43564  0.64705  0.82321  1.0000
  H   H2        1.0  0.78868  0.17614  0.35292  1.0000
  H   H3        1.0  0.61248  0.17695  0.82394  1.0000
  H   H4        1.0  0.11248  0.82394  0.17695  1.0000
  H   H5        1.0  0.93564  0.82321  0.64705  1.0000
  H   H6        1.0  0.28867  0.35292  0.17614  1.0000
  H   H7        1.0  0.75779  0.61271  0.96443  1.0000
  H   H8        1.0  0.14519  0.35166  0.38725  1.0000
  H   H9        1.0  0.79333  0.03563  0.64837  1.0000
  H   H10       1.0  0.29334  0.64837  0.03563  1.0000
  H   H11       1.0  0.25779  0.96443  0.61271  1.0000
  H   H12       1.0  0.64519  0.38725  0.35166  1.0000
  H   H13       1.0  0.27077  0.45536  0.74186  1.0000
  H   H14       1.0  0.81551  0.28657  0.54465  1.0000
  H   H15       1.0  0.52877  0.25817  0.71347  1.0000
  H   H16       1.0  0.02877  0.71347  0.25817  1.0000
  H   H17       1.0  0.77077  0.74186  0.45536  1.0000
  H   H18       1.0  0.31551  0.54465  0.28656  1.0000
  H   H19       1.0  0.07314  0.26715  0.70662  1.0000
  H   H20       1.0  0.80612  0.43960  0.73285  1.0000
  H   H21       1.0  0.36660  0.29338  0.56040  1.0000
  H   H22       1.0  0.86660  0.56040  0.29338  1.0000
  H   H23       1.0  0.57314  0.70662  0.26715  1.0000
  H   H24       1.0  0.30611  0.73285  0.43960  1.0000
  H   H25       1.0  0.17896  0.17670  0.82527  1.0000
  H   H26       1.0  0.00227  0.64874  0.82322  1.0000
  H   H27       1.0  0.35382  0.17459  0.35132  1.0000
  H   H28       1.0  0.85382  0.35131  0.17458  1.0000
  H   H29       1.0  0.67896  0.82528  0.17671  1.0000
  H   H30       1.0  0.50227  0.82322  0.64873  1.0000
  H   H31       1.0  0.48785  0.27721  0.97856  1.0000
  H   H32       1.0  0.21061  0.70146  0.72267  1.0000
  H   H33       1.0  0.50936  0.02126  0.29861  1.0000
  H   H34       1.0  0.00936  0.29862  0.02125  1.0000
  H   H35       1.0  0.98785  0.97856  0.27721  1.0000
  H   H36       1.0  0.71061  0.72267  0.70146  1.0000
  H   H37       1.0  0.68815  0.46511  0.01316  1.0000
  H   H38       1.0  0.22310  0.54810  0.53484  1.0000
  H   H39       1.0  0.67517  0.98687  0.45206  1.0000
  H   H40       1.0  0.17517  0.45206  0.98687  1.0000
  H   H41       1.0  0.18815  0.01317  0.46511  1.0000
  H   H42       1.0  0.72310  0.53484  0.54810  1.0000
  C   C1        1.0  0.71140  0.77519  0.91436  1.0000
  C   C2        1.0  0.93635  0.13915  0.22478  1.0000
  C   C3        1.0  0.79684  0.08560  0.86081  1.0000
  C   C4        1.0  0.29684  0.86081  0.08560  1.0000
  C   C5        1.0  0.21141  0.91436  0.77519  1.0000
  C   C6        1.0  0.43635  0.22478  0.13915  1.0000
  C   C7        1.0  0.57391  0.66244  0.87465  1.0000
  C   C8        1.0  0.91161  0.21217  0.33756  1.0000
  C   C9        1.0  0.69925  0.12547  0.78786  1.0000
  C   C10       1.0  0.19924  0.78786  0.12547  1.0000
  C   C11       1.0  0.07391  0.87465  0.66244  1.0000
  C   C12       1.0  0.41161  0.33756  0.21217  1.0000
  C   C13       1.0  0.61690  0.58632  0.90786  1.0000
  C   C14       1.0  0.03073  0.32152  0.41367  1.0000
  C   C15       1.0  0.70913  0.09227  0.67854  1.0000
  C   C16       1.0  0.20913  0.67854  0.09227  1.0000
  C   C17       1.0  0.11691  0.90786  0.58632  1.0000
  C   C18       1.0  0.53073  0.41367  0.32152  1.0000
  C   C19       1.0  0.49404  0.47445  0.88099  1.0000
  C   C20       1.0  0.01972  0.40656  0.52552  1.0000
  C   C21       1.0  0.61319  0.11909  0.59352  1.0000
  C   C22       1.0  0.11319  0.59351  0.11910  1.0000
  C   C23       1.0  0.99404  0.88099  0.47445  1.0000
  C   C24       1.0  0.51972  0.52552  0.40656  1.0000
  C   C25       1.0  0.31897  0.41704  0.79434  1.0000
  C   C26       1.0  0.90206  0.37737  0.58295  1.0000
  C   C27       1.0  0.52468  0.20572  0.62269  1.0000
  C   C28       1.0  0.02469  0.62269  0.20572  1.0000
  C   C29       1.0  0.81896  0.79434  0.41704  1.0000
  C   C30       1.0  0.40206  0.58295  0.37737  1.0000
  C   C31       1.0  0.20767  0.31066  0.77430  1.0000
  C   C32       1.0  0.89712  0.46376  0.68933  1.0000
  C   C33       1.0  0.43352  0.22572  0.53629  1.0000
  C   C34       1.0  0.93351  0.53629  0.22572  1.0000
  C   C35       1.0  0.70767  0.77430  0.31066  1.0000
  C   C36       1.0  0.39712  0.68933  0.46376  1.0000
  C   C37       1.0  0.26702  0.25955  0.84046  1.0000
  C   C38       1.0  0.00747  0.58107  0.74037  1.0000
  C   C39       1.0  0.42672  0.15947  0.41901  1.0000
  C   C40       1.0  0.92672  0.41901  0.15947  1.0000
  C   C41       1.0  0.76702  0.84047  0.25955  1.0000
  C   C42       1.0  0.50747  0.74037  0.58107  1.0000
  C   C43       1.0  0.44022  0.31594  0.92658  1.0000
  C   C44       1.0  0.12423  0.61075  0.68395  1.0000
  C   C45       1.0  0.51376  0.07334  0.38934  1.0000
  C   C46       1.0  0.01376  0.38934  0.07334  1.0000
  C   C47       1.0  0.94023  0.92659  0.31594  1.0000
  C   C48       1.0  0.62423  0.68395  0.61075  1.0000
  C   C49       1.0  0.55303  0.42152  0.94599  1.0000
  C   C50       1.0  0.13155  0.52452  0.57841  1.0000
  C   C51       1.0  0.60720  0.05402  0.47559  1.0000
  C   C52       1.0  0.10720  0.47559  0.05402  1.0000
  C   C53       1.0  0.05303  0.94599  0.42152  1.0000
  C   C54       1.0  0.63155  0.57841  0.52452  1.0000
  O   O1        1.0  0.65916  0.85414  0.89613  1.0000
  O   O2        1.0  0.80520  0.04190  0.14583  1.0000
  O   O3        1.0  0.76299  0.10393  0.95808  1.0000
  O   O4        1.0  0.26299  0.95808  0.10393  1.0000
  O   O5        1.0  0.15916  0.89613  0.85414  1.0000
  O   O6        1.0  0.30520  0.14583  0.04190  1.0000
  O   O7        1.0  0.88054  0.79677  0.96522  1.0000
  O   O8        1.0  0.08382  0.16852  0.20316  1.0000
  O   O9        1.0  0.91483  0.03451  0.83138  1.0000
  O   O10       1.0  0.41483  0.83139  0.03452  1.0000
  O   O11       1.0  0.38055  0.96522  0.79678  1.0000
  O   O12       1.0  0.58382  0.20316  0.16852  1.0000
