data_image0
_chemical_formula_structural       CoH22C14N2O8
_chemical_formula_sum              "Co1 H22 C14 N2 O8"
_cell_length_a       7.01961
_cell_length_b       8.84846
_cell_length_c       11.0671
_cell_angle_alpha    79.9615
_cell_angle_beta     66.3498
_cell_angle_gamma    62.2719

_space_group_name_H-M_alt    "P 1"
_space_group_IT_number       1

loop_
  _space_group_symop_operation_xyz
  'x, y, z'

loop_
  _atom_site_type_symbol
  _atom_site_label
  _atom_site_symmetry_multiplicity
  _atom_site_fract_x
  _atom_site_fract_y
  _atom_site_fract_z
  _atom_site_occupancy
  Co  Co1       1.0  0.49999  0.00000  0.99999  1.0000
  H   H1        1.0  0.78792  0.08843  0.98977  1.0000
  H   H2        1.0  0.21207  0.91158  0.01019  1.0000
  H   H3        1.0  0.98954  0.96767  0.87261  1.0000
  H   H4        1.0  0.01042  0.03232  0.12736  1.0000
  H   H5        1.0  0.25030  0.97527  0.40384  1.0000
  H   H6        1.0  0.74967  0.02476  0.59613  1.0000
  H   H7        1.0  0.82980  0.06369  0.35359  1.0000
  H   H8        1.0  0.17016  0.93636  0.64640  1.0000
  H   H9        1.0  0.11374  0.25723  0.20365  1.0000
  H   H10       1.0  0.88629  0.74275  0.79635  1.0000
  H   H11       1.0  0.28208  0.64297  0.06227  1.0000
  H   H12       1.0  0.71793  0.35703  0.93776  1.0000
  H   H13       1.0  0.04125  0.70894  0.01517  1.0000
  H   H14       1.0  0.95877  0.29104  0.98485  1.0000
  H   H15       1.0  0.30131  0.52172  0.94025  1.0000
  H   H16       1.0  0.69872  0.47825  0.05978  1.0000
  H   H17       1.0  0.76052  0.67222  0.23557  1.0000
  H   H18       1.0  0.23951  0.32777  0.76448  1.0000
  H   H19       1.0  0.97146  0.65081  0.29687  1.0000
  H   H20       1.0  0.02860  0.34916  0.70316  1.0000
  H   H21       1.0  0.87621  0.48706  0.32747  1.0000
  H   H22       1.0  0.12383  0.51292  0.67257  1.0000
  C   C1        1.0  0.58960  0.04749  0.21972  1.0000
  C   C2        1.0  0.41038  0.95252  0.78026  1.0000
  C   C3        1.0  0.54321  0.02337  0.36434  1.0000
  C   C4        1.0  0.45676  0.97666  0.63565  1.0000
  C   C5        1.0  0.35830  0.98610  0.44718  1.0000
  C   C6        1.0  0.64167  0.01392  0.55281  1.0000
  C   C7        1.0  0.68467  0.03690  0.41840  1.0000
  C   C8        1.0  0.31530  0.96314  0.58158  1.0000
  C   C9        1.0  0.18572  0.32516  0.11820  1.0000
  C   C10       1.0  0.81428  0.67483  0.88181  1.0000
  C   C11       1.0  0.18725  0.59731  0.03134  1.0000
  C   C12       1.0  0.81277  0.40267  0.96868  1.0000
  C   C13       1.0  0.91628  0.58054  0.25564  1.0000
  C   C14       1.0  0.08376  0.41943  0.74439  1.0000
  N   N1        1.0  0.10014  0.49293  0.13416  1.0000
  N   N2        1.0  0.89988  0.50705  0.86586  1.0000
  O   O1        1.0  0.71311  0.12374  0.15236  1.0000
  O   O2        1.0  0.28686  0.87628  0.84762  1.0000
  O   O3        1.0  0.49629  0.98621  0.17475  1.0000
  O   O4        1.0  0.50371  0.01379  0.82523  1.0000
  O   O5        1.0  0.33989  0.24651  0.01226  1.0000
  O   O6        1.0  0.66009  0.75350  0.98774  1.0000
  O   O7        1.0  0.82285  0.04692  0.90154  1.0000
  O   O8        1.0  0.17712  0.95309  0.09842  1.0000
