data_image0
_chemical_formula_structural       Zn4H16C8N16Cl8
_chemical_formula_sum              "Zn4 H16 C8 N16 Cl8"
_cell_length_a       7.37458
_cell_length_b       7.40603
_cell_length_c       13.4863
_cell_angle_alpha    89.9997
_cell_angle_beta     90.0003
_cell_angle_gamma    90.0001

_space_group_name_H-M_alt    "P 1"
_space_group_IT_number       1

loop_
  _space_group_symop_operation_xyz
  'x, y, z'

loop_
  _atom_site_type_symbol
  _atom_site_label
  _atom_site_symmetry_multiplicity
  _atom_site_fract_x
  _atom_site_fract_y
  _atom_site_fract_z
  _atom_site_occupancy
  Zn  Zn1       1.0  0.23611  0.72366  0.42476  1.0000
  Zn  Zn2       1.0  0.76388  0.22366  0.57525  1.0000
  Zn  Zn3       1.0  0.76388  0.72366  0.92476  1.0000
  Zn  Zn4       1.0  0.23612  0.22366  0.07525  1.0000
  H   H1        1.0  0.49472  0.60783  0.70796  1.0000
  H   H2        1.0  0.50527  0.10783  0.29204  1.0000
  H   H3        1.0  0.50528  0.60783  0.20796  1.0000
  H   H4        1.0  0.49472  0.10782  0.79204  1.0000
  H   H5        1.0  0.48036  0.63265  0.57951  1.0000
  H   H6        1.0  0.51963  0.13265  0.42049  1.0000
  H   H7        1.0  0.51964  0.63265  0.07951  1.0000
  H   H8        1.0  0.48037  0.13265  0.92049  1.0000
  H   H9        1.0  0.28573  0.75626  0.80875  1.0000
  H   H10       1.0  0.71427  0.25625  0.19125  1.0000
  H   H11       1.0  0.71427  0.75626  0.30874  1.0000
  H   H12       1.0  0.28573  0.25625  0.69126  1.0000
  H   H13       1.0  0.08616  0.84785  0.75846  1.0000
  H   H14       1.0  0.91384  0.34784  0.24154  1.0000
  H   H15       1.0  0.91384  0.84785  0.25846  1.0000
  H   H16       1.0  0.08616  0.34785  0.74154  1.0000
  C   C1        1.0  0.27193  0.74506  0.65801  1.0000
  C   C2        1.0  0.72807  0.24506  0.34199  1.0000
  C   C3        1.0  0.72807  0.74506  0.15801  1.0000
  C   C4        1.0  0.27193  0.24506  0.84199  1.0000
  C   C5        1.0  0.05171  0.91346  0.58110  1.0000
  C   C6        1.0  0.94829  0.41345  0.41890  1.0000
  C   C7        1.0  0.94830  0.91346  0.08110  1.0000
  C   C8        1.0  0.05170  0.41346  0.91890  1.0000
  N   N1        1.0  0.42138  0.64649  0.64777  1.0000
  N   N2        1.0  0.57862  0.14649  0.35223  1.0000
  N   N3        1.0  0.57862  0.64649  0.14777  1.0000
  N   N4        1.0  0.42138  0.14649  0.85223  1.0000
  N   N5        1.0  0.21153  0.79119  0.74741  1.0000
  N   N6        1.0  0.78847  0.29119  0.25259  1.0000
  N   N7        1.0  0.78847  0.79119  0.24741  1.0000
  N   N8        1.0  0.21153  0.29119  0.75259  1.0000
  N   N9        1.0  0.18256  0.79685  0.57354  1.0000
  N   N10       1.0  0.81744  0.29684  0.42646  1.0000
  N   N11       1.0  0.81745  0.79685  0.07354  1.0000
  N   N12       1.0  0.18255  0.29685  0.92646  1.0000
  N   N13       1.0  0.93348  0.01909  0.58245  1.0000
  N   N14       1.0  0.06652  0.51909  0.41755  1.0000
  N   N15       1.0  0.06652  0.01908  0.08245  1.0000
  N   N16       1.0  0.93348  0.51909  0.91755  1.0000
  Cl  Cl1       1.0  0.52509  0.63056  0.41485  1.0000
  Cl  Cl2       1.0  0.47491  0.13056  0.58515  1.0000
  Cl  Cl3       1.0  0.47491  0.63055  0.91485  1.0000
  Cl  Cl4       1.0  0.52509  0.13054  0.08515  1.0000
  Cl  Cl5       1.0  0.16565  0.96209  0.33198  1.0000
  Cl  Cl6       1.0  0.83435  0.46209  0.66802  1.0000
  Cl  Cl7       1.0  0.83434  0.96209  0.83197  1.0000
  Cl  Cl8       1.0  0.16566  0.46209  0.16803  1.0000
