data_image0
_chemical_formula_structural       Ca4H16C28N8O32
_chemical_formula_sum              "Ca4 H16 C28 N8 O32"
_cell_length_a       6.71844
_cell_length_b       12.4406
_cell_length_c       12.4739
_cell_angle_alpha    111.579
_cell_angle_beta     90.0001
_cell_angle_gamma    89.9996

_space_group_name_H-M_alt    "P 1"
_space_group_IT_number       1

loop_
  _space_group_symop_operation_xyz
  'x, y, z'

loop_
  _atom_site_type_symbol
  _atom_site_label
  _atom_site_symmetry_multiplicity
  _atom_site_fract_x
  _atom_site_fract_y
  _atom_site_fract_z
  _atom_site_occupancy
  Ca  Ca1       1.0  0.99103  0.84547  0.48727  1.0000
  Ca  Ca2       1.0  0.49104  0.65453  0.51273  1.0000
  Ca  Ca3       1.0  0.00897  0.15453  0.51273  1.0000
  Ca  Ca4       1.0  0.50897  0.34547  0.48726  1.0000
  H   H1        1.0  0.67278  0.18476  0.80833  1.0000
  H   H2        1.0  0.17278  0.31524  0.19167  1.0000
  H   H3        1.0  0.32723  0.81524  0.19168  1.0000
  H   H4        1.0  0.82723  0.68476  0.80833  1.0000
  H   H5        1.0  0.21331  0.03537  0.95281  1.0000
  H   H6        1.0  0.71330  0.46464  0.04719  1.0000
  H   H7        1.0  0.78669  0.96463  0.04719  1.0000
  H   H8        1.0  0.28669  0.53536  0.95280  1.0000
  H   H9        1.0  0.15958  0.64656  0.31032  1.0000
  H   H10       1.0  0.65958  0.85345  0.68968  1.0000
  H   H11       1.0  0.84042  0.35345  0.68968  1.0000
  H   H12       1.0  0.34042  0.14655  0.31032  1.0000
  H   H13       1.0  0.98756  0.67206  0.23638  1.0000
  H   H14       1.0  0.48756  0.82794  0.76362  1.0000
  H   H15       1.0  0.01243  0.32794  0.76362  1.0000
  H   H16       1.0  0.51244  0.17206  0.23638  1.0000
  C   C1        1.0  0.22701  0.05332  0.68592  1.0000
  C   C2        1.0  0.72702  0.44668  0.31408  1.0000
  C   C3        1.0  0.77299  0.94668  0.31408  1.0000
  C   C4        1.0  0.27298  0.55332  0.68592  1.0000
  C   C5        1.0  0.41409  0.11493  0.70140  1.0000
  C   C6        1.0  0.91409  0.38507  0.29861  1.0000
  C   C7        1.0  0.58591  0.88507  0.29861  1.0000
  C   C8        1.0  0.08590  0.61493  0.70139  1.0000
  C   C9        1.0  0.53329  0.13773  0.79889  1.0000
  C   C10       1.0  0.03329  0.36227  0.20111  1.0000
  C   C11       1.0  0.46671  0.86227  0.20111  1.0000
  C   C12       1.0  0.96671  0.63773  0.79889  1.0000
  C   C13       1.0  0.45784  0.10862  0.88756  1.0000
  C   C14       1.0  0.95784  0.39138  0.11245  1.0000
  C   C15       1.0  0.54216  0.89138  0.11245  1.0000
  C   C16       1.0  0.04216  0.60862  0.88755  1.0000
  C   C17       1.0  0.27302  0.05293  0.87954  1.0000
  C   C18       1.0  0.77303  0.44707  0.12047  1.0000
  C   C19       1.0  0.72698  0.94707  0.12046  1.0000
  C   C20       1.0  0.22697  0.55292  0.87954  1.0000
  C   C21       1.0  0.16229  0.01989  0.77881  1.0000
  C   C22       1.0  0.66230  0.48011  0.22119  1.0000
  C   C23       1.0  0.83771  0.98011  0.22119  1.0000
  C   C24       1.0  0.33769  0.51988  0.77881  1.0000
  C   C25       1.0  0.97301  0.95042  0.77392  1.0000
  C   C26       1.0  0.47300  0.54957  0.22608  1.0000
  C   C27       1.0  0.02700  0.04958  0.22608  1.0000
  C   C28       1.0  0.52700  0.45042  0.77392  1.0000
  N   N1        1.0  0.57005  0.14398  0.99455  1.0000
  N   N2        1.0  0.07006  0.35601  0.00545  1.0000
  N   N3        1.0  0.42995  0.85602  0.00545  1.0000
  N   N4        1.0  0.92995  0.64398  0.99455  1.0000
  N   N5        1.0  0.48677  0.15109  0.61345  1.0000
  N   N6        1.0  0.98677  0.34891  0.38655  1.0000
  N   N7        1.0  0.51324  0.84891  0.38655  1.0000
  N   N8        1.0  0.01323  0.65109  0.61344  1.0000
  O   O1        1.0  0.13054  0.02741  0.59002  1.0000
  O   O2        1.0  0.63054  0.47260  0.40999  1.0000
  O   O3        1.0  0.86947  0.97259  0.40999  1.0000
  O   O4        1.0  0.36946  0.52740  0.59000  1.0000
  O   O5        1.0  0.88821  0.90072  0.67323  1.0000
  O   O6        1.0  0.38822  0.59928  0.32678  1.0000
  O   O7        1.0  0.11180  0.09928  0.32677  1.0000
  O   O8        1.0  0.61179  0.40072  0.67322  1.0000
  O   O9        1.0  0.91130  0.94225  0.86401  1.0000
  O   O10       1.0  0.41130  0.55774  0.13599  1.0000
  O   O11       1.0  0.08870  0.05775  0.13599  1.0000
  O   O12       1.0  0.58870  0.44225  0.86401  1.0000
  O   O13       1.0  0.73939  0.18357  0.99699  1.0000
  O   O14       1.0  0.23939  0.31643  0.00301  1.0000
  O   O15       1.0  0.26061  0.81643  0.00302  1.0000
  O   O16       1.0  0.76061  0.68358  0.99699  1.0000
  O   O17       1.0  0.48641  0.13220  0.07912  1.0000
  O   O18       1.0  0.98641  0.36780  0.92088  1.0000
  O   O19       1.0  0.51359  0.86780  0.92089  1.0000
  O   O20       1.0  0.01359  0.63219  0.07911  1.0000
  O   O21       1.0  0.66940  0.15069  0.59591  1.0000
  O   O22       1.0  0.16940  0.34931  0.40409  1.0000
  O   O23       1.0  0.33060  0.84931  0.40409  1.0000
  O   O24       1.0  0.83060  0.65070  0.59592  1.0000
  O   O25       1.0  0.36668  0.18674  0.55481  1.0000
  O   O26       1.0  0.86668  0.31326  0.44518  1.0000
  O   O27       1.0  0.63333  0.81326  0.44519  1.0000
  O   O28       1.0  0.13332  0.68674  0.55481  1.0000
  O   O29       1.0  0.02291  0.68236  0.31604  1.0000
  O   O30       1.0  0.52291  0.81765  0.68396  1.0000
  O   O31       1.0  0.97709  0.31764  0.68396  1.0000
  O   O32       1.0  0.47709  0.18235  0.31604  1.0000
