data_image0
_chemical_formula_structural       Ag2P4H62C58N4O8
_chemical_formula_sum              "Ag2 P4 H62 C58 N4 O8"
_cell_length_a       11.0188
_cell_length_b       11.8876
_cell_length_c       12.9055
_cell_angle_alpha    112.393
_cell_angle_beta     102.334
_cell_angle_gamma    105.787

_space_group_name_H-M_alt    "P 1"
_space_group_IT_number       1

loop_
  _space_group_symop_operation_xyz
  'x, y, z'

loop_
  _atom_site_type_symbol
  _atom_site_label
  _atom_site_symmetry_multiplicity
  _atom_site_fract_x
  _atom_site_fract_y
  _atom_site_fract_z
  _atom_site_occupancy
  Ag  Ag1       1.0  0.20217  0.48474  0.32399  1.0000
  Ag  Ag2       1.0  0.79783  0.51526  0.67601  1.0000
  P   P1        1.0  0.31901  0.34642  0.34291  1.0000
  P   P2        1.0  0.68099  0.65359  0.65709  1.0000
  P   P3        1.0  0.10917  0.62825  0.43434  1.0000
  P   P4        1.0  0.89083  0.37174  0.56567  1.0000
  H   H1        1.0  0.40427  0.44884  0.55820  1.0000
  H   H2        1.0  0.59573  0.55116  0.44180  1.0000
  H   H3        1.0  0.51092  0.37428  0.50268  1.0000
  H   H4        1.0  0.48908  0.62572  0.49732  1.0000
  H   H5        1.0  0.13709  0.58869  0.60436  1.0000
  H   H6        1.0  0.86291  0.41131  0.39565  1.0000
  H   H7        1.0  0.99715  0.63343  0.58105  1.0000
  H   H8        1.0  0.00285  0.36657  0.41895  1.0000
  H   H9        1.0  0.94287  0.34426  0.02038  1.0000
  H   H10       1.0  0.05713  0.65575  0.97962  1.0000
  H   H11       1.0  0.77577  0.96851  0.95164  1.0000
  H   H12       1.0  0.22423  0.03149  0.04836  1.0000
  H   H13       1.0  0.65306  0.02727  0.99428  1.0000
  H   H14       1.0  0.34695  0.97273  0.00572  1.0000
  H   H15       1.0  0.81866  0.09048  0.10322  1.0000
  H   H16       1.0  0.18134  0.90952  0.89678  1.0000
  H   H17       1.0  0.77900  0.22961  0.85118  1.0000
  H   H18       1.0  0.22100  0.77039  0.14882  1.0000
  H   H19       1.0  0.62759  0.12938  0.85412  1.0000
  H   H20       1.0  0.37241  0.87061  0.14588  1.0000
  H   H21       1.0  0.73160  0.05461  0.79031  1.0000
  H   H22       1.0  0.26840  0.94539  0.20969  1.0000
  H   H23       1.0  0.29720  0.35236  0.11635  1.0000
  H   H24       1.0  0.70280  0.64764  0.88365  1.0000
  H   H25       1.0  0.42912  0.30728  0.98097  1.0000
  H   H26       1.0  0.57088  0.69272  0.01903  1.0000
  H   H27       1.0  0.61702  0.23967  0.03123  1.0000
  H   H28       1.0  0.38298  0.76034  0.96877  1.0000
  H   H29       1.0  0.66849  0.20376  0.21195  1.0000
  H   H30       1.0  0.33151  0.79624  0.78805  1.0000
  H   H31       1.0  0.53788  0.24621  0.34522  1.0000
  H   H32       1.0  0.46212  0.75379  0.65478  1.0000
  H   H33       1.0  0.07460  0.13688  0.16009  1.0000
  H   H34       1.0  0.92540  0.86312  0.83991  1.0000
  H   H35       1.0  0.93301  0.91646  0.12934  1.0000
  H   H36       1.0  0.06699  0.08354  0.87066  1.0000
  H   H37       1.0  0.99062  0.84791  0.28754  1.0000
  H   H38       1.0  0.00938  0.15209  0.71246  1.0000
  H   H39       1.0  0.19632  0.99576  0.47031  1.0000
  H   H40       1.0  0.80368  0.00424  0.52969  1.0000
  H   H41       1.0  0.34486  0.20863  0.49639  1.0000
  H   H42       1.0  0.65514  0.79137  0.50361  1.0000
  H   H43       1.0  0.03279  0.57130  0.18879  1.0000
  H   H44       1.0  0.96721  0.42870  0.81121  1.0000
  H   H45       1.0  0.82733  0.54854  0.04144  1.0000
  H   H46       1.0  0.17267  0.45146  0.95856  1.0000
  H   H47       1.0  0.64029  0.58951  0.10777  1.0000
  H   H48       1.0  0.35972  0.41049  0.89223  1.0000
  H   H49       1.0  0.65899  0.65830  0.31818  1.0000
  H   H50       1.0  0.34101  0.34170  0.68182  1.0000
  H   H51       1.0  0.86101  0.67742  0.46515  1.0000
  H   H52       1.0  0.13899  0.32258  0.53486  1.0000
  H   H53       1.0  0.07340  0.84550  0.62170  1.0000
  H   H54       1.0  0.92660  0.15450  0.37830  1.0000
  H   H55       1.0  0.22446  0.07896  0.75802  1.0000
  H   H56       1.0  0.77554  0.92104  0.24198  1.0000
  H   H57       1.0  0.45068  0.17123  0.75041  1.0000
  H   H58       1.0  0.54932  0.82877  0.24959  1.0000
  H   H59       1.0  0.52837  0.02663  0.60478  1.0000
  H   H60       1.0  0.47163  0.97337  0.39522  1.0000
  H   H61       1.0  0.37652  0.79080  0.46515  1.0000
  H   H62       1.0  0.62348  0.20920  0.53485  1.0000
  C   C1        1.0  0.45325  0.43362  0.49098  1.0000
  C   C2        1.0  0.54675  0.56638  0.50902  1.0000
  C   C3        1.0  0.04728  0.57276  0.53474  1.0000
  C   C4        1.0  0.95272  0.42724  0.46526  1.0000
  C   C5        1.0  0.91823  0.27264  0.05552  1.0000
  C   C6        1.0  0.08177  0.72736  0.94448  1.0000
  C   C7        1.0  0.76125  0.05601  0.00895  1.0000
  C   C8        1.0  0.23875  0.94399  0.99106  1.0000
  C   C9        1.0  0.73236  0.14268  0.86199  1.0000
  C   C10       1.0  0.26764  0.85732  0.13801  1.0000
  C   C11       1.0  0.40996  0.30416  0.24045  1.0000
  C   C12       1.0  0.59004  0.69584  0.75955  1.0000
  C   C13       1.0  0.37799  0.31876  0.13638  1.0000
  C   C14       1.0  0.62201  0.68124  0.86362  1.0000
  C   C15       1.0  0.45132  0.29321  0.06045  1.0000
  C   C16       1.0  0.54868  0.70679  0.93955  1.0000
  C   C17       1.0  0.55693  0.25389  0.08833  1.0000
  C   C18       1.0  0.44306  0.74611  0.91167  1.0000
  C   C19       1.0  0.58720  0.23613  0.19044  1.0000
  C   C20       1.0  0.41280  0.76387  0.80956  1.0000
  C   C21       1.0  0.51357  0.26064  0.26598  1.0000
  C   C22       1.0  0.48643  0.73936  0.73402  1.0000
  C   C23       1.0  0.22060  0.18723  0.32898  1.0000
  C   C24       1.0  0.77940  0.81277  0.67101  1.0000
  C   C25       1.0  0.10359  0.10352  0.22587  1.0000
  C   C26       1.0  0.89641  0.89648  0.77413  1.0000
  C   C27       1.0  0.02273  0.98116  0.21023  1.0000
  C   C28       1.0  0.97727  0.01884  0.78977  1.0000
  C   C29       1.0  0.05511  0.94241  0.29863  1.0000
  C   C30       1.0  0.94489  0.05759  0.70137  1.0000
  C   C31       1.0  0.17067  0.02523  0.40113  1.0000
  C   C32       1.0  0.82933  0.97476  0.59886  1.0000
  C   C33       1.0  0.25439  0.14648  0.41601  1.0000
  C   C34       1.0  0.74561  0.85352  0.58399  1.0000
  C   C35       1.0  0.96037  0.62463  0.33615  1.0000
  C   C36       1.0  0.03963  0.37537  0.66386  1.0000
  C   C37       1.0  0.95059  0.59040  0.21691  1.0000
  C   C38       1.0  0.04941  0.40960  0.78309  1.0000
  C   C39       1.0  0.83664  0.57917  0.13488  1.0000
  C   C40       1.0  0.16336  0.42083  0.86512  1.0000
  C   C41       1.0  0.73183  0.60269  0.17197  1.0000
  C   C42       1.0  0.26817  0.39731  0.82803  1.0000
  C   C43       1.0  0.74168  0.63966  0.29097  1.0000
  C   C44       1.0  0.25832  0.36034  0.70903  1.0000
  C   C45       1.0  0.85527  0.65006  0.37283  1.0000
  C   C46       1.0  0.14473  0.34994  0.62717  1.0000
  C   C47       1.0  0.21590  0.80198  0.53496  1.0000
  C   C48       1.0  0.78409  0.19802  0.46504  1.0000
  C   C49       1.0  0.17327  0.88357  0.61771  1.0000
  C   C50       1.0  0.82672  0.11643  0.38228  1.0000
  C   C51       1.0  0.25840  0.01549  0.69499  1.0000
  C   C52       1.0  0.74160  0.98451  0.30501  1.0000
  C   C53       1.0  0.38613  0.06730  0.69064  1.0000
  C   C54       1.0  0.61387  0.93270  0.30936  1.0000
  C   C55       1.0  0.42882  0.98653  0.60853  1.0000
  C   C56       1.0  0.57118  0.01347  0.39147  1.0000
  C   C57       1.0  0.34416  0.85423  0.53046  1.0000
  C   C58       1.0  0.65584  0.14577  0.46954  1.0000
  N   N1        1.0  0.36137  0.60862  0.19841  1.0000
  N   N2        1.0  0.63863  0.39138  0.80160  1.0000
  N   N3        1.0  0.80770  0.16213  0.97875  1.0000
  N   N4        1.0  0.19230  0.83787  0.02125  1.0000
  O   O1        1.0  0.23387  0.54071  0.16204  1.0000
  O   O2        1.0  0.76613  0.45929  0.83796  1.0000
  O   O3        1.0  0.43307  0.65321  0.30721  1.0000
  O   O4        1.0  0.56693  0.34679  0.69279  1.0000
  O   O5        1.0  0.41228  0.62862  0.12553  1.0000
  O   O6        1.0  0.58773  0.37138  0.87447  1.0000
  O   O7        1.0  0.98722  0.29420  0.15625  1.0000
  O   O8        1.0  0.01278  0.70580  0.84375  1.0000
