data_image0
_chemical_formula_structural       Ni2H38C34N10O10
_chemical_formula_sum              "Ni2 H38 C34 N10 O10"
_cell_length_a       8.68336
_cell_length_b       11.1219
_cell_length_c       11.9819
_cell_angle_alpha    102.841
_cell_angle_beta     112.758
_cell_angle_gamma    102.341

_space_group_name_H-M_alt    "P 1"
_space_group_IT_number       1

loop_
  _space_group_symop_operation_xyz
  'x, y, z'

loop_
  _atom_site_type_symbol
  _atom_site_label
  _atom_site_symmetry_multiplicity
  _atom_site_fract_x
  _atom_site_fract_y
  _atom_site_fract_z
  _atom_site_occupancy
  Ni  Ni1       1.0  0.95535  0.95948  0.58523  1.0000
  Ni  Ni2       1.0  0.96851  0.44347  0.10539  1.0000
  H   H1        1.0  0.49757  0.82248  0.23466  1.0000
  H   H2        1.0  0.47798  0.97218  0.41913  1.0000
  H   H3        1.0  0.02083  0.66034  0.34379  1.0000
  H   H4        1.0  0.40399  0.07993  0.93586  1.0000
  H   H5        1.0  0.42489  0.93908  0.74724  1.0000
  H   H6        1.0  0.91564  0.23913  0.86027  1.0000
  H   H7        1.0  0.32876  0.35589  0.19945  1.0000
  H   H8        1.0  0.18180  0.22067  0.45960  1.0000
  H   H9        1.0  0.93171  0.32174  0.32267  1.0000
  H   H10       1.0  0.53000  0.26983  0.33509  1.0000
  H   H11       1.0  0.44162  0.15381  0.39576  1.0000
  H   H12       1.0  0.98426  0.52068  0.86558  1.0000
  H   H13       1.0  0.60981  0.54143  0.00614  1.0000
  H   H14       1.0  0.50289  0.59855  0.77940  1.0000
  H   H15       1.0  0.87697  0.58928  0.68194  1.0000
  H   H16       1.0  0.74418  0.68969  0.68092  1.0000
  H   H17       1.0  0.47187  0.50314  0.53653  1.0000
  H   H18       1.0  0.62348  0.51656  0.47213  1.0000
  H   H19       1.0  0.53984  0.31772  0.60120  1.0000
  H   H20       1.0  0.72065  0.33964  0.56611  1.0000
  H   H21       1.0  0.03925  0.08053  0.88863  1.0000
  H   H22       1.0  0.13932  0.76235  0.69920  1.0000
  H   H23       1.0  0.24447  0.77613  0.95567  1.0000
  H   H24       1.0  0.20076  0.09268  0.11946  1.0000
  H   H25       1.0  0.29666  0.97177  0.15346  1.0000
  H   H26       1.0  0.99661  0.81260  0.08468  1.0000
  H   H27       1.0  0.06231  0.95543  0.21552  1.0000
  H   H28       1.0  0.80114  0.90235  0.93408  1.0000
  H   H29       1.0  0.87594  0.05079  0.06103  1.0000
  H   H30       1.0  0.77046  0.15166  0.45765  1.0000
  H   H31       1.0  0.63261  0.10601  0.19324  1.0000
  H   H32       1.0  0.86241  0.81908  0.28596  1.0000
  H   H33       1.0  0.57694  0.90253  0.00613  1.0000
  H   H34       1.0  0.66715  0.78088  0.04574  1.0000
  H   H35       1.0  0.68146  0.80412  0.55302  1.0000
  H   H36       1.0  0.68136  0.75677  0.41705  1.0000
  H   H37       1.0  0.22789  0.11471  0.61452  1.0000
  H   H38       1.0  0.22078  0.18058  0.74524  1.0000
  C   C1        1.0  0.27128  0.57441  0.08134  1.0000
  C   C2        1.0  0.27151  0.66662  0.19598  1.0000
  C   C3        1.0  0.39620  0.79172  0.26412  1.0000
  C   C4        1.0  0.38357  0.87372  0.36391  1.0000
  C   C5        1.0  0.24585  0.82877  0.39321  1.0000
  C   C6        1.0  0.12886  0.70067  0.32320  1.0000
  C   C7        1.0  0.21570  0.91840  0.49047  1.0000
  C   C8        1.0  0.65127  0.31560  0.11347  1.0000
  C   C9        1.0  0.65079  0.22732  0.99652  1.0000
  C   C10       1.0  0.51468  0.10950  0.91494  1.0000
  C   C11       1.0  0.52619  0.03308  0.81131  1.0000
  C   C12       1.0  0.67165  0.07783  0.78950  1.0000
  C   C13       1.0  0.80053  0.19852  0.87360  1.0000
  C   C14       1.0  0.69836  0.99425  0.68604  1.0000
  C   C15       1.0  0.25178  0.33489  0.25018  1.0000
  C   C16       1.0  0.17301  0.26385  0.38566  1.0000
  C   C17       1.0  0.05026  0.31327  0.31670  1.0000
  C   C18       1.0  0.46860  0.25559  0.39808  1.0000
  C   C19       1.0  0.87043  0.53563  0.87588  1.0000
  C   C20       1.0  0.67392  0.54633  0.94462  1.0000
  C   C21       1.0  0.61810  0.57430  0.83184  1.0000
  C   C22       1.0  0.74792  0.59079  0.67544  1.0000
  C   C23       1.0  0.59942  0.49100  0.54900  1.0000
  C   C24       1.0  0.58804  0.34919  0.53636  1.0000
  C   C25       1.0  0.07756  0.99473  0.86920  1.0000
  C   C26       1.0  0.13342  0.82966  0.77700  1.0000
  C   C27       1.0  0.18538  0.83571  0.90291  1.0000
  C   C28       1.0  0.17569  0.98684  0.09242  1.0000
  C   C29       1.0  0.01990  0.91863  0.11148  1.0000
  C   C30       1.0  0.84926  0.94462  0.03852  1.0000
  C   C31       1.0  0.76893  0.07616  0.38207  1.0000
  C   C32       1.0  0.70108  0.05431  0.25190  1.0000
  C   C33       1.0  0.82181  0.90463  0.29895  1.0000
  C   C34       1.0  0.69765  0.88675  0.06665  1.0000
  N   N1        1.0  0.10011  0.35646  0.23225  1.0000
  N   N2        1.0  0.29965  0.27826  0.34240  1.0000
  N   N3        1.0  0.83217  0.52305  0.97107  1.0000
  N   N4        1.0  0.74427  0.56721  0.78979  1.0000
  N   N5        1.0  0.14876  0.94119  0.95989  1.0000
  N   N6        1.0  0.06576  0.92884  0.75708  1.0000
  N   N7        1.0  0.84356  0.98234  0.41009  1.0000
  N   N8        1.0  0.73604  0.94525  0.20069  1.0000
  N   N9        1.0  0.14116  0.62249  0.22665  1.0000
  N   N10       1.0  0.79138  0.26920  0.97554  1.0000
  O   O1        1.0  0.15842  0.45833  0.03545  1.0000
  O   O2        1.0  0.37494  0.61849  0.03945  1.0000
  O   O3        1.0  0.30030  0.03987  0.52955  1.0000
  O   O4        1.0  0.10077  0.86424  0.52176  1.0000
  O   O5        1.0  0.77629  0.42657  0.17145  1.0000
  O   O6        1.0  0.53362  0.27311  0.14495  1.0000
  O   O7        1.0  0.61499  0.87220  0.64389  1.0000
  O   O8        1.0  0.80919  0.05253  0.65346  1.0000
  O   O9        1.0  0.75337  0.77396  0.50822  1.0000
  O   O10       1.0  0.15034  0.14683  0.65215  1.0000
