data_image0
_chemical_formula_structural       Li8H64C32Br8O8
_chemical_formula_sum              "Li8 H64 C32 Br8 O8"
_cell_length_a       7.6099
_cell_length_b       11.469
_cell_length_c       14.343
_cell_angle_alpha    90
_cell_angle_beta     90.0004
_cell_angle_gamma    90.0002

_space_group_name_H-M_alt    "P 1"
_space_group_IT_number       1

loop_
  _space_group_symop_operation_xyz
  'x, y, z'

loop_
  _atom_site_type_symbol
  _atom_site_label
  _atom_site_symmetry_multiplicity
  _atom_site_fract_x
  _atom_site_fract_y
  _atom_site_fract_z
  _atom_site_occupancy
  Li  Li1       1.0  0.58960  0.91365  0.93090  1.0000
  Li  Li2       1.0  0.08960  0.58635  0.56910  1.0000
  Li  Li3       1.0  0.41038  0.58635  0.43090  1.0000
  Li  Li4       1.0  0.91039  0.91366  0.06910  1.0000
  Li  Li5       1.0  0.41040  0.08635  0.06910  1.0000
  Li  Li6       1.0  0.91040  0.41365  0.43090  1.0000
  Li  Li7       1.0  0.58962  0.41365  0.56910  1.0000
  Li  Li8       1.0  0.08961  0.08634  0.93090  1.0000
  H   H1        1.0  0.38320  0.76193  0.74574  1.0000
  H   H2        1.0  0.88320  0.73807  0.75426  1.0000
  H   H3        1.0  0.61679  0.73807  0.24574  1.0000
  H   H4        1.0  0.11680  0.76193  0.25425  1.0000
  H   H5        1.0  0.61680  0.23807  0.25426  1.0000
  H   H6        1.0  0.11679  0.26193  0.24574  1.0000
  H   H7        1.0  0.38321  0.26193  0.75426  1.0000
  H   H8        1.0  0.88321  0.23807  0.74575  1.0000
  H   H9        1.0  0.26006  0.84750  0.82880  1.0000
  H   H10       1.0  0.76006  0.65250  0.67120  1.0000
  H   H11       1.0  0.73994  0.65250  0.32880  1.0000
  H   H12       1.0  0.23994  0.84750  0.17120  1.0000
  H   H13       1.0  0.73994  0.15250  0.17120  1.0000
  H   H14       1.0  0.23994  0.34750  0.32880  1.0000
  H   H15       1.0  0.26006  0.34750  0.67120  1.0000
  H   H16       1.0  0.76006  0.15250  0.82880  1.0000
  H   H17       1.0  0.16545  0.62058  0.79318  1.0000
  H   H18       1.0  0.66545  0.87942  0.70682  1.0000
  H   H19       1.0  0.83454  0.87942  0.29318  1.0000
  H   H20       1.0  0.33454  0.62057  0.20681  1.0000
  H   H21       1.0  0.83455  0.37942  0.20682  1.0000
  H   H22       1.0  0.33454  0.12058  0.29318  1.0000
  H   H23       1.0  0.16545  0.12058  0.70682  1.0000
  H   H24       1.0  0.66546  0.37943  0.79318  1.0000
  H   H25       1.0  0.16331  0.67460  0.90989  1.0000
  H   H26       1.0  0.66331  0.82539  0.59011  1.0000
  H   H27       1.0  0.83669  0.82539  0.40989  1.0000
  H   H28       1.0  0.33668  0.67460  0.09011  1.0000
  H   H29       1.0  0.83669  0.32540  0.09011  1.0000
  H   H30       1.0  0.33669  0.17461  0.40989  1.0000
  H   H31       1.0  0.16331  0.17460  0.59011  1.0000
  H   H32       1.0  0.66332  0.32540  0.90989  1.0000
  H   H33       1.0  0.37078  0.51657  0.93132  1.0000
  H   H34       1.0  0.87079  0.98343  0.56868  1.0000
  H   H35       1.0  0.62921  0.98343  0.43132  1.0000
  H   H36       1.0  0.12920  0.51658  0.06867  1.0000
  H   H37       1.0  0.62921  0.48343  0.06868  1.0000
  H   H38       1.0  0.12921  0.01657  0.43132  1.0000
  H   H39       1.0  0.37079  0.01657  0.56868  1.0000
  H   H40       1.0  0.87080  0.48343  0.93133  1.0000
  H   H41       1.0  0.43882  0.52371  0.81300  1.0000
  H   H42       1.0  0.93882  0.97629  0.68700  1.0000
  H   H43       1.0  0.56118  0.97629  0.31300  1.0000
  H   H44       1.0  0.06117  0.52372  0.18699  1.0000
  H   H45       1.0  0.56118  0.47629  0.18700  1.0000
  H   H46       1.0  0.06118  0.02371  0.31300  1.0000
  H   H47       1.0  0.43882  0.02371  0.68700  1.0000
  H   H48       1.0  0.93884  0.47629  0.81301  1.0000
  H   H49       1.0  0.58614  0.65878  0.97432  1.0000
  H   H50       1.0  0.08614  0.84122  0.52568  1.0000
  H   H51       1.0  0.41386  0.84122  0.47432  1.0000
  H   H52       1.0  0.91385  0.65879  0.02568  1.0000
  H   H53       1.0  0.41386  0.34122  0.02568  1.0000
  H   H54       1.0  0.91386  0.15878  0.47432  1.0000
  H   H55       1.0  0.58614  0.15878  0.52569  1.0000
  H   H56       1.0  0.08615  0.34121  0.97432  1.0000
  H   H57       1.0  0.67175  0.64349  0.85885  1.0000
  H   H58       1.0  0.17175  0.85652  0.64115  1.0000
  H   H59       1.0  0.32825  0.85652  0.35885  1.0000
  H   H60       1.0  0.82824  0.64349  0.14114  1.0000
  H   H61       1.0  0.32825  0.35652  0.14114  1.0000
  H   H62       1.0  0.82825  0.14348  0.35885  1.0000
  H   H63       1.0  0.67175  0.14348  0.64115  1.0000
  H   H64       1.0  0.17176  0.35651  0.85886  1.0000
  C   C1        1.0  0.33838  0.76832  0.81867  1.0000
  C   C2        1.0  0.83839  0.73168  0.68133  1.0000
  C   C3        1.0  0.66161  0.73168  0.31867  1.0000
  C   C4        1.0  0.16161  0.76832  0.18133  1.0000
  C   C5        1.0  0.66161  0.23168  0.18133  1.0000
  C   C6        1.0  0.16161  0.26832  0.31867  1.0000
  C   C7        1.0  0.33839  0.26832  0.68133  1.0000
  C   C8        1.0  0.83839  0.23169  0.81867  1.0000
  C   C9        1.0  0.24704  0.65687  0.84911  1.0000
  C   C10       1.0  0.74705  0.84313  0.65089  1.0000
  C   C11       1.0  0.75295  0.84313  0.34911  1.0000
  C   C12       1.0  0.25295  0.65687  0.15087  1.0000
  C   C13       1.0  0.75295  0.34313  0.15089  1.0000
  C   C14       1.0  0.25295  0.15687  0.34912  1.0000
  C   C15       1.0  0.24705  0.15687  0.65089  1.0000
  C   C16       1.0  0.74706  0.34313  0.84912  1.0000
  C   C17       1.0  0.40203  0.57627  0.87390  1.0000
  C   C18       1.0  0.90204  0.92372  0.62610  1.0000
  C   C19       1.0  0.59796  0.92372  0.37390  1.0000
  C   C20       1.0  0.09795  0.57628  0.12610  1.0000
  C   C21       1.0  0.59796  0.42372  0.12610  1.0000
  C   C22       1.0  0.09796  0.07628  0.37390  1.0000
  C   C23       1.0  0.40204  0.07627  0.62611  1.0000
  C   C24       1.0  0.90205  0.42372  0.87390  1.0000
  C   C25       1.0  0.55211  0.66027  0.89981  1.0000
  C   C26       1.0  0.05211  0.83973  0.60019  1.0000
  C   C27       1.0  0.44789  0.83973  0.39981  1.0000
  C   C28       1.0  0.94788  0.66028  0.10018  1.0000
  C   C29       1.0  0.44789  0.33973  0.10019  1.0000
  C   C30       1.0  0.94789  0.16027  0.39981  1.0000
  C   C31       1.0  0.55211  0.16027  0.60019  1.0000
  C   C32       1.0  0.05212  0.33972  0.89982  1.0000
  Br  Br1       1.0  0.91180  0.91106  0.89289  1.0000
  Br  Br2       1.0  0.41181  0.58894  0.60711  1.0000
  Br  Br3       1.0  0.08817  0.58895  0.39289  1.0000
  Br  Br4       1.0  0.58819  0.91106  0.10711  1.0000
  Br  Br5       1.0  0.08820  0.08895  0.10711  1.0000
  Br  Br6       1.0  0.58819  0.41106  0.39289  1.0000
  Br  Br7       1.0  0.91183  0.41105  0.60711  1.0000
  Br  Br8       1.0  0.41181  0.08894  0.89289  1.0000
  O   O1        1.0  0.48971  0.77698  0.87963  1.0000
  O   O2        1.0  0.98972  0.72302  0.62037  1.0000
  O   O3        1.0  0.51028  0.72302  0.37963  1.0000
  O   O4        1.0  0.01028  0.77699  0.12037  1.0000
  O   O5        1.0  0.51028  0.22302  0.12037  1.0000
  O   O6        1.0  0.01028  0.27698  0.37963  1.0000
  O   O7        1.0  0.48972  0.27698  0.62037  1.0000
  O   O8        1.0  0.98972  0.22301  0.87963  1.0000
