data_image0
_chemical_formula_structural       Dy2H26C36O28
_chemical_formula_sum              "Dy2 H26 C36 O28"
_cell_length_a       9.36707
_cell_length_b       10.4417
_cell_length_c       11.0925
_cell_angle_alpha    77.6251
_cell_angle_beta     70.5128
_cell_angle_gamma    92.5596

_space_group_name_H-M_alt    "P 1"
_space_group_IT_number       1

loop_
  _space_group_symop_operation_xyz
  'x, y, z'

loop_
  _atom_site_type_symbol
  _atom_site_label
  _atom_site_symmetry_multiplicity
  _atom_site_fract_x
  _atom_site_fract_y
  _atom_site_fract_z
  _atom_site_occupancy
  Dy  Dy1       1.0  0.76624  0.03039  0.49810  1.0000
  Dy  Dy2       1.0  0.23375  0.96960  0.50190  1.0000
  H   H1        1.0  0.01397  0.62566  0.32980  1.0000
  H   H2        1.0  0.98605  0.37435  0.67019  1.0000
  H   H3        1.0  0.94237  0.52978  0.16965  1.0000
  H   H4        1.0  0.05763  0.47023  0.83034  1.0000
  H   H5        1.0  0.67141  0.34011  0.16884  1.0000
  H   H6        1.0  0.32860  0.65988  0.83115  1.0000
  H   H7        1.0  0.35507  0.54036  0.03709  1.0000
  H   H8        1.0  0.64493  0.45963  0.96292  1.0000
  H   H9        1.0  0.28759  0.74439  0.30293  1.0000
  H   H10       1.0  0.71241  0.25560  0.69707  1.0000
  H   H11       1.0  0.73117  0.73264  0.42953  1.0000
  H   H12       1.0  0.26884  0.26734  0.57047  1.0000
  H   H13       1.0  0.68537  0.84280  0.33502  1.0000
  H   H14       1.0  0.31465  0.15719  0.66497  1.0000
  H   H15       1.0  0.68101  0.76480  0.71097  1.0000
  H   H16       1.0  0.31900  0.23521  0.28904  1.0000
  H   H17       1.0  0.79147  0.85047  0.75055  1.0000
  H   H18       1.0  0.20854  0.14955  0.24944  1.0000
  H   H19       1.0  0.93680  0.27590  0.30055  1.0000
  H   H20       1.0  0.06319  0.72411  0.69945  1.0000
  H   H21       1.0  0.04254  0.21802  0.38084  1.0000
  H   H22       1.0  0.95747  0.78199  0.61915  1.0000
  H   H23       1.0  0.52012  0.20927  0.50761  1.0000
  H   H24       1.0  0.47989  0.79073  0.49239  1.0000
  H   H25       1.0  0.65093  0.28784  0.53092  1.0000
  H   H26       1.0  0.34909  0.71215  0.46908  1.0000
  C   C1        1.0  0.07841  0.88734  0.31898  1.0000
  C   C2        1.0  0.92160  0.11267  0.68102  1.0000
  C   C3        1.0  0.03226  0.82876  0.22294  1.0000
  C   C4        1.0  0.96773  0.17125  0.77705  1.0000
  C   C5        1.0  0.00152  0.69147  0.24394  1.0000
  C   C6        1.0  0.99849  0.30855  0.75605  1.0000
  C   C7        1.0  0.95977  0.63714  0.15403  1.0000
  C   C8        1.0  0.04021  0.36287  0.84598  1.0000
  C   C9        1.0  0.94508  0.71833  0.04142  1.0000
  C   C10       1.0  0.05491  0.28169  0.95859  1.0000
  C   C11       1.0  0.96767  0.85636  0.02386  1.0000
  C   C12       1.0  0.03231  0.14366  0.97615  1.0000
  C   C13       1.0  0.01619  0.91094  0.11160  1.0000
  C   C14       1.0  0.98380  0.08909  0.88840  1.0000
  C   C15       1.0  0.92226  0.66138  0.93310  1.0000
  C   C16       1.0  0.07771  0.33863  0.06690  1.0000
  C   C17       1.0  0.06168  0.05391  0.08395  1.0000
  C   C18       1.0  0.93832  0.94612  0.91606  1.0000
  C   C19       1.0  0.60708  0.08072  0.28167  1.0000
  C   C20       1.0  0.39292  0.91927  0.71832  1.0000
  C   C21       1.0  0.60342  0.14728  0.14929  1.0000
  C   C22       1.0  0.39659  0.85269  0.85070  1.0000
  C   C23       1.0  0.63302  0.28505  0.10996  1.0000
  C   C24       1.0  0.36699  0.71493  0.89004  1.0000
  C   C25       1.0  0.55571  0.07610  0.07258  1.0000
  C   C26       1.0  0.44429  0.92388  0.92742  1.0000
  C   C27       1.0  0.53664  0.92970  0.11197  1.0000
  C   C28       1.0  0.46335  0.07029  0.88804  1.0000
  C   C29       1.0  0.46683  0.85494  0.04278  1.0000
  C   C30       1.0  0.53315  0.14504  0.95723  1.0000
  C   C31       1.0  0.43237  0.71601  0.08403  1.0000
  C   C32       1.0  0.56762  0.28398  0.91597  1.0000
  C   C33       1.0  0.38410  0.64749  0.00627  1.0000
  C   C34       1.0  0.61591  0.35250  0.99373  1.0000
  C   C35       1.0  0.43107  0.63172  0.21332  1.0000
  C   C36       1.0  0.56894  0.36826  0.78669  1.0000
  O   O1        1.0  0.98251  0.93731  0.40143  1.0000
  O   O2        1.0  0.01752  0.06270  0.59856  1.0000
  O   O3        1.0  0.21229  0.87665  0.32377  1.0000
  O   O4        1.0  0.78770  0.12335  0.67622  1.0000
  O   O5        1.0  0.04972  0.66114  0.84162  1.0000
  O   O6        1.0  0.95026  0.33888  0.15838  1.0000
  O   O7        1.0  0.79142  0.62253  0.94007  1.0000
  O   O8        1.0  0.20856  0.37750  0.05994  1.0000
  O   O9        1.0  0.13425  0.09446  0.14706  1.0000
  O   O10       1.0  0.86574  0.90556  0.85292  1.0000
  O   O11       1.0  0.73449  0.07040  0.29693  1.0000
  O   O12       1.0  0.26552  0.92960  0.70307  1.0000
  O   O13       1.0  0.47825  0.04790  0.37454  1.0000
  O   O14       1.0  0.52175  0.95208  0.62546  1.0000
  O   O15       1.0  0.58704  0.87071  0.19631  1.0000
  O   O16       1.0  0.41294  0.12928  0.80368  1.0000
  O   O17       1.0  0.33098  0.65855  0.32277  1.0000
  O   O18       1.0  0.66901  0.34144  0.67723  1.0000
  O   O19       1.0  0.49896  0.53544  0.22229  1.0000
  O   O20       1.0  0.50103  0.46455  0.77771  1.0000
  O   O21       1.0  0.68082  0.81227  0.42685  1.0000
  O   O22       1.0  0.31920  0.18771  0.57315  1.0000
  O   O23       1.0  0.76916  0.83281  0.67354  1.0000
  O   O24       1.0  0.23085  0.16720  0.32646  1.0000
  O   O25       1.0  0.93459  0.22415  0.39163  1.0000
  O   O26       1.0  0.06541  0.77585  0.60836  1.0000
  O   O27       1.0  0.63202  0.22116  0.48582  1.0000
  O   O28       1.0  0.36799  0.77883  0.51418  1.0000
