data_image0
_chemical_formula_structural       Tb2H26C36O28
_chemical_formula_sum              "Tb2 H26 C36 O28"
_cell_length_a       9.35318
_cell_length_b       10.4557
_cell_length_c       11.1037
_cell_angle_alpha    78.5312
_cell_angle_beta     70.7468
_cell_angle_gamma    92.7031

_space_group_name_H-M_alt    "P 1"
_space_group_IT_number       1

loop_
  _space_group_symop_operation_xyz
  'x, y, z'

loop_
  _atom_site_type_symbol
  _atom_site_label
  _atom_site_symmetry_multiplicity
  _atom_site_fract_x
  _atom_site_fract_y
  _atom_site_fract_z
  _atom_site_occupancy
  Tb  Tb1       1.0  0.76745  0.03021  0.49849  1.0000
  Tb  Tb2       1.0  0.23254  0.96980  0.50151  1.0000
  H   H1        1.0  0.01799  0.62795  0.32269  1.0000
  H   H2        1.0  0.98200  0.37206  0.67731  1.0000
  H   H3        1.0  0.94614  0.53208  0.16173  1.0000
  H   H4        1.0  0.05383  0.46793  0.83829  1.0000
  H   H5        1.0  0.66855  0.34066  0.17292  1.0000
  H   H6        1.0  0.33145  0.65932  0.82707  1.0000
  H   H7        1.0  0.35852  0.54207  0.03158  1.0000
  H   H8        1.0  0.64148  0.45791  0.96841  1.0000
  H   H9        1.0  0.28955  0.74467  0.29812  1.0000
  H   H10       1.0  0.71047  0.25532  0.70187  1.0000
  H   H11       1.0  0.73656  0.73696  0.42153  1.0000
  H   H12       1.0  0.26344  0.26304  0.57847  1.0000
  H   H13       1.0  0.68574  0.84571  0.33118  1.0000
  H   H14       1.0  0.31426  0.15429  0.66883  1.0000
  H   H15       1.0  0.68174  0.76528  0.70747  1.0000
  H   H16       1.0  0.31825  0.23473  0.29254  1.0000
  H   H17       1.0  0.79384  0.84931  0.74779  1.0000
  H   H18       1.0  0.20615  0.15070  0.25222  1.0000
  H   H19       1.0  0.93412  0.27657  0.30553  1.0000
  H   H20       1.0  0.06588  0.72343  0.69448  1.0000
  H   H21       1.0  0.04164  0.22062  0.38403  1.0000
  H   H22       1.0  0.95837  0.77938  0.61596  1.0000
  H   H23       1.0  0.51794  0.20782  0.51078  1.0000
  H   H24       1.0  0.48205  0.79218  0.48922  1.0000
  H   H25       1.0  0.64697  0.28618  0.53740  1.0000
  H   H26       1.0  0.35302  0.71382  0.46260  1.0000
  C   C1        1.0  0.08164  0.88775  0.31615  1.0000
  C   C2        1.0  0.91835  0.11226  0.68385  1.0000
  C   C3        1.0  0.03387  0.82985  0.21980  1.0000
  C   C4        1.0  0.96612  0.17016  0.78020  1.0000
  C   C5        1.0  0.00437  0.69321  0.23826  1.0000
  C   C6        1.0  0.99561  0.30680  0.76176  1.0000
  C   C7        1.0  0.96300  0.63899  0.14744  1.0000
  C   C8        1.0  0.03698  0.36103  0.85258  1.0000
  C   C9        1.0  0.94764  0.71969  0.03628  1.0000
  C   C10       1.0  0.05237  0.28032  0.96373  1.0000
  C   C11       1.0  0.96882  0.85703  0.02125  1.0000
  C   C12       1.0  0.03118  0.14298  0.97875  1.0000
  C   C13       1.0  0.01670  0.91150  0.11013  1.0000
  C   C14       1.0  0.98331  0.08852  0.88987  1.0000
  C   C15       1.0  0.92543  0.66221  0.92735  1.0000
  C   C16       1.0  0.07457  0.33781  0.07265  1.0000
  C   C17       1.0  0.06088  0.05384  0.08522  1.0000
  C   C18       1.0  0.93912  0.94618  0.91478  1.0000
  C   C19       1.0  0.60656  0.08249  0.28252  1.0000
  C   C20       1.0  0.39345  0.91750  0.71747  1.0000
  C   C21       1.0  0.60180  0.14814  0.15139  1.0000
  C   C22       1.0  0.39821  0.85184  0.84860  1.0000
  C   C23       1.0  0.63039  0.28517  0.11360  1.0000
  C   C24       1.0  0.36960  0.71481  0.88640  1.0000
  C   C25       1.0  0.55470  0.07646  0.07388  1.0000
  C   C26       1.0  0.44531  0.92351  0.92611  1.0000
  C   C27       1.0  0.53742  0.93096  0.11087  1.0000
  C   C28       1.0  0.46261  0.06902  0.88912  1.0000
  C   C29       1.0  0.46873  0.85581  0.04035  1.0000
  C   C30       1.0  0.53130  0.14417  0.95964  1.0000
  C   C31       1.0  0.43568  0.71760  0.07981  1.0000
  C   C32       1.0  0.56433  0.28237  0.92019  1.0000
  C   C33       1.0  0.38730  0.64858  0.00165  1.0000
  C   C34       1.0  0.61270  0.35141  0.99835  1.0000
  C   C35       1.0  0.43641  0.63479  0.20749  1.0000
  C   C36       1.0  0.56358  0.36519  0.79251  1.0000
  O   O1        1.0  0.98702  0.93700  0.40078  1.0000
  O   O2        1.0  0.01297  0.06301  0.59922  1.0000
  O   O3        1.0  0.21645  0.87712  0.31905  1.0000
  O   O4        1.0  0.78355  0.12290  0.68095  1.0000
  O   O5        1.0  0.05301  0.66242  0.83638  1.0000
  O   O6        1.0  0.94698  0.33759  0.16363  1.0000
  O   O7        1.0  0.79527  0.62136  0.93375  1.0000
  O   O8        1.0  0.20472  0.37865  0.06626  1.0000
  O   O9        1.0  0.13277  0.09434  0.14954  1.0000
  O   O10       1.0  0.86724  0.90567  0.85046  1.0000
  O   O11       1.0  0.58835  0.87281  0.19442  1.0000
  O   O12       1.0  0.41169  0.12717  0.80555  1.0000
  O   O13       1.0  0.33403  0.65967  0.31689  1.0000
  O   O14       1.0  0.66598  0.34034  0.68310  1.0000
  O   O15       1.0  0.50835  0.54137  0.21507  1.0000
  O   O16       1.0  0.49163  0.45861  0.78492  1.0000
  O   O17       1.0  0.68417  0.81529  0.42163  1.0000
  O   O18       1.0  0.31583  0.18471  0.57838  1.0000
  O   O19       1.0  0.77096  0.83150  0.67084  1.0000
  O   O20       1.0  0.22903  0.16850  0.32917  1.0000
  O   O21       1.0  0.93327  0.22573  0.39548  1.0000
  O   O22       1.0  0.06674  0.77428  0.60452  1.0000
  O   O23       1.0  0.62958  0.22048  0.48998  1.0000
  O   O24       1.0  0.37041  0.77951  0.51003  1.0000
  O   O25       1.0  0.73443  0.07168  0.29709  1.0000
  O   O26       1.0  0.26559  0.92832  0.70289  1.0000
  O   O27       1.0  0.47833  0.05019  0.37492  1.0000
  O   O28       1.0  0.52169  0.94980  0.62509  1.0000
