data_image0
_chemical_formula_structural       Er2H26C36O28
_chemical_formula_sum              "Er2 H26 C36 O28"
_cell_length_a       9.39976
_cell_length_b       10.4345
_cell_length_c       11.0888
_cell_angle_alpha    78.1438
_cell_angle_beta     70.3289
_cell_angle_gamma    92.0465

_space_group_name_H-M_alt    "P 1"
_space_group_IT_number       1

loop_
  _space_group_symop_operation_xyz
  'x, y, z'

loop_
  _atom_site_type_symbol
  _atom_site_label
  _atom_site_symmetry_multiplicity
  _atom_site_fract_x
  _atom_site_fract_y
  _atom_site_fract_z
  _atom_site_occupancy
  Er  Er1       1.0  0.76400  0.03073  0.49754  1.0000
  Er  Er2       1.0  0.23601  0.96928  0.50245  1.0000
  H   H1        1.0  0.01899  0.62770  0.32610  1.0000
  H   H2        1.0  0.98100  0.37230  0.67391  1.0000
  H   H3        1.0  0.94795  0.53129  0.16606  1.0000
  H   H4        1.0  0.05203  0.46870  0.83396  1.0000
  H   H5        1.0  0.67021  0.33839  0.17167  1.0000
  H   H6        1.0  0.32980  0.66160  0.82833  1.0000
  H   H7        1.0  0.35457  0.54251  0.03412  1.0000
  H   H8        1.0  0.64542  0.45749  0.96589  1.0000
  H   H9        1.0  0.28621  0.74693  0.30157  1.0000
  H   H10       1.0  0.71380  0.25307  0.69844  1.0000
  H   H11       1.0  0.73278  0.73160  0.42715  1.0000
  H   H12       1.0  0.26722  0.26840  0.57284  1.0000
  H   H13       1.0  0.68713  0.84201  0.33355  1.0000
  H   H14       1.0  0.31286  0.15798  0.66645  1.0000
  H   H15       1.0  0.68509  0.76926  0.70728  1.0000
  H   H16       1.0  0.31490  0.23074  0.29273  1.0000
  H   H17       1.0  0.79418  0.85576  0.74665  1.0000
  H   H18       1.0  0.20582  0.14425  0.25334  1.0000
  H   H19       1.0  0.93298  0.27189  0.30337  1.0000
  H   H20       1.0  0.06702  0.72811  0.69663  1.0000
  H   H21       1.0  0.03775  0.21306  0.38405  1.0000
  H   H22       1.0  0.96225  0.78694  0.61595  1.0000
  H   H23       1.0  0.51814  0.20843  0.51129  1.0000
  H   H24       1.0  0.48186  0.79156  0.48871  1.0000
  H   H25       1.0  0.64882  0.28545  0.53520  1.0000
  H   H26       1.0  0.35117  0.71455  0.46481  1.0000
  C   C1        1.0  0.07575  0.88881  0.31949  1.0000
  C   C2        1.0  0.92424  0.11119  0.68051  1.0000
  C   C3        1.0  0.03436  0.82998  0.22130  1.0000
  C   C4        1.0  0.96566  0.17003  0.77869  1.0000
  C   C5        1.0  0.00594  0.69305  0.24085  1.0000
  C   C6        1.0  0.99405  0.30695  0.75915  1.0000
  C   C7        1.0  0.96497  0.63844  0.15065  1.0000
  C   C8        1.0  0.03502  0.36156  0.84936  1.0000
  C   C9        1.0  0.94977  0.71906  0.03869  1.0000
  C   C10       1.0  0.05024  0.28094  0.96130  1.0000
  C   C11       1.0  0.97053  0.85674  0.02233  1.0000
  C   C12       1.0  0.02949  0.14326  0.97765  1.0000
  C   C13       1.0  0.01761  0.91170  0.11068  1.0000
  C   C14       1.0  0.98241  0.08831  0.88931  1.0000
  C   C15       1.0  0.92735  0.66135  0.93044  1.0000
  C   C16       1.0  0.07265  0.33863  0.06956  1.0000
  C   C17       1.0  0.06018  0.05445  0.08453  1.0000
  C   C18       1.0  0.93984  0.94555  0.91545  1.0000
  C   C19       1.0  0.60416  0.07981  0.28359  1.0000
  C   C20       1.0  0.39585  0.92018  0.71640  1.0000
  C   C21       1.0  0.60195  0.14627  0.15115  1.0000
  C   C22       1.0  0.39807  0.85374  0.84885  1.0000
  C   C23       1.0  0.63206  0.28352  0.11249  1.0000
  C   C24       1.0  0.36795  0.71649  0.88751  1.0000
  C   C25       1.0  0.55501  0.07554  0.07357  1.0000
  C   C26       1.0  0.44499  0.92445  0.92644  1.0000
  C   C27       1.0  0.53586  0.92952  0.11170  1.0000
  C   C28       1.0  0.46414  0.07048  0.88829  1.0000
  C   C29       1.0  0.46668  0.85552  0.04162  1.0000
  C   C30       1.0  0.53333  0.14447  0.95838  1.0000
  C   C31       1.0  0.43199  0.71717  0.08200  1.0000
  C   C32       1.0  0.56800  0.28282  0.91801  1.0000
  C   C33       1.0  0.38411  0.64909  0.00366  1.0000
  C   C34       1.0  0.61589  0.35091  0.99634  1.0000
  C   C35       1.0  0.43033  0.63337  0.21076  1.0000
  C   C36       1.0  0.56965  0.36662  0.78925  1.0000
  O   O1        1.0  0.97621  0.93815  0.40064  1.0000
  O   O2        1.0  0.02378  0.06186  0.59935  1.0000
  O   O3        1.0  0.20862  0.87945  0.32637  1.0000
  O   O4        1.0  0.79138  0.12056  0.67363  1.0000
  O   O5        1.0  0.05390  0.66303  0.83703  1.0000
  O   O6        1.0  0.94610  0.33695  0.16298  1.0000
  O   O7        1.0  0.79764  0.61897  0.93976  1.0000
  O   O8        1.0  0.20236  0.38102  0.06026  1.0000
  O   O9        1.0  0.13184  0.09611  0.14755  1.0000
  O   O10       1.0  0.86817  0.90388  0.85245  1.0000
  O   O11       1.0  0.73041  0.06876  0.30010  1.0000
  O   O12       1.0  0.26959  0.93125  0.69990  1.0000
  O   O13       1.0  0.47530  0.04786  0.37534  1.0000
  O   O14       1.0  0.52471  0.95216  0.62466  1.0000
  O   O15       1.0  0.58588  0.87016  0.19570  1.0000
  O   O16       1.0  0.41412  0.12983  0.80429  1.0000
  O   O17       1.0  0.32982  0.66097  0.32039  1.0000
  O   O18       1.0  0.67018  0.33903  0.67962  1.0000
  O   O19       1.0  0.49855  0.53691  0.21921  1.0000
  O   O20       1.0  0.50141  0.46309  0.78079  1.0000
  O   O21       1.0  0.68103  0.81082  0.42543  1.0000
  O   O22       1.0  0.31897  0.18917  0.57457  1.0000
  O   O23       1.0  0.77263  0.83653  0.66982  1.0000
  O   O24       1.0  0.22736  0.16347  0.33018  1.0000
  O   O25       1.0  0.93034  0.21961  0.39412  1.0000
  O   O26       1.0  0.06966  0.78040  0.60588  1.0000
  O   O27       1.0  0.62962  0.21879  0.48986  1.0000
  O   O28       1.0  0.37038  0.78122  0.51014  1.0000
