data_image0
_chemical_formula_structural       Sm2H26C36O28
_chemical_formula_sum              "Sm2 H26 C36 O28"
_cell_length_a       9.30204
_cell_length_b       10.4849
_cell_length_c       11.1122
_cell_angle_alpha    78.9334
_cell_angle_beta     71.2438
_cell_angle_gamma    93.5566

_space_group_name_H-M_alt    "P 1"
_space_group_IT_number       1

loop_
  _space_group_symop_operation_xyz
  'x, y, z'

loop_
  _atom_site_type_symbol
  _atom_site_label
  _atom_site_symmetry_multiplicity
  _atom_site_fract_x
  _atom_site_fract_y
  _atom_site_fract_z
  _atom_site_occupancy
  Sm  Sm1       1.0  0.76832  0.03027  0.50035  1.0000
  Sm  Sm2       1.0  0.23169  0.96973  0.49964  1.0000
  H   H1        1.0  0.01300  0.62726  0.31969  1.0000
  H   H2        1.0  0.98700  0.37273  0.68030  1.0000
  H   H3        1.0  0.93887  0.53313  0.15836  1.0000
  H   H4        1.0  0.06113  0.46687  0.84164  1.0000
  H   H5        1.0  0.67074  0.34302  0.17224  1.0000
  H   H6        1.0  0.32925  0.65698  0.82777  1.0000
  H   H7        1.0  0.36195  0.54129  0.02969  1.0000
  H   H8        1.0  0.63804  0.45872  0.97033  1.0000
  H   H9        1.0  0.29261  0.74077  0.29465  1.0000
  H   H10       1.0  0.70737  0.25923  0.70536  1.0000
  H   H11       1.0  0.74043  0.74262  0.41417  1.0000
  H   H12       1.0  0.25957  0.25738  0.58583  1.0000
  H   H13       1.0  0.68191  0.84875  0.32879  1.0000
  H   H14       1.0  0.31809  0.15125  0.67121  1.0000
  H   H15       1.0  0.67669  0.75785  0.70919  1.0000
  H   H16       1.0  0.32331  0.24215  0.29081  1.0000
  H   H17       1.0  0.79031  0.84138  0.75050  1.0000
  H   H18       1.0  0.20969  0.15862  0.24950  1.0000
  H   H19       1.0  0.93771  0.28170  0.30655  1.0000
  H   H20       1.0  0.06229  0.71829  0.69345  1.0000
  H   H21       1.0  0.04631  0.22773  0.38401  1.0000
  H   H22       1.0  0.95369  0.77227  0.61599  1.0000
  H   H23       1.0  0.51724  0.20998  0.51074  1.0000
  H   H24       1.0  0.48275  0.79003  0.48927  1.0000
  H   H25       1.0  0.64720  0.28948  0.53749  1.0000
  H   H26       1.0  0.35279  0.71051  0.46252  1.0000
  C   C1        1.0  0.08580  0.88608  0.31333  1.0000
  C   C2        1.0  0.91419  0.11392  0.68667  1.0000
  C   C3        1.0  0.03155  0.82935  0.21871  1.0000
  C   C4        1.0  0.96845  0.17065  0.78128  1.0000
  C   C5        1.0  0.99967  0.69313  0.23612  1.0000
  C   C6        1.0  0.00035  0.30687  0.76386  1.0000
  C   C7        1.0  0.95662  0.63970  0.14489  1.0000
  C   C8        1.0  0.04341  0.36030  0.85510  1.0000
  C   C9        1.0  0.94228  0.72045  0.03410  1.0000
  C   C10       1.0  0.05775  0.27955  0.96588  1.0000
  C   C11       1.0  0.96585  0.85732  0.02021  1.0000
  C   C12       1.0  0.03418  0.14268  0.97978  1.0000
  C   C13       1.0  0.01527  0.91109  0.10951  1.0000
  C   C14       1.0  0.98474  0.08891  0.89048  1.0000
  C   C15       1.0  0.91987  0.66352  0.92439  1.0000
  C   C16       1.0  0.08014  0.33647  0.07560  1.0000
  C   C17       1.0  0.06203  0.05293  0.08589  1.0000
  C   C18       1.0  0.93798  0.94706  0.91409  1.0000
  C   C19       1.0  0.61369  0.08550  0.27920  1.0000
  C   C20       1.0  0.38632  0.91449  0.72081  1.0000
  C   C21       1.0  0.60443  0.15019  0.15017  1.0000
  C   C22       1.0  0.39555  0.84981  0.84984  1.0000
  C   C23       1.0  0.63126  0.28700  0.11329  1.0000
  C   C24       1.0  0.36871  0.71299  0.88673  1.0000
  C   C25       1.0  0.55588  0.07745  0.07337  1.0000
  C   C26       1.0  0.44411  0.92256  0.92663  1.0000
  C   C27       1.0  0.54014  0.93246  0.10951  1.0000
  C   C28       1.0  0.45986  0.06754  0.89049  1.0000
  C   C29       1.0  0.47094  0.85600  0.03920  1.0000
  C   C30       1.0  0.52906  0.14400  0.96081  1.0000
  C   C31       1.0  0.43998  0.71803  0.07771  1.0000
  C   C32       1.0  0.56002  0.28198  0.92230  1.0000
  C   C33       1.0  0.38967  0.64781  0.00036  1.0000
  C   C34       1.0  0.61032  0.35221  0.99966  1.0000
  C   C35       1.0  0.44423  0.63671  0.20412  1.0000
  C   C36       1.0  0.55576  0.36330  0.79589  1.0000
  O   O1        1.0  0.99680  0.93582  0.40060  1.0000
  O   O2        1.0  0.00321  0.06417  0.59940  1.0000
  O   O3        1.0  0.22195  0.87333  0.31269  1.0000
  O   O4        1.0  0.77805  0.12668  0.68730  1.0000
  O   O5        1.0  0.04824  0.65959  0.83708  1.0000
  O   O6        1.0  0.95178  0.34041  0.16291  1.0000
  O   O7        1.0  0.78860  0.62790  0.92627  1.0000
  O   O8        1.0  0.21139  0.37209  0.07373  1.0000
  O   O9        1.0  0.13387  0.09184  0.15202  1.0000
  O   O10       1.0  0.86614  0.90815  0.84797  1.0000
  O   O11       1.0  0.74384  0.07695  0.29088  1.0000
  O   O12       1.0  0.25615  0.92305  0.70911  1.0000
  O   O13       1.0  0.48689  0.05108  0.37312  1.0000
  O   O14       1.0  0.51310  0.94891  0.62691  1.0000
  O   O15       1.0  0.59209  0.87571  0.19269  1.0000
  O   O16       1.0  0.40791  0.12429  0.80733  1.0000
  O   O17       1.0  0.33910  0.65765  0.31329  1.0000
  O   O18       1.0  0.66089  0.34235  0.68673  1.0000
  O   O19       1.0  0.52096  0.54746  0.21072  1.0000
  O   O20       1.0  0.47905  0.45254  0.78928  1.0000
  O   O21       1.0  0.68531  0.81862  0.41760  1.0000
  O   O22       1.0  0.31468  0.18137  0.58240  1.0000
  O   O23       1.0  0.76553  0.82544  0.67346  1.0000
  O   O24       1.0  0.23446  0.17456  0.32654  1.0000
  O   O25       1.0  0.93739  0.23288  0.39628  1.0000
  O   O26       1.0  0.06261  0.76712  0.60372  1.0000
  O   O27       1.0  0.62944  0.22404  0.48954  1.0000
  O   O28       1.0  0.37055  0.77596  0.51047  1.0000
