data_image0
_chemical_formula_structural       Ca4H16C32O16
_chemical_formula_sum              "Ca4 H16 C32 O16"
_cell_length_a       6.6233
_cell_length_b       9.62387
_cell_length_c       13.4824
_cell_angle_alpha    108.193
_cell_angle_beta     90.0004
_cell_angle_gamma    90

_space_group_name_H-M_alt    "P 1"
_space_group_IT_number       1

loop_
  _space_group_symop_operation_xyz
  'x, y, z'

loop_
  _atom_site_type_symbol
  _atom_site_label
  _atom_site_symmetry_multiplicity
  _atom_site_fract_x
  _atom_site_fract_y
  _atom_site_fract_z
  _atom_site_occupancy
  Ca  Ca1       1.0  0.96368  0.81808  0.51623  1.0000
  Ca  Ca2       1.0  0.46369  0.68192  0.48377  1.0000
  Ca  Ca3       1.0  0.03632  0.18192  0.48376  1.0000
  Ca  Ca4       1.0  0.53631  0.31808  0.51624  1.0000
  H   H1        1.0  0.11315  0.77638  0.14061  1.0000
  H   H2        1.0  0.61316  0.72362  0.85940  1.0000
  H   H3        1.0  0.88685  0.22363  0.85939  1.0000
  H   H4        1.0  0.38683  0.27637  0.14061  1.0000
  H   H5        1.0  0.31322  0.82310  0.99887  1.0000
  H   H6        1.0  0.81323  0.67690  0.00113  1.0000
  H   H7        1.0  0.68679  0.17692  0.00113  1.0000
  H   H8        1.0  0.18677  0.32309  0.99887  1.0000
  H   H9        1.0  0.78793  0.01001  0.21963  1.0000
  H   H10       1.0  0.28792  0.48999  0.78037  1.0000
  H   H11       1.0  0.21208  0.99000  0.78038  1.0000
  H   H12       1.0  0.71207  0.51001  0.21962  1.0000
  H   H13       1.0  0.65266  0.94235  0.03835  1.0000
  H   H14       1.0  0.15266  0.55764  0.96165  1.0000
  H   H15       1.0  0.34736  0.05765  0.96165  1.0000
  H   H16       1.0  0.84734  0.44236  0.03835  1.0000
  C   C1        1.0  0.20833  0.83584  0.34204  1.0000
  C   C2        1.0  0.70832  0.66416  0.65796  1.0000
  C   C3        1.0  0.79168  0.16416  0.65796  1.0000
  C   C4        1.0  0.29167  0.33583  0.34204  1.0000
  C   C5        1.0  0.34104  0.85957  0.25839  1.0000
  C   C6        1.0  0.84104  0.64043  0.74161  1.0000
  C   C7        1.0  0.65897  0.14043  0.74161  1.0000
  C   C8        1.0  0.15895  0.35957  0.25839  1.0000
  C   C9        1.0  0.26333  0.82478  0.15696  1.0000
  C   C10       1.0  0.76333  0.67521  0.84304  1.0000
  C   C11       1.0  0.73668  0.17522  0.84304  1.0000
  C   C12       1.0  0.23666  0.32478  0.15696  1.0000
  C   C13       1.0  0.53251  0.92488  0.28045  1.0000
  C   C14       1.0  0.03250  0.57512  0.71955  1.0000
  C   C15       1.0  0.46750  0.07512  0.71956  1.0000
  C   C16       1.0  0.96748  0.42488  0.28044  1.0000
  C   C17       1.0  0.37543  0.85246  0.07761  1.0000
  C   C18       1.0  0.87543  0.64754  0.92238  1.0000
  C   C19       1.0  0.62459  0.14755  0.92239  1.0000
  C   C20       1.0  0.12457  0.35245  0.07761  1.0000
  C   C21       1.0  0.64157  0.95619  0.20075  1.0000
  C   C22       1.0  0.14157  0.54381  0.79925  1.0000
  C   C23       1.0  0.35843  0.04382  0.79925  1.0000
  C   C24       1.0  0.85842  0.45619  0.20075  1.0000
  C   C25       1.0  0.63021  0.96531  0.38609  1.0000
  C   C26       1.0  0.13019  0.53468  0.61391  1.0000
  C   C27       1.0  0.36980  0.03470  0.61391  1.0000
  C   C28       1.0  0.86980  0.46531  0.38609  1.0000
  C   C29       1.0  0.56503  0.91878  0.09964  1.0000
  C   C30       1.0  0.06503  0.58121  0.90036  1.0000
  C   C31       1.0  0.43499  0.08123  0.90037  1.0000
  C   C32       1.0  0.93497  0.41879  0.09964  1.0000
  O   O1        1.0  0.07719  0.93320  0.38407  1.0000
  O   O2        1.0  0.57718  0.56680  0.61593  1.0000
  O   O3        1.0  0.92282  0.06680  0.61593  1.0000
  O   O4        1.0  0.42281  0.43320  0.38407  1.0000
  O   O5        1.0  0.22482  0.71957  0.36710  1.0000
  O   O6        1.0  0.72482  0.78043  0.63290  1.0000
  O   O7        1.0  0.77519  0.28042  0.63289  1.0000
  O   O8        1.0  0.27518  0.21958  0.36711  1.0000
  O   O9        1.0  0.64053  0.87120  0.43438  1.0000
  O   O10       1.0  0.14053  0.62880  0.56562  1.0000
  O   O11       1.0  0.35946  0.12881  0.56563  1.0000
  O   O12       1.0  0.85946  0.37120  0.43437  1.0000
  O   O13       1.0  0.70739  0.09295  0.41904  1.0000
  O   O14       1.0  0.20739  0.40705  0.58096  1.0000
  O   O15       1.0  0.29260  0.90705  0.58096  1.0000
  O   O16       1.0  0.79259  0.59295  0.41904  1.0000
