data_image0
_chemical_formula_structural       Zn2H34C38N4O12
_chemical_formula_sum              "Zn2 H34 C38 N4 O12"
_cell_length_a       8.48987
_cell_length_b       10.2306
_cell_length_c       11.0092
_cell_angle_alpha    65.2806
_cell_angle_beta     72.1964
_cell_angle_gamma    80.2256

_space_group_name_H-M_alt    "P 1"
_space_group_IT_number       1

loop_
  _space_group_symop_operation_xyz
  'x, y, z'

loop_
  _atom_site_type_symbol
  _atom_site_label
  _atom_site_symmetry_multiplicity
  _atom_site_fract_x
  _atom_site_fract_y
  _atom_site_fract_z
  _atom_site_occupancy
  Zn  Zn1       1.0  0.66894  0.48956  0.54798  1.0000
  Zn  Zn2       1.0  0.33106  0.51043  0.45202  1.0000
  H   H1        1.0  0.34062  0.88843  0.23156  1.0000
  H   H2        1.0  0.65937  0.11157  0.76844  1.0000
  H   H3        1.0  0.50537  0.77667  0.39923  1.0000
  H   H4        1.0  0.49462  0.22333  0.60076  1.0000
  H   H5        1.0  0.14168  0.39999  0.99981  1.0000
  H   H6        1.0  0.85832  0.60002  0.00019  1.0000
  H   H7        1.0  0.79041  0.01877  0.90157  1.0000
  H   H8        1.0  0.20958  0.98124  0.09843  1.0000
  H   H9        1.0  0.95182  0.89976  0.07254  1.0000
  H   H10       1.0  0.04817  0.10025  0.92745  1.0000
  H   H11       1.0  0.07478  0.34780  0.22189  1.0000
  H   H12       1.0  0.92522  0.65220  0.77812  1.0000
  H   H13       1.0  0.22657  0.32335  0.31102  1.0000
  H   H14       1.0  0.77343  0.67665  0.68898  1.0000
  H   H15       1.0  0.93321  0.20561  0.12312  1.0000
  H   H16       1.0  0.06680  0.79439  0.87688  1.0000
  H   H17       1.0  0.86633  0.33280  0.89215  1.0000
  H   H18       1.0  0.13367  0.66720  0.10785  1.0000
  H   H19       1.0  0.83565  0.06684  0.36835  1.0000
  H   H20       1.0  0.16436  0.93316  0.63165  1.0000
  H   H21       1.0  0.69168  0.18602  0.43154  1.0000
  H   H22       1.0  0.30833  0.81399  0.56846  1.0000
  H   H23       1.0  0.62292  0.02613  0.44269  1.0000
  H   H24       1.0  0.37708  0.97387  0.55731  1.0000
  H   H25       1.0  0.06208  0.10887  0.42185  1.0000
  H   H26       1.0  0.93793  0.89113  0.57816  1.0000
  H   H27       1.0  0.11101  0.08107  0.26508  1.0000
  H   H28       1.0  0.88900  0.91892  0.73493  1.0000
  H   H29       1.0  0.26914  0.06280  0.34723  1.0000
  H   H30       1.0  0.73088  0.93720  0.65277  1.0000
  H   H31       1.0  0.87652  0.36649  0.41980  1.0000
  H   H32       1.0  0.12347  0.63350  0.58021  1.0000
  H   H33       1.0  0.91060  0.27907  0.57731  1.0000
  H   H34       1.0  0.08940  0.72093  0.42269  1.0000
  C   C1        1.0  0.60322  0.33021  0.98508  1.0000
  C   C2        1.0  0.39679  0.66979  0.01491  1.0000
  C   C3        1.0  0.38511  0.42015  0.86251  1.0000
  C   C4        1.0  0.61489  0.57984  0.13749  1.0000
  C   C5        1.0  0.48197  0.28944  0.11313  1.0000
  C   C6        1.0  0.51804  0.71056  0.88687  1.0000
  C   C7        1.0  0.74110  0.82977  0.24764  1.0000
  C   C8        1.0  0.25889  0.17023  0.75236  1.0000
  C   C9        1.0  0.54998  0.96405  0.05101  1.0000
  C   C10       1.0  0.45001  0.03595  0.94899  1.0000
  C   C11       1.0  0.55940  0.39747  0.85366  1.0000
  C   C12       1.0  0.44060  0.60253  0.14635  1.0000
  C   C13       1.0  0.47468  0.89354  0.19356  1.0000
  C   C14       1.0  0.52530  0.10647  0.80643  1.0000
  C   C15       1.0  0.31312  0.48386  0.74100  1.0000
  C   C16       1.0  0.68688  0.51614  0.25901  1.0000
  C   C17       1.0  0.67483  0.19210  0.23907  1.0000
  C   C18       1.0  0.32518  0.80790  0.76093  1.0000
  C   C19       1.0  0.56799  0.82838  0.28974  1.0000
  C   C20       1.0  0.43200  0.17162  0.71026  1.0000
  C   C21       1.0  0.27367  0.38025  0.99265  1.0000
  C   C22       1.0  0.72633  0.61974  0.00735  1.0000
  C   C23       1.0  0.84412  0.76504  0.34981  1.0000
  C   C24       1.0  0.15587  0.23496  0.65019  1.0000
  C   C25       1.0  0.72458  0.96386  0.00980  1.0000
  C   C26       1.0  0.27541  0.03615  0.99020  1.0000
  C   C27       1.0  0.81739  0.89793  0.10606  1.0000
  C   C28       1.0  0.18260  0.10208  0.89393  1.0000
  C   C29       1.0  0.18670  0.28426  0.24691  1.0000
  C   C30       1.0  0.81330  0.71574  0.75310  1.0000
  C   C31       1.0  0.80563  0.23224  0.11631  1.0000
  C   C32       1.0  0.19438  0.76776  0.88368  1.0000
  C   C33       1.0  0.76989  0.30131  0.98960  1.0000
  C   C34       1.0  0.23012  0.69869  0.01040  1.0000
  C   C35       1.0  0.70876  0.11299  0.37781  1.0000
  C   C36       1.0  0.29125  0.88701  0.62219  1.0000
  C   C37       1.0  0.15609  0.12448  0.32356  1.0000
  C   C38       1.0  0.84392  0.87552  0.67644  1.0000
  N   N1        1.0  0.31549  0.31858  0.11363  1.0000
  N   N2        1.0  0.68451  0.68142  0.88638  1.0000
  N   N3        1.0  0.51609  0.22286  0.23651  1.0000
  N   N4        1.0  0.48392  0.77714  0.76349  1.0000
  O   O1        1.0  0.41416  0.50410  0.61876  1.0000
  O   O2        1.0  0.58584  0.49590  0.38124  1.0000
  O   O3        1.0  0.78223  0.67072  0.47108  1.0000
  O   O4        1.0  0.21776  0.32928  0.52892  1.0000
  O   O5        1.0  0.67763  0.43164  0.74366  1.0000
  O   O6        1.0  0.32237  0.56837  0.25634  1.0000
  O   O7        1.0  0.16066  0.51391  0.75784  1.0000
  O   O8        1.0  0.83935  0.48609  0.24217  1.0000
  O   O9        1.0  0.82489  0.32501  0.52048  1.0000
  O   O10       1.0  0.17510  0.67499  0.47952  1.0000
  O   O11       1.0  0.98802  0.80979  0.31415  1.0000
  O   O12       1.0  0.01197  0.19020  0.68585  1.0000
