data_image0
_chemical_formula_structural       Ag4H10C20N6O8
_chemical_formula_sum              "Ag4 H10 C20 N6 O8"
_cell_length_a       5.14968
_cell_length_b       10.3139
_cell_length_c       10.6194
_cell_angle_alpha    87.4171
_cell_angle_beta     79.5822
_cell_angle_gamma    75.5846

_space_group_name_H-M_alt    "P 1"
_space_group_IT_number       1

loop_
  _space_group_symop_operation_xyz
  'x, y, z'

loop_
  _atom_site_type_symbol
  _atom_site_label
  _atom_site_symmetry_multiplicity
  _atom_site_fract_x
  _atom_site_fract_y
  _atom_site_fract_z
  _atom_site_occupancy
  Ag  Ag1       1.0  0.84064  0.17746  0.93799  1.0000
  Ag  Ag2       1.0  0.01869  0.82256  0.43852  1.0000
  Ag  Ag3       1.0  0.08156  0.45896  0.09860  1.0000
  Ag  Ag4       1.0  0.54003  0.54089  0.59792  1.0000
  H   H1        1.0  0.15102  0.07104  0.74371  1.0000
  H   H2        1.0  0.22273  0.92874  0.24334  1.0000
  H   H3        1.0  0.46550  0.88077  0.62252  1.0000
  H   H4        1.0  0.34736  0.11910  0.12215  1.0000
  H   H5        1.0  0.00760  0.11265  0.47569  1.0000
  H   H6        1.0  0.12058  0.88746  0.97521  1.0000
  H   H7        1.0  0.72662  0.30870  0.59654  1.0000
  H   H8        1.0  0.03513  0.69121  0.09571  1.0000
  H   H9        1.0  0.60694  0.70529  0.87112  1.0000
  H   H10       1.0  0.31230  0.29463  0.37203  1.0000
  C   C1        1.0  0.57523  0.49844  0.93044  1.0000
  C   C2        1.0  0.07338  0.50170  0.43054  1.0000
  C   C3        1.0  0.84716  0.46051  0.84826  1.0000
  C   C4        1.0  0.30752  0.53966  0.34842  1.0000
  C   C5        1.0  0.00795  0.54045  0.77733  1.0000
  C   C6        1.0  0.54826  0.45962  0.27770  1.0000
  C   C7        1.0  0.96641  0.68761  0.76210  1.0000
  C   C8        1.0  0.65413  0.31243  0.26315  1.0000
  C   C9        1.0  0.21508  0.32978  0.74185  1.0000
  C   C10       1.0  0.54500  0.67024  0.24164  1.0000
  C   C11       1.0  0.40583  0.21025  0.68127  1.0000
  C   C12       1.0  0.61653  0.78969  0.18086  1.0000
  C   C13       1.0  0.34125  0.08516  0.68732  1.0000
  C   C14       1.0  0.42705  0.91471  0.18700  1.0000
  C   C15       1.0  0.51655  0.97740  0.61800  1.0000
  C   C16       1.0  0.49465  0.02246  0.11762  1.0000
  C   C17       1.0  0.81840  0.10605  0.53769  1.0000
  C   C18       1.0  0.92486  0.89395  0.03719  1.0000
  C   C19       1.0  0.65625  0.21688  0.60632  1.0000
  C   C20       1.0  0.87338  0.78310  0.10578  1.0000
  N   N1        1.0  0.98202  0.32900  0.82506  1.0000
  N   N2        1.0  0.31109  0.67116  0.32495  1.0000
  N   N3        1.0  0.23667  0.45664  0.71261  1.0000
  N   N4        1.0  0.69321  0.54336  0.21268  1.0000
  N   N5        1.0  0.75160  0.98721  0.54197  1.0000
  N   N6        1.0  0.73933  0.01273  0.04150  1.0000
  O   O1        1.0  0.47684  0.40261  0.98313  1.0000
  O   O2        1.0  0.87874  0.59758  0.48265  1.0000
  O   O3        1.0  0.45225  0.62138  0.94381  1.0000
  O   O4        1.0  0.07343  0.37876  0.44437  1.0000
  O   O5        1.0  0.73181  0.76378  0.81815  1.0000
  O   O6        1.0  0.49564  0.23617  0.31927  1.0000
  O   O7        1.0  0.14433  0.73708  0.69757  1.0000
  O   O8        1.0  0.88192  0.26298  0.19911  1.0000
