data_image0
_chemical_formula_structural       Sb2H6C12O6
_chemical_formula_sum              "Sb2 H6 C12 O6"
_cell_length_a       4.54546
_cell_length_b       8.23099
_cell_length_c       8.48698
_cell_angle_alpha    89.9998
_cell_angle_beta     90.0006
_cell_angle_gamma    106.075

_space_group_name_H-M_alt    "P 1"
_space_group_IT_number       1

loop_
  _space_group_symop_operation_xyz
  'x, y, z'

loop_
  _atom_site_type_symbol
  _atom_site_label
  _atom_site_symmetry_multiplicity
  _atom_site_fract_x
  _atom_site_fract_y
  _atom_site_fract_z
  _atom_site_occupancy
  Sb  Sb1       1.0  0.96661  0.99983  0.00004  1.0000
  Sb  Sb2       1.0  0.96661  0.99981  0.49995  1.0000
  H   H1        1.0  0.47802  0.57463  0.00528  1.0000
  H   H2        1.0  0.90363  0.42573  0.99470  1.0000
  H   H3        1.0  0.47802  0.57462  0.49473  1.0000
  H   H4        1.0  0.90363  0.42572  0.50530  1.0000
  H   H5        1.0  0.60836  0.46229  0.75001  1.0000
  H   H6        1.0  0.14619  0.53835  0.25000  1.0000
  C   C1        1.0  0.20252  0.81594  0.75000  1.0000
  C   C2        1.0  0.38720  0.18377  0.25000  1.0000
  C   C3        1.0  0.27200  0.75277  0.89417  1.0000
  C   C4        1.0  0.51971  0.24708  0.10580  1.0000
  C   C5        1.0  0.27200  0.75277  0.60583  1.0000
  C   C6        1.0  0.51971  0.24708  0.39420  1.0000
  C   C7        1.0  0.42472  0.62605  0.89403  1.0000
  C   C8        1.0  0.79911  0.37407  0.10594  1.0000
  C   C9        1.0  0.42472  0.62605  0.60598  1.0000
  C   C10       1.0  0.79911  0.37406  0.39405  1.0000
  C   C11       1.0  0.49785  0.56407  0.75000  1.0000
  C   C12       1.0  0.93415  0.43623  0.25000  1.0000
  O   O1        1.0  0.04679  0.93725  0.75000  1.0000
  O   O2        1.0  0.10987  0.06226  0.24999  1.0000
  O   O3        1.0  0.18707  0.81660  0.02966  1.0000
  O   O4        1.0  0.37068  0.18319  0.97034  1.0000
  O   O5        1.0  0.18707  0.81659  0.47034  1.0000
  O   O6        1.0  0.37067  0.18318  0.52965  1.0000
