data_image0
_chemical_formula_structural       Cu2H16C16O12
_chemical_formula_sum              "Cu2 H16 C16 O12"
_cell_length_a       6.44629
_cell_length_b       6.83091
_cell_length_c       10.2054
_cell_angle_alpha    94.4579
_cell_angle_beta     90.0001
_cell_angle_gamma    89.999

_space_group_name_H-M_alt    "P 1"
_space_group_IT_number       1

loop_
  _space_group_symop_operation_xyz
  'x, y, z'

loop_
  _atom_site_type_symbol
  _atom_site_label
  _atom_site_symmetry_multiplicity
  _atom_site_fract_x
  _atom_site_fract_y
  _atom_site_fract_z
  _atom_site_occupancy
  Cu  Cu1       1.0  0.24353  0.19501  0.48023  1.0000
  Cu  Cu2       1.0  0.74352  0.80498  0.51978  1.0000
  H   H1        1.0  0.78370  0.91766  0.13025  1.0000
  H   H2        1.0  0.28370  0.08232  0.86976  1.0000
  H   H3        1.0  0.74962  0.02114  0.90151  1.0000
  H   H4        1.0  0.24964  0.97884  0.09850  1.0000
  H   H5        1.0  0.63862  0.36228  0.86723  1.0000
  H   H6        1.0  0.13862  0.63774  0.13275  1.0000
  H   H7        1.0  0.56963  0.60000  0.05854  1.0000
  H   H8        1.0  0.06964  0.40004  0.94145  1.0000
  H   H9        1.0  0.28833  0.86077  0.35447  1.0000
  H   H10       1.0  0.78831  0.13919  0.64552  1.0000
  H   H11       1.0  0.06365  0.95554  0.33807  1.0000
  H   H12       1.0  0.56367  0.04447  0.66193  1.0000
  H   H13       1.0  0.00528  0.45316  0.37482  1.0000
  H   H14       1.0  0.50529  0.54683  0.62517  1.0000
  H   H15       1.0  0.24474  0.47922  0.34041  1.0000
  H   H16       1.0  0.74470  0.52079  0.65958  1.0000
  C   C1        1.0  0.63819  0.39342  0.20179  1.0000
  C   C2        1.0  0.13818  0.60659  0.79822  1.0000
  C   C3        1.0  0.69762  0.19952  0.22181  1.0000
  C   C4        1.0  0.19763  0.80045  0.77822  1.0000
  C   C5        1.0  0.73845  0.06720  0.11337  1.0000
  C   C6        1.0  0.23843  0.93279  0.88663  1.0000
  C   C7        1.0  0.71817  0.12467  0.98585  1.0000
  C   C8        1.0  0.21814  0.87535  0.01414  1.0000
  C   C9        1.0  0.65496  0.31580  0.96647  1.0000
  C   C10       1.0  0.15494  0.68422  0.03354  1.0000
  C   C11       1.0  0.61613  0.45017  0.07394  1.0000
  C   C12       1.0  0.11615  0.54988  0.92607  1.0000
  C   C13       1.0  0.61070  0.54675  0.31391  1.0000
  C   C14       1.0  0.11070  0.45326  0.68610  1.0000
  C   C15       1.0  0.69507  0.13233  0.35747  1.0000
  C   C16       1.0  0.19506  0.86763  0.64253  1.0000
  O   O1        1.0  0.77502  0.58956  0.38208  1.0000
  O   O2        1.0  0.27507  0.41050  0.61793  1.0000
  O   O3        1.0  0.43966  0.63481  0.33215  1.0000
  O   O4        1.0  0.93964  0.36520  0.66784  1.0000
  O   O5        1.0  0.58605  0.22277  0.44392  1.0000
  O   O6        1.0  0.08603  0.77721  0.55608  1.0000
  O   O7        1.0  0.80472  0.97699  0.37655  1.0000
  O   O8        1.0  0.30476  0.02300  0.62348  1.0000
  O   O9        1.0  0.21590  0.98293  0.33494  1.0000
  O   O10       1.0  0.71590  0.01702  0.66504  1.0000
  O   O11       1.0  0.13428  0.37804  0.35130  1.0000
  O   O12       1.0  0.63426  0.62197  0.64866  1.0000
