data_image0
_chemical_formula_structural       Zn4H24C42N12O10
_chemical_formula_sum              "Zn4 H24 C42 N12 O10"
_cell_length_a       7.5322
_cell_length_b       10.4901
_cell_length_c       14.7649
_cell_angle_alpha    90.1235
_cell_angle_beta     93.982
_cell_angle_gamma    108.953

_space_group_name_H-M_alt    "P 1"
_space_group_IT_number       1

loop_
  _space_group_symop_operation_xyz
  'x, y, z'

loop_
  _atom_site_type_symbol
  _atom_site_label
  _atom_site_symmetry_multiplicity
  _atom_site_fract_x
  _atom_site_fract_y
  _atom_site_fract_z
  _atom_site_occupancy
  Zn  Zn1       1.0  0.31525  0.31808  0.61879  1.0000
  Zn  Zn2       1.0  0.68475  0.68192  0.38121  1.0000
  Zn  Zn3       1.0  0.56123  0.23085  0.77688  1.0000
  Zn  Zn4       1.0  0.43877  0.76915  0.22312  1.0000
  H   H1        1.0  0.53032  0.45978  0.72738  1.0000
  H   H2        1.0  0.46969  0.54022  0.27262  1.0000
  H   H3        1.0  0.17475  0.57810  0.42306  1.0000
  H   H4        1.0  0.82525  0.42190  0.57695  1.0000
  H   H5        1.0  0.18592  0.99308  0.42427  1.0000
  H   H6        1.0  0.81408  0.00691  0.57573  1.0000
  H   H7        1.0  0.38810  0.83062  0.66156  1.0000
  H   H8        1.0  0.61190  0.16938  0.33844  1.0000
  H   H9        1.0  0.83267  0.52261  0.87004  1.0000
  H   H10       1.0  0.16734  0.47738  0.12996  1.0000
  H   H11       1.0  0.88949  0.63014  0.02759  1.0000
  H   H12       1.0  0.11050  0.36986  0.97241  1.0000
  H   H13       1.0  0.71149  0.50277  0.15284  1.0000
  H   H14       1.0  0.28850  0.49723  0.84716  1.0000
  H   H15       1.0  0.47533  0.28871  0.20380  1.0000
  H   H16       1.0  0.52466  0.71129  0.79620  1.0000
  H   H17       1.0  0.24615  0.06031  0.16400  1.0000
  H   H18       1.0  0.75385  0.93969  0.83600  1.0000
  H   H19       1.0  0.09606  0.87460  0.04741  1.0000
  H   H20       1.0  0.90394  0.12539  0.95259  1.0000
  H   H21       1.0  0.06665  0.79355  0.88456  1.0000
  H   H22       1.0  0.93335  0.20645  0.11544  1.0000
  H   H23       1.0  0.26811  0.94434  0.77264  1.0000
  H   H24       1.0  0.73189  0.05566  0.22736  1.0000
  C   C1        1.0  0.31200  0.57531  0.59766  1.0000
  C   C2        1.0  0.68800  0.42469  0.40234  1.0000
  C   C3        1.0  0.27996  0.69191  0.54805  1.0000
  C   C4        1.0  0.72004  0.30810  0.45195  1.0000
  C   C5        1.0  0.20536  0.67537  0.45763  1.0000
  C   C6        1.0  0.79465  0.32463  0.54238  1.0000
  C   C7        1.0  0.17217  0.78376  0.41281  1.0000
  C   C8        1.0  0.82783  0.21624  0.58719  1.0000
  C   C9        1.0  0.21258  0.90821  0.45804  1.0000
  C   C10       1.0  0.78742  0.09179  0.54196  1.0000
  C   C11       1.0  0.29227  0.92615  0.54754  1.0000
  C   C12       1.0  0.70773  0.07386  0.45246  1.0000
  C   C13       1.0  0.32515  0.81760  0.59212  1.0000
  C   C14       1.0  0.67485  0.18240  0.40788  1.0000
  C   C15       1.0  0.34280  0.06146  0.59419  1.0000
  C   C16       1.0  0.65721  0.93854  0.40581  1.0000
  C   C17       1.0  0.08777  0.76772  0.31874  1.0000
  C   C18       1.0  0.91223  0.23228  0.68126  1.0000
  C   C19       1.0  0.75670  0.47022  0.92669  1.0000
  C   C20       1.0  0.24330  0.52978  0.07331  1.0000
  C   C21       1.0  0.78780  0.52987  0.01429  1.0000
  C   C22       1.0  0.21220  0.47012  0.98571  1.0000
  C   C23       1.0  0.68959  0.45906  0.08420  1.0000
  C   C24       1.0  0.31040  0.54094  0.91580  1.0000
  C   C25       1.0  0.55922  0.32870  0.06598  1.0000
  C   C26       1.0  0.44078  0.67130  0.93402  1.0000
  C   C27       1.0  0.45132  0.24809  0.13409  1.0000
  C   C28       1.0  0.54867  0.75191  0.86590  1.0000
  C   C29       1.0  0.32697  0.12252  0.11220  1.0000
  C   C30       1.0  0.67302  0.87747  0.88780  1.0000
  C   C31       1.0  0.17630  0.93801  0.99583  1.0000
  C   C32       1.0  0.82370  0.06199  0.00417  1.0000
  C   C33       1.0  0.16194  0.89283  0.90672  1.0000
  C   C34       1.0  0.83806  0.10716  0.09328  1.0000
  C   C35       1.0  0.27334  0.97557  0.84344  1.0000
  C   C36       1.0  0.72666  0.02443  0.15656  1.0000
  C   C37       1.0  0.30176  0.06759  0.02137  1.0000
  C   C38       1.0  0.69824  0.93240  0.97863  1.0000
  C   C39       1.0  0.40793  0.14473  0.95293  1.0000
  C   C40       1.0  0.59207  0.85526  0.04707  1.0000
  C   C41       1.0  0.53769  0.27735  0.97542  1.0000
  C   C42       1.0  0.46231  0.72265  0.02458  1.0000
  N   N1        1.0  0.90360  0.74425  0.29718  1.0000
  N   N2        1.0  0.09641  0.25575  0.70282  1.0000
  N   N3        1.0  0.87844  0.73870  0.20558  1.0000
  N   N4        1.0  0.12157  0.26130  0.79442  1.0000
  N   N5        1.0  0.04099  0.75792  0.17228  1.0000
  N   N6        1.0  0.95901  0.24208  0.82773  1.0000
  N   N7        1.0  0.17576  0.77678  0.24159  1.0000
  N   N8        1.0  0.82424  0.22322  0.75841  1.0000
  N   N9        1.0  0.39330  0.09784  0.86607  1.0000
  N   N10       1.0  0.60670  0.90216  0.13393  1.0000
  N   N11       1.0  0.63561  0.34739  0.90786  1.0000
  N   N12       1.0  0.36439  0.65260  0.09214  1.0000
  O   O1        1.0  0.27355  0.46512  0.54929  1.0000
  O   O2        1.0  0.72644  0.53488  0.45071  1.0000
  O   O3        1.0  0.36981  0.58896  0.68029  1.0000
  O   O4        1.0  0.63019  0.41105  0.31971  1.0000
  O   O5        1.0  0.42597  0.07668  0.67319  1.0000
  O   O6        1.0  0.57403  0.92333  0.32681  1.0000
  O   O7        1.0  0.29595  0.15254  0.55037  1.0000
  O   O8        1.0  0.70405  0.84746  0.44964  1.0000
  O   O9        1.0  0.54390  0.37840  0.70089  1.0000
  O   O10       1.0  0.45611  0.62160  0.29911  1.0000
