data_image0
_chemical_formula_structural       Zn2H32C20N12Cl4
_chemical_formula_sum              "Zn2 H32 C20 N12 Cl4"
_cell_length_a       6.33233
_cell_length_b       7.24509
_cell_length_c       18.1201
_cell_angle_alpha    101.191
_cell_angle_beta     90.001
_cell_angle_gamma    115.884

_space_group_name_H-M_alt    "P 1"
_space_group_IT_number       1

loop_
  _space_group_symop_operation_xyz
  'x, y, z'

loop_
  _atom_site_type_symbol
  _atom_site_label
  _atom_site_symmetry_multiplicity
  _atom_site_fract_x
  _atom_site_fract_y
  _atom_site_fract_z
  _atom_site_occupancy
  Zn  Zn1       1.0  0.81990  0.00019  0.74989  1.0000
  Zn  Zn2       1.0  0.18009  0.99980  0.25011  1.0000
  H   H1        1.0  0.40162  0.27365  0.74073  1.0000
  H   H2        1.0  0.12780  0.72642  0.75912  1.0000
  H   H3        1.0  0.59837  0.72634  0.25927  1.0000
  H   H4        1.0  0.87218  0.27356  0.24088  1.0000
  H   H5        1.0  0.85590  0.88254  0.56798  1.0000
  H   H6        1.0  0.97271  0.11731  0.93190  1.0000
  H   H7        1.0  0.14408  0.11745  0.43201  1.0000
  H   H8        1.0  0.02733  0.88271  0.06809  1.0000
  H   H9        1.0  0.69016  0.12160  0.59636  1.0000
  H   H10       1.0  0.56790  0.87784  0.90349  1.0000
  H   H11       1.0  0.30984  0.87839  0.40363  1.0000
  H   H12       1.0  0.43210  0.12217  0.09651  1.0000
  H   H13       1.0  0.74277  0.35590  0.66294  1.0000
  H   H14       1.0  0.38625  0.64362  0.83690  1.0000
  H   H15       1.0  0.25723  0.64408  0.33706  1.0000
  H   H16       1.0  0.61375  0.35638  0.16310  1.0000
  H   H17       1.0  0.64828  0.49651  0.55585  1.0000
  H   H18       1.0  0.15149  0.50279  0.94393  1.0000
  H   H19       1.0  0.35172  0.50349  0.44416  1.0000
  H   H20       1.0  0.84853  0.49722  0.05607  1.0000
  H   H21       1.0  0.60421  0.26108  0.49184  1.0000
  H   H22       1.0  0.34214  0.73831  0.00794  1.0000
  H   H23       1.0  0.39578  0.73893  0.50816  1.0000
  H   H24       1.0  0.65787  0.26171  0.99206  1.0000
  H   H25       1.0  0.06808  0.58502  0.58536  1.0000
  H   H26       1.0  0.48355  0.41488  0.91464  1.0000
  H   H27       1.0  0.93192  0.41498  0.41464  1.0000
  H   H28       1.0  0.51647  0.58514  0.08537  1.0000
  H   H29       1.0  0.02486  0.33503  0.53623  1.0000
  H   H30       1.0  0.68947  0.66520  0.96381  1.0000
  H   H31       1.0  0.97513  0.66497  0.46377  1.0000
  H   H32       1.0  0.31054  0.33481  0.03619  1.0000
  C   C1        1.0  0.30025  0.18507  0.68681  1.0000
  C   C2        1.0  0.11485  0.81490  0.81306  1.0000
  C   C3        1.0  0.69973  0.81491  0.31319  1.0000
  C   C4        1.0  0.88515  0.18509  0.18694  1.0000
  C   C5        1.0  0.02884  0.98510  0.59773  1.0000
  C   C6        1.0  0.04315  0.01476  0.90216  1.0000
  C   C7        1.0  0.97115  0.01489  0.40227  1.0000
  C   C8        1.0  0.95686  0.98526  0.09783  1.0000
  C   C9        1.0  0.64536  0.25404  0.60892  1.0000
  C   C10       1.0  0.39069  0.74544  0.89092  1.0000
  C   C11       1.0  0.35464  0.74595  0.39108  1.0000
  C   C12       1.0  0.60931  0.25457  0.10907  1.0000
  C   C13       1.0  0.70387  0.37016  0.54462  1.0000
  C   C14       1.0  0.33321  0.62923  0.95519  1.0000
  C   C15       1.0  0.29614  0.62984  0.45538  1.0000
  C   C16       1.0  0.66680  0.37078  0.04481  1.0000
  C   C17       1.0  0.96785  0.45861  0.53607  1.0000
  C   C18       1.0  0.50918  0.54129  0.96391  1.0000
  C   C19       1.0  0.03216  0.54140  0.46394  1.0000
  C   C20       1.0  0.49083  0.45873  0.03609  1.0000
  N   N1        1.0  0.06563  0.07005  0.67361  1.0000
  N   N2        1.0  0.99536  0.93007  0.82627  1.0000
  N   N3        1.0  0.93436  0.92994  0.32639  1.0000
  N   N4        1.0  0.00464  0.06992  0.17373  1.0000
  N   N5        1.0  0.39628  0.16816  0.62161  1.0000
  N   N6        1.0  0.22753  0.83148  0.87828  1.0000
  N   N7        1.0  0.60372  0.83183  0.37839  1.0000
  N   N8        1.0  0.77247  0.16852  0.12172  1.0000
  N   N9        1.0  0.22635  0.04179  0.56404  1.0000
  N   N10       1.0  0.18379  0.95778  0.93586  1.0000
  N   N11       1.0  0.77364  0.95820  0.43596  1.0000
  N   N12       1.0  0.81624  0.04224  0.06413  1.0000
  Cl  Cl1       1.0  0.49914  0.72633  0.68445  1.0000
  Cl  Cl2       1.0  0.77266  0.27404  0.81533  1.0000
  Cl  Cl3       1.0  0.50085  0.27367  0.31555  1.0000
  Cl  Cl4       1.0  0.22734  0.72595  0.18467  1.0000
