data_image0
_chemical_formula_structural       Zn4H60C40N8Cl4O16
_chemical_formula_sum              "Zn4 H60 C40 N8 Cl4 O16"
_cell_length_a       6.18621
_cell_length_b       11.5301
_cell_length_c       17.6018
_cell_angle_alpha    89.9999
_cell_angle_beta     89.9999
_cell_angle_gamma    89.9996

_space_group_name_H-M_alt    "P 1"
_space_group_IT_number       1

loop_
  _space_group_symop_operation_xyz
  'x, y, z'

loop_
  _atom_site_type_symbol
  _atom_site_label
  _atom_site_symmetry_multiplicity
  _atom_site_fract_x
  _atom_site_fract_y
  _atom_site_fract_z
  _atom_site_occupancy
  Zn  Zn1       1.0  0.73399  0.42154  0.78675  1.0000
  Zn  Zn2       1.0  0.76600  0.57845  0.28676  1.0000
  Zn  Zn3       1.0  0.26601  0.92155  0.71325  1.0000
  Zn  Zn4       1.0  0.23399  0.07845  0.21325  1.0000
  H   H1        1.0  0.60441  0.30624  0.27221  1.0000
  H   H2        1.0  0.89559  0.69376  0.77221  1.0000
  H   H3        1.0  0.39558  0.80624  0.22779  1.0000
  H   H4        1.0  0.10441  0.19376  0.72779  1.0000
  H   H5        1.0  0.36933  0.31413  0.74191  1.0000
  H   H6        1.0  0.13066  0.68587  0.24191  1.0000
  H   H7        1.0  0.63066  0.81413  0.75809  1.0000
  H   H8        1.0  0.86933  0.18587  0.25809  1.0000
  H   H9        1.0  0.27898  0.42195  0.79109  1.0000
  H   H10       1.0  0.22101  0.57805  0.29109  1.0000
  H   H11       1.0  0.72102  0.92195  0.70891  1.0000
  H   H12       1.0  0.77898  0.07805  0.20890  1.0000
  H   H13       1.0  0.98185  0.46691  0.39629  1.0000
  H   H14       1.0  0.51815  0.53309  0.89628  1.0000
  H   H15       1.0  0.01815  0.96691  0.10372  1.0000
  H   H16       1.0  0.48185  0.03309  0.60372  1.0000
  H   H17       1.0  0.48870  0.58179  0.68424  1.0000
  H   H18       1.0  0.01129  0.41821  0.18424  1.0000
  H   H19       1.0  0.51131  0.08179  0.81576  1.0000
  H   H20       1.0  0.98870  0.91821  0.31576  1.0000
  H   H21       1.0  0.51587  0.65242  0.55128  1.0000
  H   H22       1.0  0.98413  0.34758  0.05128  1.0000
  H   H23       1.0  0.48413  0.15242  0.94873  1.0000
  H   H24       1.0  0.01587  0.84758  0.44873  1.0000
  H   H25       1.0  0.13568  0.48140  0.53503  1.0000
  H   H26       1.0  0.36432  0.51860  0.03502  1.0000
  H   H27       1.0  0.86432  0.98141  0.96497  1.0000
  H   H28       1.0  0.63567  0.01860  0.46497  1.0000
  H   H29       1.0  0.08877  0.42249  0.67111  1.0000
  H   H30       1.0  0.41123  0.57751  0.17111  1.0000
  H   H31       1.0  0.91124  0.92249  0.82888  1.0000
  H   H32       1.0  0.58876  0.07751  0.32888  1.0000
  H   H33       1.0  0.71001  0.66699  0.43520  1.0000
  H   H34       1.0  0.78999  0.33301  0.93520  1.0000
  H   H35       1.0  0.28999  0.16699  0.06480  1.0000
  H   H36       1.0  0.21001  0.83301  0.56480  1.0000
  H   H37       1.0  0.99534  0.65012  0.43697  1.0000
  H   H38       1.0  0.50466  0.34989  0.93697  1.0000
  H   H39       1.0  0.00465  0.15012  0.06303  1.0000
  H   H40       1.0  0.49534  0.84988  0.56303  1.0000
  H   H41       1.0  0.64156  0.41096  0.47551  1.0000
  H   H42       1.0  0.85845  0.58904  0.97551  1.0000
  H   H43       1.0  0.35844  0.91096  0.02449  1.0000
  H   H44       1.0  0.14156  0.08904  0.52449  1.0000
  H   H45       1.0  0.55011  0.25217  0.38953  1.0000
  H   H46       1.0  0.94990  0.74783  0.88953  1.0000
  H   H47       1.0  0.44989  0.75217  0.11047  1.0000
  H   H48       1.0  0.05011  0.24783  0.61047  1.0000
  H   H49       1.0  0.90516  0.15214  0.39578  1.0000
  H   H50       1.0  0.59484  0.84786  0.89578  1.0000
  H   H51       1.0  0.09485  0.65213  0.10422  1.0000
  H   H52       1.0  0.40516  0.34786  0.60422  1.0000
  H   H53       1.0  0.85517  0.23152  0.48036  1.0000
  H   H54       1.0  0.64483  0.76848  0.98036  1.0000
  H   H55       1.0  0.14484  0.73152  0.01964  1.0000
  H   H56       1.0  0.35517  0.26848  0.51964  1.0000
  H   H57       1.0  0.04066  0.28582  0.41079  1.0000
  H   H58       1.0  0.45934  0.71417  0.91079  1.0000
  H   H59       1.0  0.95933  0.78582  0.08920  1.0000
  H   H60       1.0  0.54067  0.21418  0.58921  1.0000
  C   C1        1.0  0.62973  0.56139  0.64962  1.0000
  C   C2        1.0  0.87027  0.43861  0.14962  1.0000
  C   C3        1.0  0.37028  0.06140  0.85038  1.0000
  C   C4        1.0  0.12973  0.93861  0.35038  1.0000
  C   C5        1.0  0.64723  0.60115  0.57530  1.0000
  C   C6        1.0  0.85278  0.39886  0.07530  1.0000
  C   C7        1.0  0.35278  0.10115  0.92470  1.0000
  C   C8        1.0  0.14722  0.89885  0.42470  1.0000
  C   C9        1.0  0.82849  0.57217  0.53171  1.0000
  C   C10       1.0  0.67151  0.42783  0.03170  1.0000
  C   C11       1.0  0.17151  0.07218  0.96830  1.0000
  C   C12       1.0  0.32849  0.92782  0.46829  1.0000
  C   C13       1.0  0.99142  0.50679  0.56664  1.0000
  C   C14       1.0  0.50858  0.49321  0.06663  1.0000
  C   C15       1.0  0.00858  0.00680  0.93336  1.0000
  C   C16       1.0  0.49142  0.99321  0.43336  1.0000
  C   C17       1.0  0.96412  0.47163  0.64153  1.0000
  C   C18       1.0  0.53588  0.52837  0.14153  1.0000
  C   C19       1.0  0.03589  0.97163  0.85847  1.0000
  C   C20       1.0  0.46412  0.02837  0.35847  1.0000
  C   C21       1.0  0.84138  0.60624  0.44900  1.0000
  C   C22       1.0  0.65862  0.39376  0.94900  1.0000
  C   C23       1.0  0.15862  0.10624  0.05100  1.0000
  C   C24       1.0  0.34138  0.89376  0.55100  1.0000
  C   C25       1.0  0.65714  0.42329  0.41379  1.0000
  C   C26       1.0  0.84286  0.57671  0.91378  1.0000
  C   C27       1.0  0.34285  0.92329  0.08622  1.0000
  C   C28       1.0  0.15715  0.07671  0.58622  1.0000
  C   C29       1.0  0.43816  0.46872  0.38549  1.0000
  C   C30       1.0  0.06183  0.53127  0.88548  1.0000
  C   C31       1.0  0.56183  0.96872  0.11451  1.0000
  C   C32       1.0  0.93817  0.03128  0.61452  1.0000
  C   C33       1.0  0.70062  0.30160  0.38027  1.0000
  C   C34       1.0  0.79939  0.69840  0.88026  1.0000
  C   C35       1.0  0.29938  0.80160  0.11973  1.0000
  C   C36       1.0  0.20062  0.19840  0.61974  1.0000
  C   C37       1.0  0.88723  0.23981  0.41926  1.0000
  C   C38       1.0  0.61277  0.76019  0.91926  1.0000
  C   C39       1.0  0.11277  0.73981  0.08074  1.0000
  C   C40       1.0  0.38723  0.26019  0.58074  1.0000
  N   N1        1.0  0.78472  0.49590  0.68186  1.0000
  N   N2        1.0  0.71528  0.50410  0.18186  1.0000
  N   N3        1.0  0.21529  0.99590  0.81814  1.0000
  N   N4        1.0  0.28471  0.00410  0.31814  1.0000
  N   N5        1.0  0.83085  0.50632  0.39547  1.0000
  N   N6        1.0  0.66916  0.49368  0.89547  1.0000
  N   N7        1.0  0.16914  0.00632  0.10453  1.0000
  N   N8        1.0  0.33085  0.99368  0.60453  1.0000
  Cl  Cl1       1.0  0.81969  0.22619  0.78428  1.0000
  Cl  Cl2       1.0  0.68030  0.77381  0.28428  1.0000
  Cl  Cl3       1.0  0.18031  0.72619  0.71572  1.0000
  Cl  Cl4       1.0  0.31969  0.27381  0.21572  1.0000
  O   O1        1.0  0.27065  0.43696  0.41979  1.0000
  O   O2        1.0  0.22936  0.56303  0.91979  1.0000
  O   O3        1.0  0.72934  0.93697  0.08021  1.0000
  O   O4        1.0  0.77065  0.06304  0.58022  1.0000
  O   O5        1.0  0.44341  0.53505  0.32698  1.0000
  O   O6        1.0  0.05658  0.46494  0.82697  1.0000
  O   O7        1.0  0.55658  0.03505  0.17303  1.0000
  O   O8        1.0  0.94342  0.96495  0.67303  1.0000
  O   O9        1.0  0.74479  0.30781  0.30021  1.0000
  O   O10       1.0  0.75521  0.69219  0.80021  1.0000
  O   O11       1.0  0.25520  0.80781  0.19979  1.0000
  O   O12       1.0  0.24479  0.19219  0.69979  1.0000
  O   O13       1.0  0.40795  0.39213  0.76172  1.0000
  O   O14       1.0  0.09205  0.60787  0.26172  1.0000
  O   O15       1.0  0.59206  0.89213  0.73828  1.0000
  O   O16       1.0  0.90794  0.10787  0.23828  1.0000
