data_image0
_chemical_formula_structural       Ag4H20C12N8O8
_chemical_formula_sum              "Ag4 H20 C12 N8 O8"
_cell_length_a       4.76551
_cell_length_b       9.02108
_cell_length_c       11.5245
_cell_angle_alpha    90
_cell_angle_beta     90
_cell_angle_gamma    90.0001

_space_group_name_H-M_alt    "P 1"
_space_group_IT_number       1

loop_
  _space_group_symop_operation_xyz
  'x, y, z'

loop_
  _atom_site_type_symbol
  _atom_site_label
  _atom_site_symmetry_multiplicity
  _atom_site_fract_x
  _atom_site_fract_y
  _atom_site_fract_z
  _atom_site_occupancy
  Ag  Ag1       1.0  0.52763  0.34732  0.54323  1.0000
  Ag  Ag2       1.0  0.52763  0.65268  0.45677  1.0000
  Ag  Ag3       1.0  0.47236  0.15268  0.04323  1.0000
  Ag  Ag4       1.0  0.47237  0.84732  0.95677  1.0000
  H   H1        1.0  0.09738  0.28271  0.70926  1.0000
  H   H2        1.0  0.09739  0.71729  0.29074  1.0000
  H   H3        1.0  0.90262  0.21729  0.20926  1.0000
  H   H4        1.0  0.90262  0.78271  0.79074  1.0000
  H   H5        1.0  0.26697  0.44483  0.86385  1.0000
  H   H6        1.0  0.26697  0.55516  0.13615  1.0000
  H   H7        1.0  0.73302  0.05516  0.36385  1.0000
  H   H8        1.0  0.73303  0.94484  0.63616  1.0000
  H   H9        1.0  0.92210  0.52040  0.88507  1.0000
  H   H10       1.0  0.92209  0.47960  0.11493  1.0000
  H   H11       1.0  0.07790  0.97959  0.38507  1.0000
  H   H12       1.0  0.07791  0.02041  0.61493  1.0000
  H   H13       1.0  0.69899  0.53558  0.70497  1.0000
  H   H14       1.0  0.69899  0.46442  0.29503  1.0000
  H   H15       1.0  0.30102  0.96442  0.20497  1.0000
  H   H16       1.0  0.30102  0.03558  0.79503  1.0000
  H   H17       1.0  0.97390  0.50262  0.62102  1.0000
  H   H18       1.0  0.97390  0.49738  0.37898  1.0000
  H   H19       1.0  0.02611  0.99738  0.12103  1.0000
  H   H20       1.0  0.02611  0.00262  0.87898  1.0000
  C   C1        1.0  0.93381  0.34978  0.75175  1.0000
  C   C2        1.0  0.93381  0.65022  0.24825  1.0000
  C   C3        1.0  0.06620  0.15022  0.25176  1.0000
  C   C4        1.0  0.06620  0.84978  0.74824  1.0000
  C   C5        1.0  0.04224  0.41964  0.86315  1.0000
  C   C6        1.0  0.04223  0.58036  0.13685  1.0000
  C   C7        1.0  0.95776  0.08036  0.36315  1.0000
  C   C8        1.0  0.95775  0.91964  0.63685  1.0000
  C   C9        1.0  0.71199  0.24330  0.80034  1.0000
  C   C10       1.0  0.71199  0.75670  0.19966  1.0000
  C   C11       1.0  0.28801  0.25670  0.30034  1.0000
  C   C12       1.0  0.28801  0.74330  0.69966  1.0000
  N   N1        1.0  0.81518  0.45150  0.66584  1.0000
  N   N2        1.0  0.81518  0.54850  0.33415  1.0000
  N   N3        1.0  0.18482  0.04850  0.16585  1.0000
  N   N4        1.0  0.18482  0.95150  0.83415  1.0000
  N   N5        1.0  0.74952  0.22351  0.91346  1.0000
  N   N6        1.0  0.74952  0.77649  0.08653  1.0000
  N   N7        1.0  0.25048  0.27649  0.41348  1.0000
  N   N8        1.0  0.25048  0.72351  0.58653  1.0000
  O   O1        1.0  0.52390  0.18307  0.73840  1.0000
  O   O2        1.0  0.52391  0.81694  0.26160  1.0000
  O   O3        1.0  0.47610  0.31693  0.23840  1.0000
  O   O4        1.0  0.47610  0.68307  0.76159  1.0000
  O   O5        1.0  0.99352  0.30741  0.95130  1.0000
  O   O6        1.0  0.99352  0.69259  0.04869  1.0000
  O   O7        1.0  0.00647  0.19258  0.45131  1.0000
  O   O8        1.0  0.00647  0.80742  0.54869  1.0000
