data_image0
_chemical_formula_structural       Ag4H24C40N12O12
_chemical_formula_sum              "Ag4 H24 C40 N12 O12"
_cell_length_a       7.48761
_cell_length_b       9.73809
_cell_length_c       13.8067
_cell_angle_alpha    90.0013
_cell_angle_beta     98.9749
_cell_angle_gamma    89.9994

_space_group_name_H-M_alt    "P 1"
_space_group_IT_number       1

loop_
  _space_group_symop_operation_xyz
  'x, y, z'

loop_
  _atom_site_type_symbol
  _atom_site_label
  _atom_site_symmetry_multiplicity
  _atom_site_fract_x
  _atom_site_fract_y
  _atom_site_fract_z
  _atom_site_occupancy
  Ag  Ag1       1.0  0.64584  0.44523  0.07839  1.0000
  Ag  Ag2       1.0  0.85416  0.94523  0.92161  1.0000
  Ag  Ag3       1.0  0.35416  0.55477  0.92161  1.0000
  Ag  Ag4       1.0  0.14584  0.05477  0.07839  1.0000
  H   H1        1.0  0.49263  0.62010  0.22848  1.0000
  H   H2        1.0  0.00738  0.12009  0.77152  1.0000
  H   H3        1.0  0.50738  0.37990  0.77152  1.0000
  H   H4        1.0  0.99263  0.87991  0.22848  1.0000
  H   H5        1.0  0.32367  0.35980  0.45244  1.0000
  H   H6        1.0  0.17632  0.85980  0.54756  1.0000
  H   H7        1.0  0.67632  0.64019  0.54755  1.0000
  H   H8        1.0  0.82367  0.14019  0.45244  1.0000
  H   H9        1.0  0.35380  0.10876  0.43414  1.0000
  H   H10       1.0  0.14619  0.60876  0.56587  1.0000
  H   H11       1.0  0.64620  0.89124  0.56586  1.0000
  H   H12       1.0  0.85381  0.39123  0.43413  1.0000
  H   H13       1.0  0.41428  0.90886  0.33141  1.0000
  H   H14       1.0  0.08571  0.40886  0.66859  1.0000
  H   H15       1.0  0.58572  0.09114  0.66858  1.0000
  H   H16       1.0  0.91428  0.59114  0.33142  1.0000
  H   H17       1.0  0.52342  0.94738  0.17175  1.0000
  H   H18       1.0  0.97658  0.44737  0.82825  1.0000
  H   H19       1.0  0.47658  0.05262  0.82825  1.0000
  H   H20       1.0  0.02342  0.55263  0.17175  1.0000
  H   H21       1.0  0.56754  0.18323  0.11240  1.0000
  H   H22       1.0  0.93246  0.68323  0.88760  1.0000
  H   H23       1.0  0.43247  0.81677  0.88760  1.0000
  H   H24       1.0  0.06753  0.31677  0.11240  1.0000
  C   C1        1.0  0.46834  0.51880  0.25682  1.0000
  C   C2        1.0  0.03166  0.01881  0.74318  1.0000
  C   C3        1.0  0.53166  0.48120  0.74318  1.0000
  C   C4        1.0  0.96833  0.98119  0.25682  1.0000
  C   C5        1.0  0.39773  0.50488  0.34606  1.0000
  C   C6        1.0  0.10227  0.00487  0.65394  1.0000
  C   C7        1.0  0.60227  0.49512  0.65394  1.0000
  C   C8        1.0  0.89773  0.99513  0.34606  1.0000
  C   C9        1.0  0.37643  0.37488  0.38392  1.0000
  C   C10       1.0  0.12357  0.87489  0.61608  1.0000
  C   C11       1.0  0.62356  0.62512  0.61608  1.0000
  C   C12       1.0  0.87643  0.12511  0.38392  1.0000
  C   C13       1.0  0.39906  0.12324  0.36353  1.0000
  C   C14       1.0  0.10095  0.62327  0.63646  1.0000
  C   C15       1.0  0.60095  0.87676  0.63647  1.0000
  C   C16       1.0  0.89905  0.37673  0.36354  1.0000
  C   C17       1.0  0.43314  0.01327  0.30655  1.0000
  C   C18       1.0  0.06686  0.51323  0.69346  1.0000
  C   C19       1.0  0.56687  0.98674  0.69345  1.0000
  C   C20       1.0  0.93315  0.48676  0.30654  1.0000
  C   C21       1.0  0.49135  0.03511  0.21486  1.0000
  C   C22       1.0  0.00864  0.53513  0.78514  1.0000
  C   C23       1.0  0.50864  0.96490  0.78514  1.0000
  C   C24       1.0  0.99136  0.46488  0.21486  1.0000
  C   C25       1.0  0.51684  0.16664  0.18152  1.0000
  C   C26       1.0  0.98316  0.66662  0.81849  1.0000
  C   C27       1.0  0.48316  0.83336  0.81848  1.0000
  C   C28       1.0  0.01684  0.33338  0.18151  1.0000
  C   C29       1.0  0.48162  0.28136  0.23830  1.0000
  C   C30       1.0  0.01838  0.78137  0.76170  1.0000
  C   C31       1.0  0.51838  0.71864  0.76170  1.0000
  C   C32       1.0  0.98162  0.21862  0.23830  1.0000
  C   C33       1.0  0.41935  0.25966  0.33028  1.0000
  C   C34       1.0  0.08064  0.75964  0.66973  1.0000
  C   C35       1.0  0.58064  0.74035  0.66972  1.0000
  C   C36       1.0  0.91936  0.24036  0.33027  1.0000
  C   C37       1.0  0.34497  0.62528  0.39253  1.0000
  C   C38       1.0  0.15504  0.12528  0.60747  1.0000
  C   C39       1.0  0.65504  0.37472  0.60747  1.0000
  C   C40       1.0  0.84496  0.87472  0.39253  1.0000
  N   N1        1.0  0.50892  0.41190  0.20542  1.0000
  N   N2        1.0  0.99108  0.91188  0.79459  1.0000
  N   N3        1.0  0.49109  0.58810  0.79458  1.0000
  N   N4        1.0  0.00892  0.08812  0.20541  1.0000
  N   N5        1.0  0.29885  0.72481  0.42896  1.0000
  N   N6        1.0  0.20114  0.22482  0.57104  1.0000
  N   N7        1.0  0.70114  0.27518  0.57105  1.0000
  N   N8        1.0  0.79886  0.77519  0.42896  1.0000
  N   N9        1.0  0.77546  0.26860  0.92186  1.0000
  N   N10       1.0  0.72455  0.76860  0.07814  1.0000
  N   N11       1.0  0.22455  0.73140  0.07814  1.0000
  N   N12       1.0  0.27545  0.23140  0.92186  1.0000
  O   O1        1.0  0.75473  0.39648  0.94088  1.0000
  O   O2        1.0  0.74528  0.89647  0.05913  1.0000
  O   O3        1.0  0.24527  0.60353  0.05912  1.0000
  O   O4        1.0  0.25473  0.10352  0.94087  1.0000
  O   O5        1.0  0.82254  0.23704  0.84128  1.0000
  O   O6        1.0  0.67746  0.73703  0.15872  1.0000
  O   O7        1.0  0.17747  0.76296  0.15872  1.0000
  O   O8        1.0  0.32254  0.26296  0.84128  1.0000
  O   O9        1.0  0.74876  0.17811  0.98388  1.0000
  O   O10       1.0  0.75124  0.67811  0.01613  1.0000
  O   O11       1.0  0.25124  0.82189  0.01612  1.0000
  O   O12       1.0  0.24877  0.32189  0.98387  1.0000
