data_image0
_chemical_formula_structural       Ag4H32C40N12O24
_chemical_formula_sum              "Ag4 H32 C40 N12 O24"
_cell_length_a       7.3873
_cell_length_b       9.18956
_cell_length_c       18.0518
_cell_angle_alpha    89.9998
_cell_angle_beta     90
_cell_angle_gamma    110.189

_space_group_name_H-M_alt    "P 1"
_space_group_IT_number       1

loop_
  _space_group_symop_operation_xyz
  'x, y, z'

loop_
  _atom_site_type_symbol
  _atom_site_label
  _atom_site_symmetry_multiplicity
  _atom_site_fract_x
  _atom_site_fract_y
  _atom_site_fract_z
  _atom_site_occupancy
  Ag  Ag1       1.0  0.54832  0.16834  0.82547  1.0000
  Ag  Ag2       1.0  0.45168  0.33166  0.32547  1.0000
  Ag  Ag3       1.0  0.45168  0.83166  0.17453  1.0000
  Ag  Ag4       1.0  0.54831  0.66834  0.67453  1.0000
  H   H1        1.0  0.61134  0.37113  0.95093  1.0000
  H   H2        1.0  0.38866  0.12887  0.45093  1.0000
  H   H3        1.0  0.38867  0.62887  0.04907  1.0000
  H   H4        1.0  0.61134  0.87113  0.54907  1.0000
  H   H5        1.0  0.53846  0.39158  0.08426  1.0000
  H   H6        1.0  0.46154  0.10841  0.58426  1.0000
  H   H7        1.0  0.46154  0.60842  0.91574  1.0000
  H   H8        1.0  0.53846  0.89158  0.41574  1.0000
  H   H9        1.0  0.30550  0.16019  0.14814  1.0000
  H   H10       1.0  0.69450  0.33981  0.64814  1.0000
  H   H11       1.0  0.69450  0.83981  0.85186  1.0000
  H   H12       1.0  0.30550  0.66019  0.35186  1.0000
  H   H13       1.0  0.07976  0.89618  0.14102  1.0000
  H   H14       1.0  0.92024  0.60382  0.64103  1.0000
  H   H15       1.0  0.92024  0.10382  0.85897  1.0000
  H   H16       1.0  0.07976  0.39618  0.35898  1.0000
  H   H17       1.0  0.98374  0.65056  0.93211  1.0000
  H   H18       1.0  0.01626  0.84944  0.43211  1.0000
  H   H19       1.0  0.01626  0.34944  0.06789  1.0000
  H   H20       1.0  0.98373  0.15056  0.56789  1.0000
  H   H21       1.0  0.99191  0.64903  0.18049  1.0000
  H   H22       1.0  0.00809  0.85097  0.68049  1.0000
  H   H23       1.0  0.00809  0.35097  0.81951  1.0000
  H   H24       1.0  0.99191  0.14903  0.31951  1.0000
  H   H25       1.0  0.76492  0.50386  0.16222  1.0000
  H   H26       1.0  0.23508  0.99615  0.66222  1.0000
  H   H27       1.0  0.23508  0.49615  0.83778  1.0000
  H   H28       1.0  0.76492  0.00385  0.33778  1.0000
  H   H29       1.0  0.78577  0.70514  0.16220  1.0000
  H   H30       1.0  0.21423  0.79487  0.66220  1.0000
  H   H31       1.0  0.21423  0.29487  0.83780  1.0000
  H   H32       1.0  0.78577  0.20514  0.33780  1.0000
  C   C1        1.0  0.50365  0.27468  0.97905  1.0000
  C   C2        1.0  0.49635  0.22532  0.47905  1.0000
  C   C3        1.0  0.49635  0.72532  0.02095  1.0000
  C   C4        1.0  0.50365  0.77468  0.52096  1.0000
  C   C5        1.0  0.46350  0.28492  0.05448  1.0000
  C   C6        1.0  0.53650  0.21508  0.55448  1.0000
  C   C7        1.0  0.53650  0.71508  0.94552  1.0000
  C   C8        1.0  0.46350  0.78492  0.44552  1.0000
  C   C9        1.0  0.33572  0.15767  0.08919  1.0000
  C   C10       1.0  0.66428  0.34233  0.58919  1.0000
  C   C11       1.0  0.66428  0.84233  0.91081  1.0000
  C   C12       1.0  0.33572  0.65766  0.41081  1.0000
  C   C13       1.0  0.11221  0.88834  0.08270  1.0000
  C   C14       1.0  0.88779  0.61166  0.58270  1.0000
  C   C15       1.0  0.88779  0.11166  0.91730  1.0000
  C   C16       1.0  0.11221  0.38834  0.41730  1.0000
  C   C17       1.0  0.02203  0.75453  0.04215  1.0000
  C   C18       1.0  0.97797  0.74548  0.54215  1.0000
  C   C19       1.0  0.97797  0.24548  0.95785  1.0000
  C   C20       1.0  0.02203  0.25452  0.45785  1.0000
  C   C21       1.0  0.05869  0.75302  0.96522  1.0000
  C   C22       1.0  0.94131  0.74699  0.46522  1.0000
  C   C23       1.0  0.94131  0.24698  0.03478  1.0000
  C   C24       1.0  0.05869  0.25301  0.53478  1.0000
  C   C25       1.0  0.18147  0.88342  0.93072  1.0000
  C   C26       1.0  0.81853  0.61658  0.43072  1.0000
  C   C27       1.0  0.81853  0.11658  0.06927  1.0000
  C   C28       1.0  0.18147  0.38342  0.56928  1.0000
  C   C29       1.0  0.28379  0.02293  0.97003  1.0000
  C   C30       1.0  0.71621  0.47707  0.47003  1.0000
  C   C31       1.0  0.71622  0.97707  0.02997  1.0000
  C   C32       1.0  0.28379  0.52293  0.52997  1.0000
  C   C33       1.0  0.24272  0.02134  0.04780  1.0000
  C   C34       1.0  0.75728  0.47866  0.54780  1.0000
  C   C35       1.0  0.75728  0.97866  0.95220  1.0000
  C   C36       1.0  0.24272  0.52134  0.45220  1.0000
  C   C37       1.0  0.85752  0.62181  0.14884  1.0000
  C   C38       1.0  0.14248  0.87819  0.64884  1.0000
  C   C39       1.0  0.14249  0.37819  0.85116  1.0000
  C   C40       1.0  0.85752  0.12181  0.35116  1.0000
  N   N1        1.0  0.41813  0.14910  0.93781  1.0000
  N   N2        1.0  0.58187  0.35090  0.43781  1.0000
  N   N3        1.0  0.58188  0.85090  0.06219  1.0000
  N   N4        1.0  0.41812  0.64910  0.56219  1.0000
  N   N5        1.0  0.19450  0.87300  0.85020  1.0000
  N   N6        1.0  0.80551  0.62700  0.35020  1.0000
  N   N7        1.0  0.80550  0.12700  0.14980  1.0000
  N   N8        1.0  0.19449  0.37300  0.64980  1.0000
  N   N9        1.0  0.69835  0.02345  0.70548  1.0000
  N   N10       1.0  0.30165  0.47655  0.20548  1.0000
  N   N11       1.0  0.30165  0.97656  0.29452  1.0000
  N   N12       1.0  0.69835  0.52344  0.79452  1.0000
  O   O1        1.0  0.89528  0.62221  0.07026  1.0000
  O   O2        1.0  0.10471  0.87779  0.57026  1.0000
  O   O3        1.0  0.10471  0.37779  0.92974  1.0000
  O   O4        1.0  0.89529  0.12220  0.42974  1.0000
  O   O5        1.0  0.20009  0.75123  0.82287  1.0000
  O   O6        1.0  0.79992  0.74876  0.32287  1.0000
  O   O7        1.0  0.79990  0.24876  0.17713  1.0000
  O   O8        1.0  0.20008  0.25123  0.67713  1.0000
  O   O9        1.0  0.19792  0.98956  0.81348  1.0000
  O   O10       1.0  0.80209  0.51044  0.31349  1.0000
  O   O11       1.0  0.80208  0.01044  0.18651  1.0000
  O   O12       1.0  0.19791  0.48957  0.68652  1.0000
  O   O13       1.0  0.75151  0.16279  0.73074  1.0000
  O   O14       1.0  0.24850  0.33721  0.23074  1.0000
  O   O15       1.0  0.24850  0.83721  0.26926  1.0000
  O   O16       1.0  0.75150  0.66279  0.76926  1.0000
  O   O17       1.0  0.56513  0.91812  0.73914  1.0000
  O   O18       1.0  0.43487  0.58188  0.23914  1.0000
  O   O19       1.0  0.43487  0.08189  0.26086  1.0000
  O   O20       1.0  0.56513  0.41812  0.76086  1.0000
  O   O21       1.0  0.77703  0.99386  0.64865  1.0000
  O   O22       1.0  0.22297  0.50614  0.14865  1.0000
  O   O23       1.0  0.22298  0.00615  0.35135  1.0000
  O   O24       1.0  0.77703  0.49385  0.85135  1.0000
