data_image0
_chemical_formula_structural       K4H36C28N8O24
_chemical_formula_sum              "K4 H36 C28 N8 O24"
_cell_length_a       6.88058
_cell_length_b       7.0731
_cell_length_c       21.2416
_cell_angle_alpha    90.0001
_cell_angle_beta     90.0001
_cell_angle_gamma    90

_space_group_name_H-M_alt    "P 1"
_space_group_IT_number       1

loop_
  _space_group_symop_operation_xyz
  'x, y, z'

loop_
  _atom_site_type_symbol
  _atom_site_label
  _atom_site_symmetry_multiplicity
  _atom_site_fract_x
  _atom_site_fract_y
  _atom_site_fract_z
  _atom_site_occupancy
  K   K1        1.0  0.75000  0.62283  0.71528  1.0000
  K   K2        1.0  0.25000  0.87717  0.21528  1.0000
  K   K3        1.0  0.75000  0.12283  0.78472  1.0000
  K   K4        1.0  0.25000  0.37717  0.28472  1.0000
  H   H1        1.0  0.75000  0.52815  0.51699  1.0000
  H   H2        1.0  0.25000  0.97185  0.01699  1.0000
  H   H3        1.0  0.75000  0.02814  0.98301  1.0000
  H   H4        1.0  0.25000  0.47185  0.48301  1.0000
  H   H5        1.0  0.75000  0.30599  0.60712  1.0000
  H   H6        1.0  0.25000  0.19401  0.10712  1.0000
  H   H7        1.0  0.75000  0.80599  0.89288  1.0000
  H   H8        1.0  0.25000  0.69401  0.39288  1.0000
  H   H9        1.0  0.75000  0.83548  0.47848  1.0000
  H   H10       1.0  0.25000  0.66452  0.97848  1.0000
  H   H11       1.0  0.75000  0.33548  0.02152  1.0000
  H   H12       1.0  0.25000  0.16452  0.52152  1.0000
  H   H13       1.0  0.75000  0.57386  0.40384  1.0000
  H   H14       1.0  0.25000  0.92614  0.90384  1.0000
  H   H15       1.0  0.75000  0.07386  0.09616  1.0000
  H   H16       1.0  0.25000  0.42614  0.59616  1.0000
  H   H17       1.0  0.75000  0.37507  0.35308  1.0000
  H   H18       1.0  0.25000  0.12493  0.85308  1.0000
  H   H19       1.0  0.75000  0.87507  0.14692  1.0000
  H   H20       1.0  0.25000  0.62493  0.64692  1.0000
  H   H21       1.0  0.09805  0.36762  0.75628  1.0000
  H   H22       1.0  0.90195  0.13238  0.25628  1.0000
  H   H23       1.0  0.40196  0.86762  0.74372  1.0000
  H   H24       1.0  0.59804  0.63238  0.24372  1.0000
  H   H25       1.0  0.90196  0.63238  0.24372  1.0000
  H   H26       1.0  0.09804  0.86762  0.74372  1.0000
  H   H27       1.0  0.59804  0.13238  0.25628  1.0000
  H   H28       1.0  0.40196  0.36762  0.75628  1.0000
  H   H29       1.0  0.08986  0.26779  0.69008  1.0000
  H   H30       1.0  0.91014  0.23221  0.19008  1.0000
  H   H31       1.0  0.41014  0.76779  0.80992  1.0000
  H   H32       1.0  0.58986  0.73221  0.30992  1.0000
  H   H33       1.0  0.91014  0.73221  0.30992  1.0000
  H   H34       1.0  0.08986  0.76779  0.80992  1.0000
  H   H35       1.0  0.58986  0.23221  0.19008  1.0000
  H   H36       1.0  0.41014  0.26779  0.69008  1.0000
  C   C1        1.0  0.75000  0.10639  0.43481  1.0000
  C   C2        1.0  0.25000  0.39362  0.93482  1.0000
  C   C3        1.0  0.75000  0.60638  0.06519  1.0000
  C   C4        1.0  0.25000  0.89361  0.56519  1.0000
  C   C5        1.0  0.75000  0.30805  0.44526  1.0000
  C   C6        1.0  0.25000  0.19195  0.94526  1.0000
  C   C7        1.0  0.75000  0.80805  0.05474  1.0000
  C   C8        1.0  0.25000  0.69195  0.55474  1.0000
  C   C9        1.0  0.75000  0.37619  0.50861  1.0000
  C   C10       1.0  0.25000  0.12381  0.00861  1.0000
  C   C11       1.0  0.75000  0.87618  0.99139  1.0000
  C   C12       1.0  0.25000  0.62382  0.49139  1.0000
  C   C13       1.0  0.75000  0.25454  0.55888  1.0000
  C   C14       1.0  0.25000  0.24546  0.05888  1.0000
  C   C15       1.0  0.75000  0.75454  0.94112  1.0000
  C   C16       1.0  0.25000  0.74546  0.44112  1.0000
  C   C17       1.0  0.75000  0.05775  0.54792  1.0000
  C   C18       1.0  0.25000  0.44225  0.04792  1.0000
  C   C19       1.0  0.75000  0.55775  0.95208  1.0000
  C   C20       1.0  0.25000  0.94226  0.45208  1.0000
  C   C21       1.0  0.75000  0.98702  0.48654  1.0000
  C   C22       1.0  0.25000  0.51298  0.98654  1.0000
  C   C23       1.0  0.75000  0.48702  0.01346  1.0000
  C   C24       1.0  0.25000  0.01298  0.51346  1.0000
  C   C25       1.0  0.75000  0.01894  0.37054  1.0000
  C   C26       1.0  0.25000  0.48106  0.87054  1.0000
  C   C27       1.0  0.75000  0.51894  0.12946  1.0000
  C   C28       1.0  0.25000  0.98106  0.62946  1.0000
  N   N1        1.0  0.75000  0.43090  0.39749  1.0000
  N   N2        1.0  0.25000  0.06910  0.89749  1.0000
  N   N3        1.0  0.75000  0.93090  0.10251  1.0000
  N   N4        1.0  0.25000  0.56910  0.60251  1.0000
  N   N5        1.0  0.75000  0.93071  0.59953  1.0000
  N   N6        1.0  0.25000  0.56929  0.09953  1.0000
  N   N7        1.0  0.75000  0.43070  0.90047  1.0000
  N   N8        1.0  0.25000  0.06930  0.40047  1.0000
  O   O1        1.0  0.75000  0.83892  0.36640  1.0000
  O   O2        1.0  0.25000  0.66108  0.86640  1.0000
  O   O3        1.0  0.75000  0.33891  0.13360  1.0000
  O   O4        1.0  0.25000  0.16108  0.63360  1.0000
  O   O5        1.0  0.75000  0.13010  0.32291  1.0000
  O   O6        1.0  0.25000  0.36990  0.82291  1.0000
  O   O7        1.0  0.75000  0.63010  0.17709  1.0000
  O   O8        1.0  0.25000  0.86990  0.67709  1.0000
  O   O9        1.0  0.75000  0.75508  0.58944  1.0000
  O   O10       1.0  0.25000  0.74492  0.08944  1.0000
  O   O11       1.0  0.75000  0.25507  0.91056  1.0000
  O   O12       1.0  0.25000  0.24493  0.41056  1.0000
  O   O13       1.0  0.75000  0.99606  0.65464  1.0000
  O   O14       1.0  0.25000  0.50394  0.15464  1.0000
  O   O15       1.0  0.75000  0.49606  0.84536  1.0000
  O   O16       1.0  0.25000  0.00394  0.34536  1.0000
  O   O17       1.0  0.01132  0.34281  0.72006  1.0000
  O   O18       1.0  0.98868  0.15720  0.22006  1.0000
  O   O19       1.0  0.48868  0.84281  0.77994  1.0000
  O   O20       1.0  0.51132  0.65720  0.27994  1.0000
  O   O21       1.0  0.98868  0.65719  0.27994  1.0000
  O   O22       1.0  0.01132  0.84281  0.77994  1.0000
  O   O23       1.0  0.51132  0.15719  0.22006  1.0000
  O   O24       1.0  0.48868  0.34281  0.72006  1.0000
