data_image0
_chemical_formula_structural       Li4H28C28N8O20
_chemical_formula_sum              "Li4 H28 C28 N8 O20"
_cell_length_a       4.86268
_cell_length_b       6.30591
_cell_length_c       28.4466
_cell_angle_alpha    89.9999
_cell_angle_beta     89.9998
_cell_angle_gamma    105.904

_space_group_name_H-M_alt    "P 1"
_space_group_IT_number       1

loop_
  _space_group_symop_operation_xyz
  'x, y, z'

loop_
  _atom_site_type_symbol
  _atom_site_label
  _atom_site_symmetry_multiplicity
  _atom_site_fract_x
  _atom_site_fract_y
  _atom_site_fract_z
  _atom_site_occupancy
  Li  Li1       1.0  0.11907  0.50903  0.75887  1.0000
  Li  Li2       1.0  0.88092  0.99097  0.25887  1.0000
  Li  Li3       1.0  0.88092  0.49097  0.24113  1.0000
  Li  Li4       1.0  0.11907  0.00902  0.74113  1.0000
  H   H1        1.0  0.51529  0.82601  0.51697  1.0000
  H   H2        1.0  0.48471  0.67399  0.01696  1.0000
  H   H3        1.0  0.48470  0.17399  0.48303  1.0000
  H   H4        1.0  0.51531  0.32603  0.98303  1.0000
  H   H5        1.0  0.78842  0.54857  0.51666  1.0000
  H   H6        1.0  0.21157  0.95142  0.01666  1.0000
  H   H7        1.0  0.21157  0.45143  0.48334  1.0000
  H   H8        1.0  0.78845  0.04859  0.98334  1.0000
  H   H9        1.0  0.68257  0.48183  0.66736  1.0000
  H   H10       1.0  0.31744  0.01817  0.16736  1.0000
  H   H11       1.0  0.31743  0.51817  0.33264  1.0000
  H   H12       1.0  0.68256  0.98182  0.83264  1.0000
  H   H13       1.0  0.22997  0.01103  0.62334  1.0000
  H   H14       1.0  0.77002  0.48897  0.12334  1.0000
  H   H15       1.0  0.77002  0.98897  0.37666  1.0000
  H   H16       1.0  0.22998  0.51103  0.87666  1.0000
  H   H17       1.0  0.24321  0.03049  0.56198  1.0000
  H   H18       1.0  0.75679  0.46950  0.06198  1.0000
  H   H19       1.0  0.75679  0.96951  0.43802  1.0000
  H   H20       1.0  0.24322  0.53050  0.93802  1.0000
  H   H21       1.0  0.69966  0.19088  0.74517  1.0000
  H   H22       1.0  0.30034  0.30911  0.24517  1.0000
  H   H23       1.0  0.30034  0.80911  0.25483  1.0000
  H   H24       1.0  0.69965  0.69088  0.75483  1.0000
  H   H25       1.0  0.85591  0.23076  0.69468  1.0000
  H   H26       1.0  0.14408  0.26924  0.19468  1.0000
  H   H27       1.0  0.14408  0.76924  0.30532  1.0000
  H   H28       1.0  0.85591  0.73076  0.80532  1.0000
  C   C1        1.0  0.50379  0.71783  0.63568  1.0000
  C   C2        1.0  0.49621  0.78217  0.13568  1.0000
  C   C3        1.0  0.49621  0.28217  0.36432  1.0000
  C   C4        1.0  0.50379  0.21783  0.86432  1.0000
  C   C5        1.0  0.45106  0.81858  0.59244  1.0000
  C   C6        1.0  0.54894  0.68142  0.09244  1.0000
  C   C7        1.0  0.54894  0.18143  0.40756  1.0000
  C   C8        1.0  0.45107  0.31858  0.90756  1.0000
  C   C9        1.0  0.55713  0.75133  0.54982  1.0000
  C   C10       1.0  0.44288  0.74868  0.04982  1.0000
  C   C11       1.0  0.44287  0.24868  0.45018  1.0000
  C   C12       1.0  0.55714  0.25133  0.95018  1.0000
  C   C13       1.0  0.70600  0.59542  0.54943  1.0000
  C   C14       1.0  0.29400  0.90458  0.04943  1.0000
  C   C15       1.0  0.29400  0.40458  0.45057  1.0000
  C   C16       1.0  0.70602  0.09543  0.95057  1.0000
  C   C17       1.0  0.75278  0.49653  0.59211  1.0000
  C   C18       1.0  0.24722  0.00347  0.09211  1.0000
  C   C19       1.0  0.24722  0.50348  0.40789  1.0000
  C   C20       1.0  0.75279  0.99653  0.90789  1.0000
  C   C21       1.0  0.65161  0.55904  0.63441  1.0000
  C   C22       1.0  0.34839  0.94097  0.13441  1.0000
  C   C23       1.0  0.34839  0.44097  0.36560  1.0000
  C   C24       1.0  0.65161  0.05903  0.86560  1.0000
  C   C25       1.0  0.39391  0.77021  0.68213  1.0000
  C   C26       1.0  0.60609  0.72978  0.18213  1.0000
  C   C27       1.0  0.60608  0.22978  0.31787  1.0000
  C   C28       1.0  0.39391  0.27021  0.81787  1.0000
  N   N1        1.0  0.30597  0.97023  0.59196  1.0000
  N   N2        1.0  0.69403  0.52977  0.09196  1.0000
  N   N3        1.0  0.69403  0.02977  0.40804  1.0000
  N   N4        1.0  0.30598  0.47023  0.90804  1.0000
  N   N5        1.0  0.89771  0.32956  0.59191  1.0000
  N   N6        1.0  0.10229  0.17044  0.09191  1.0000
  N   N7        1.0  0.10229  0.67044  0.40809  1.0000
  N   N8        1.0  0.89771  0.82956  0.90809  1.0000
  O   O1        1.0  0.42423  0.65300  0.71761  1.0000
  O   O2        1.0  0.57576  0.84700  0.21761  1.0000
  O   O3        1.0  0.57576  0.34700  0.28239  1.0000
  O   O4        1.0  0.42423  0.15299  0.78239  1.0000
  O   O5        1.0  0.27090  0.92394  0.68435  1.0000
  O   O6        1.0  0.72909  0.57606  0.18435  1.0000
  O   O7        1.0  0.72908  0.07606  0.31565  1.0000
  O   O8        1.0  0.27091  0.42394  0.81565  1.0000
  O   O9        1.0  0.88886  0.22500  0.72871  1.0000
  O   O10       1.0  0.11114  0.27500  0.22871  1.0000
  O   O11       1.0  0.11113  0.77500  0.27129  1.0000
  O   O12       1.0  0.88885  0.72500  0.77129  1.0000
  O   O13       1.0  0.94477  0.24432  0.63014  1.0000
  O   O14       1.0  0.05523  0.25568  0.13014  1.0000
  O   O15       1.0  0.05522  0.75568  0.36986  1.0000
  O   O16       1.0  0.94478  0.74432  0.86986  1.0000
  O   O17       1.0  0.97602  0.26872  0.55321  1.0000
  O   O18       1.0  0.02397  0.23128  0.05321  1.0000
  O   O19       1.0  0.02398  0.73128  0.44679  1.0000
  O   O20       1.0  0.97603  0.76872  0.94679  1.0000
