data_image0
_chemical_formula_structural       Ag4H32C60S4N8O16F12
_chemical_formula_sum              "Ag4 H32 C60 S4 N8 O16 F12"
_cell_length_a       11.0281
_cell_length_b       12.3301
_cell_length_c       12.3443
_cell_angle_alpha    89.9999
_cell_angle_beta     89.9997
_cell_angle_gamma    93.4278

_space_group_name_H-M_alt    "P 1"
_space_group_IT_number       1

loop_
  _space_group_symop_operation_xyz
  'x, y, z'

loop_
  _atom_site_type_symbol
  _atom_site_label
  _atom_site_symmetry_multiplicity
  _atom_site_fract_x
  _atom_site_fract_y
  _atom_site_fract_z
  _atom_site_occupancy
  Ag  Ag1       1.0  0.87623  0.87130  0.13967  1.0000
  Ag  Ag2       1.0  0.62376  0.62870  0.63967  1.0000
  Ag  Ag3       1.0  0.12376  0.12870  0.86034  1.0000
  Ag  Ag4       1.0  0.37624  0.37130  0.36033  1.0000
  H   H1        1.0  0.09283  0.52612  0.21083  1.0000
  H   H2        1.0  0.40716  0.97388  0.71083  1.0000
  H   H3        1.0  0.90717  0.47388  0.78917  1.0000
  H   H4        1.0  0.59283  0.02613  0.28917  1.0000
  H   H5        1.0  0.14490  0.33270  0.20298  1.0000
  H   H6        1.0  0.35510  0.16730  0.70297  1.0000
  H   H7        1.0  0.85510  0.66730  0.79703  1.0000
  H   H8        1.0  0.64490  0.83270  0.29702  1.0000
  H   H9        1.0  0.00525  0.19643  0.10913  1.0000
  H   H10       1.0  0.49475  0.30357  0.60913  1.0000
  H   H11       1.0  0.99475  0.80357  0.89087  1.0000
  H   H12       1.0  0.50525  0.69644  0.39087  1.0000
  H   H13       1.0  0.81638  0.25172  0.02397  1.0000
  H   H14       1.0  0.68363  0.24828  0.52398  1.0000
  H   H15       1.0  0.18362  0.74827  0.97603  1.0000
  H   H16       1.0  0.31638  0.75172  0.47602  1.0000
  H   H17       1.0  0.39913  0.35035  0.84224  1.0000
  H   H18       1.0  0.10088  0.14965  0.34224  1.0000
  H   H19       1.0  0.60087  0.64965  0.15775  1.0000
  H   H20       1.0  0.89913  0.85035  0.65776  1.0000
  H   H21       1.0  0.32098  0.24170  0.00247  1.0000
  H   H22       1.0  0.17902  0.25830  0.50247  1.0000
  H   H23       1.0  0.67901  0.75830  0.99753  1.0000
  H   H24       1.0  0.82098  0.74170  0.49753  1.0000
  H   H25       1.0  0.44685  0.23379  0.16761  1.0000
  H   H26       1.0  0.05315  0.26621  0.66761  1.0000
  H   H27       1.0  0.55315  0.76621  0.83239  1.0000
  H   H28       1.0  0.94685  0.73379  0.33239  1.0000
  H   H29       1.0  0.64837  0.33587  0.17867  1.0000
  H   H30       1.0  0.85163  0.16413  0.67867  1.0000
  H   H31       1.0  0.35163  0.66413  0.82133  1.0000
  H   H32       1.0  0.14837  0.83587  0.32133  1.0000
  C   C1        1.0  0.67437  0.05612  0.92293  1.0000
  C   C2        1.0  0.82563  0.44388  0.42293  1.0000
  C   C3        1.0  0.32563  0.94388  0.07707  1.0000
  C   C4        1.0  0.17437  0.55612  0.57707  1.0000
  C   C5        1.0  0.89478  0.60751  0.12752  1.0000
  C   C6        1.0  0.60521  0.89249  0.62752  1.0000
  C   C7        1.0  0.10522  0.39248  0.87248  1.0000
  C   C8        1.0  0.39479  0.10752  0.37248  1.0000
  C   C9        1.0  0.92421  0.49764  0.12294  1.0000
  C   C10       1.0  0.57579  0.00236  0.62294  1.0000
  C   C11       1.0  0.07579  0.50235  0.87706  1.0000
  C   C12       1.0  0.42421  0.99765  0.37706  1.0000
  C   C13       1.0  0.03246  0.46549  0.17084  1.0000
  C   C14       1.0  0.46753  0.03451  0.67084  1.0000
  C   C15       1.0  0.96754  0.53451  0.82916  1.0000
  C   C16       1.0  0.53247  0.96549  0.32916  1.0000
  C   C17       1.0  0.06067  0.35733  0.16691  1.0000
  C   C18       1.0  0.43932  0.14268  0.66691  1.0000
  C   C19       1.0  0.93932  0.64267  0.83309  1.0000
  C   C20       1.0  0.56068  0.85733  0.33309  1.0000
  C   C21       1.0  0.98183  0.28072  0.11522  1.0000
  C   C22       1.0  0.51817  0.21928  0.61522  1.0000
  C   C23       1.0  0.01817  0.71928  0.88478  1.0000
  C   C24       1.0  0.48183  0.78072  0.38478  1.0000
  C   C25       1.0  0.87510  0.31149  0.06666  1.0000
  C   C26       1.0  0.62490  0.18851  0.56666  1.0000
  C   C27       1.0  0.12490  0.68851  0.93334  1.0000
  C   C28       1.0  0.37510  0.81149  0.43334  1.0000
  C   C29       1.0  0.84611  0.41973  0.07035  1.0000
  C   C30       1.0  0.65389  0.08027  0.57035  1.0000
  C   C31       1.0  0.15389  0.58027  0.92965  1.0000
  C   C32       1.0  0.34611  0.91974  0.42965  1.0000
  C   C33       1.0  0.61467  0.45538  0.82800  1.0000
  C   C34       1.0  0.88534  0.04462  0.32799  1.0000
  C   C35       1.0  0.38534  0.54462  0.17200  1.0000
  C   C36       1.0  0.11466  0.95538  0.67200  1.0000
  C   C37       1.0  0.56951  0.39784  0.91973  1.0000
  C   C38       1.0  0.93049  0.10216  0.41973  1.0000
  C   C39       1.0  0.43049  0.60216  0.08027  1.0000
  C   C40       1.0  0.06951  0.89784  0.58027  1.0000
  C   C41       1.0  0.45342  0.34332  0.91534  1.0000
  C   C42       1.0  0.04658  0.15668  0.41534  1.0000
  C   C43       1.0  0.54658  0.65668  0.08466  1.0000
  C   C44       1.0  0.95342  0.84332  0.58466  1.0000
  C   C45       1.0  0.41017  0.28446  0.00450  1.0000
  C   C46       1.0  0.08983  0.21553  0.50450  1.0000
  C   C47       1.0  0.58983  0.71554  0.99550  1.0000
  C   C48       1.0  0.91017  0.78446  0.49550  1.0000
  C   C49       1.0  0.48150  0.28008  0.09792  1.0000
  C   C50       1.0  0.01850  0.21991  0.59792  1.0000
  C   C51       1.0  0.51850  0.71991  0.90208  1.0000
  C   C52       1.0  0.98150  0.78009  0.40208  1.0000
  C   C53       1.0  0.59513  0.33550  0.10450  1.0000
  C   C54       1.0  0.90487  0.16449  0.60450  1.0000
  C   C55       1.0  0.40487  0.66449  0.89550  1.0000
  C   C56       1.0  0.09513  0.83551  0.39550  1.0000
  C   C57       1.0  0.63920  0.39467  0.01535  1.0000
  C   C58       1.0  0.86080  0.10533  0.51534  1.0000
  C   C59       1.0  0.36080  0.60533  0.98465  1.0000
  C   C60       1.0  0.13920  0.89467  0.48465  1.0000
  S   S1        1.0  0.82250  0.00004  0.88711  1.0000
  S   S2        1.0  0.67750  0.49996  0.38711  1.0000
  S   S3        1.0  0.17750  0.99996  0.11289  1.0000
  S   S4        1.0  0.32250  0.50004  0.61289  1.0000
  N   N1        1.0  0.87425  0.69898  0.13288  1.0000
  N   N2        1.0  0.62575  0.80102  0.63287  1.0000
  N   N3        1.0  0.12575  0.30102  0.86712  1.0000
  N   N4        1.0  0.37425  0.19898  0.36712  1.0000
  N   N5        1.0  0.64880  0.50097  0.74979  1.0000
  N   N6        1.0  0.85120  0.99904  0.24979  1.0000
  N   N7        1.0  0.35120  0.49904  0.25021  1.0000
  N   N8        1.0  0.14880  0.00096  0.75021  1.0000
  O   O1        1.0  0.82083  0.89859  0.94943  1.0000
  O   O2        1.0  0.67917  0.60141  0.44943  1.0000
  O   O3        1.0  0.17917  0.10141  0.05057  1.0000
  O   O4        1.0  0.32083  0.39859  0.55057  1.0000
  O   O5        1.0  0.81677  0.98423  0.77058  1.0000
  O   O6        1.0  0.68323  0.51577  0.27058  1.0000
  O   O7        1.0  0.18323  0.01577  0.22942  1.0000
  O   O8        1.0  0.31677  0.48423  0.72942  1.0000
  O   O9        1.0  0.90968  0.08586  0.92516  1.0000
  O   O10       1.0  0.59032  0.41414  0.42516  1.0000
  O   O11       1.0  0.09032  0.91414  0.07484  1.0000
  O   O12       1.0  0.40968  0.58586  0.57484  1.0000
  O   O13       1.0  0.74704  0.45746  0.01720  1.0000
  O   O14       1.0  0.75296  0.04254  0.51719  1.0000
  O   O15       1.0  0.25296  0.54254  0.98280  1.0000
  O   O16       1.0  0.24704  0.95746  0.48280  1.0000
  F   F1        1.0  0.57997  0.98539  0.89719  1.0000
  F   F2        1.0  0.92003  0.51461  0.39719  1.0000
  F   F3        1.0  0.42003  0.01461  0.10281  1.0000
  F   F4        1.0  0.07997  0.48539  0.60281  1.0000
  F   F5        1.0  0.66915  0.07688  0.03095  1.0000
  F   F6        1.0  0.83085  0.42312  0.53095  1.0000
  F   F7        1.0  0.33085  0.92312  0.96905  1.0000
  F   F8        1.0  0.16915  0.57688  0.46906  1.0000
  F   F9        1.0  0.65998  0.15085  0.86914  1.0000
  F   F10       1.0  0.84002  0.34915  0.36914  1.0000
  F   F11       1.0  0.34002  0.84915  0.13086  1.0000
  F   F12       1.0  0.15998  0.65085  0.63086  1.0000
