data_image0
_chemical_formula_structural       Zn4H48C56N8O20
_chemical_formula_sum              "Zn4 H48 C56 N8 O20"
_cell_length_a       7.11039
_cell_length_b       11.2292
_cell_length_c       19.036
_cell_angle_alpha    90.0006
_cell_angle_beta     89.9998
_cell_angle_gamma    90.0017

_space_group_name_H-M_alt    "P 1"
_space_group_IT_number       1

loop_
  _space_group_symop_operation_xyz
  'x, y, z'

loop_
  _atom_site_type_symbol
  _atom_site_label
  _atom_site_symmetry_multiplicity
  _atom_site_fract_x
  _atom_site_fract_y
  _atom_site_fract_z
  _atom_site_occupancy
  Zn  Zn1       1.0  0.11504  0.32554  0.16427  1.0000
  Zn  Zn2       1.0  0.38495  0.67445  0.66427  1.0000
  Zn  Zn3       1.0  0.88499  0.82555  0.33573  1.0000
  Zn  Zn4       1.0  0.61504  0.17446  0.83573  1.0000
  H   H1        1.0  0.04726  0.05460  0.20293  1.0000
  H   H2        1.0  0.45275  0.94539  0.70293  1.0000
  H   H3        1.0  0.95273  0.55460  0.29707  1.0000
  H   H4        1.0  0.54727  0.44540  0.79707  1.0000
  H   H5        1.0  0.00586  0.86534  0.13739  1.0000
  H   H6        1.0  0.49417  0.13465  0.63740  1.0000
  H   H7        1.0  0.99415  0.36534  0.36260  1.0000
  H   H8        1.0  0.50585  0.63466  0.86260  1.0000
  H   H9        1.0  0.01523  0.87212  0.00362  1.0000
  H   H10       1.0  0.48478  0.12787  0.50363  1.0000
  H   H11       1.0  0.98475  0.37212  0.49637  1.0000
  H   H12       1.0  0.51524  0.62789  0.99637  1.0000
  H   H13       1.0  0.05243  0.06807  0.94399  1.0000
  H   H14       1.0  0.44757  0.93192  0.44399  1.0000
  H   H15       1.0  0.94754  0.56807  0.55601  1.0000
  H   H16       1.0  0.55243  0.43194  0.05601  1.0000
  H   H17       1.0  0.04949  0.23915  0.90232  1.0000
  H   H18       1.0  0.45052  0.76084  0.40231  1.0000
  H   H19       1.0  0.95051  0.73914  0.59768  1.0000
  H   H20       1.0  0.54951  0.26086  0.09768  1.0000
  H   H21       1.0  0.02759  0.44760  0.86278  1.0000
  H   H22       1.0  0.47240  0.55240  0.36278  1.0000
  H   H23       1.0  0.97243  0.94758  0.63723  1.0000
  H   H24       1.0  0.52757  0.05242  0.13722  1.0000
  H   H25       1.0  0.04113  0.61318  0.95265  1.0000
  H   H26       1.0  0.45885  0.38682  0.45264  1.0000
  H   H27       1.0  0.95892  0.11317  0.54736  1.0000
  H   H28       1.0  0.54105  0.88683  0.04735  1.0000
  H   H29       1.0  0.08686  0.55688  0.08028  1.0000
  H   H30       1.0  0.41313  0.44311  0.58027  1.0000
  H   H31       1.0  0.91319  0.05689  0.41973  1.0000
  H   H32       1.0  0.58680  0.94312  0.91972  1.0000
  H   H33       1.0  0.33889  0.34956  0.31377  1.0000
  H   H34       1.0  0.16110  0.65045  0.81376  1.0000
  H   H35       1.0  0.66114  0.84956  0.18623  1.0000
  H   H36       1.0  0.83889  0.15045  0.68624  1.0000
  H   H37       1.0  0.64295  0.23211  0.30608  1.0000
  H   H38       1.0  0.85704  0.76790  0.80607  1.0000
  H   H39       1.0  0.35707  0.73212  0.19392  1.0000
  H   H40       1.0  0.14296  0.26789  0.69393  1.0000
  H   H41       1.0  0.66751  0.38408  0.32841  1.0000
  H   H42       1.0  0.83248  0.61594  0.82840  1.0000
  H   H43       1.0  0.33252  0.88408  0.17159  1.0000
  H   H44       1.0  0.16751  0.11593  0.67160  1.0000
  H   H45       1.0  0.40363  0.17763  0.23277  1.0000
  H   H46       1.0  0.09637  0.82238  0.73276  1.0000
  H   H47       1.0  0.59639  0.67763  0.26724  1.0000
  H   H48       1.0  0.90363  0.32238  0.76724  1.0000
  C   C1        1.0  0.04622  0.05379  0.14560  1.0000
  C   C2        1.0  0.45380  0.94620  0.64560  1.0000
  C   C3        1.0  0.95379  0.55379  0.35440  1.0000
  C   C4        1.0  0.54621  0.44621  0.85440  1.0000
  C   C5        1.0  0.02357  0.94801  0.10806  1.0000
  C   C6        1.0  0.47644  0.05198  0.60807  1.0000
  C   C7        1.0  0.97642  0.44801  0.39193  1.0000
  C   C8        1.0  0.52358  0.55199  0.89193  1.0000
  C   C9        1.0  0.02879  0.95311  0.03489  1.0000
  C   C10       1.0  0.47122  0.04688  0.53489  1.0000
  C   C11       1.0  0.97119  0.45311  0.46511  1.0000
  C   C12       1.0  0.52880  0.54689  0.96511  1.0000
  C   C13       1.0  0.04871  0.06263  0.00115  1.0000
  C   C14       1.0  0.45129  0.93736  0.50115  1.0000
  C   C15       1.0  0.95126  0.56263  0.49885  1.0000
  C   C16       1.0  0.54872  0.43737  0.99885  1.0000
  C   C17       1.0  0.06346  0.16530  0.04259  1.0000
  C   C18       1.0  0.43654  0.83470  0.54259  1.0000
  C   C19       1.0  0.93653  0.66530  0.45741  1.0000
  C   C20       1.0  0.56346  0.33470  0.95741  1.0000
  C   C21       1.0  0.06827  0.28726  0.01290  1.0000
  C   C22       1.0  0.43173  0.71274  0.51290  1.0000
  C   C23       1.0  0.93174  0.78726  0.48710  1.0000
  C   C24       1.0  0.56826  0.21274  0.98710  1.0000
  C   C25       1.0  0.05209  0.31074  0.94104  1.0000
  C   C26       1.0  0.44791  0.68926  0.44104  1.0000
  C   C27       1.0  0.94792  0.81073  0.55896  1.0000
  C   C28       1.0  0.55209  0.18927  0.05896  1.0000
  C   C29       1.0  0.04220  0.42879  0.91881  1.0000
  C   C30       1.0  0.45779  0.57121  0.41881  1.0000
  C   C31       1.0  0.95782  0.92877  0.58119  1.0000
  C   C32       1.0  0.54217  0.07122  0.08119  1.0000
  C   C33       1.0  0.05015  0.52001  0.96843  1.0000
  C   C34       1.0  0.44984  0.47998  0.46842  1.0000
  C   C35       1.0  0.94989  0.02001  0.53158  1.0000
  C   C36       1.0  0.55009  0.97999  0.03157  1.0000
  C   C37       1.0  0.07298  0.49025  0.03893  1.0000
  C   C38       1.0  0.42701  0.50975  0.53892  1.0000
  C   C39       1.0  0.92705  0.99024  0.46108  1.0000
  C   C40       1.0  0.57293  0.00976  0.96107  1.0000
  C   C41       1.0  0.39773  0.46964  0.23049  1.0000
  C   C42       1.0  0.10224  0.53036  0.73048  1.0000
  C   C43       1.0  0.60230  0.96964  0.26951  1.0000
  C   C44       1.0  0.89772  0.03036  0.76952  1.0000
  C   C45       1.0  0.42526  0.34709  0.26520  1.0000
  C   C46       1.0  0.07473  0.65292  0.76519  1.0000
  C   C47       1.0  0.57477  0.84710  0.23481  1.0000
  C   C48       1.0  0.92526  0.15291  0.73481  1.0000
  C   C49       1.0  0.62799  0.32333  0.28569  1.0000
  C   C50       1.0  0.87200  0.67667  0.78568  1.0000
  C   C51       1.0  0.37204  0.82334  0.21431  1.0000
  C   C52       1.0  0.12799  0.17667  0.71432  1.0000
  C   C53       1.0  0.76939  0.33946  0.22644  1.0000
  C   C54       1.0  0.73058  0.66054  0.72644  1.0000
  C   C55       1.0  0.23062  0.83946  0.27356  1.0000
  C   C56       1.0  0.26941  0.16054  0.77356  1.0000
  N   N1        1.0  0.06714  0.15898  0.11350  1.0000
  N   N2        1.0  0.43287  0.84101  0.61350  1.0000
  N   N3        1.0  0.93286  0.65898  0.38650  1.0000
  N   N4        1.0  0.56714  0.34102  0.88650  1.0000
  N   N5        1.0  0.08146  0.37667  0.06019  1.0000
  N   N6        1.0  0.41853  0.62333  0.56019  1.0000
  N   N7        1.0  0.91856  0.87667  0.43981  1.0000
  N   N8        1.0  0.58144  0.12333  0.93981  1.0000
  O   O1        1.0  0.27341  0.47830  0.18235  1.0000
  O   O2        1.0  0.22656  0.52170  0.68234  1.0000
  O   O3        1.0  0.72662  0.97831  0.31766  1.0000
  O   O4        1.0  0.77340  0.02170  0.81766  1.0000
  O   O5        1.0  0.49303  0.55412  0.25535  1.0000
  O   O6        1.0  0.00694  0.44589  0.75535  1.0000
  O   O7        1.0  0.50701  0.05413  0.24465  1.0000
  O   O8        1.0  0.99302  0.94588  0.74466  1.0000
  O   O9        1.0  0.35154  0.25764  0.21944  1.0000
  O   O10       1.0  0.14844  0.74236  0.71942  1.0000
  O   O11       1.0  0.64847  0.75765  0.28057  1.0000
  O   O12       1.0  0.85156  0.24235  0.78058  1.0000
  O   O13       1.0  0.72081  0.36939  0.16592  1.0000
  O   O14       1.0  0.77917  0.63061  0.66592  1.0000
  O   O15       1.0  0.27921  0.86938  0.33408  1.0000
  O   O16       1.0  0.22082  0.13062  0.83408  1.0000
  O   O17       1.0  0.94242  0.31926  0.24525  1.0000
  O   O18       1.0  0.55756  0.68072  0.74525  1.0000
  O   O19       1.0  0.05759  0.81928  0.25474  1.0000
  O   O20       1.0  0.44243  0.18072  0.75475  1.0000
