data_image0
_chemical_formula_structural       Cd2H28C36N8Cl4
_chemical_formula_sum              "Cd2 H28 C36 N8 Cl4"
_cell_length_a       6.73831
_cell_length_b       9.74161
_cell_length_c       12.8646
_cell_angle_alpha    101.441
_cell_angle_beta     93.5243
_cell_angle_gamma    98.3676

_space_group_name_H-M_alt    "P 1"
_space_group_IT_number       1

loop_
  _space_group_symop_operation_xyz
  'x, y, z'

loop_
  _atom_site_type_symbol
  _atom_site_label
  _atom_site_symmetry_multiplicity
  _atom_site_fract_x
  _atom_site_fract_y
  _atom_site_fract_z
  _atom_site_occupancy
  Cd  Cd1       1.0  0.26060  0.01847  0.57414  1.0000
  Cd  Cd2       1.0  0.73939  0.98153  0.42586  1.0000
  H   H1        1.0  0.91000  0.21405  0.66754  1.0000
  H   H2        1.0  0.09001  0.78595  0.33246  1.0000
  H   H3        1.0  0.84652  0.23631  0.29238  1.0000
  H   H4        1.0  0.15347  0.76369  0.70762  1.0000
  H   H5        1.0  0.01244  0.35083  0.23647  1.0000
  H   H6        1.0  0.98756  0.64917  0.76353  1.0000
  H   H7        1.0  0.86429  0.85371  0.80112  1.0000
  H   H8        1.0  0.13571  0.14629  0.19888  1.0000
  H   H9        1.0  0.09698  0.42311  0.99583  1.0000
  H   H10       1.0  0.90303  0.57688  0.00418  1.0000
  H   H11       1.0  0.85109  0.38545  0.83155  1.0000
  H   H12       1.0  0.14891  0.61454  0.16846  1.0000
  H   H13       1.0  0.60470  0.83799  0.64920  1.0000
  H   H14       1.0  0.39530  0.16201  0.35080  1.0000
  H   H15       1.0  0.85284  0.03314  0.97181  1.0000
  H   H16       1.0  0.14716  0.96686  0.02819  1.0000
  H   H17       1.0  0.57420  0.61162  0.27605  1.0000
  H   H18       1.0  0.42580  0.38839  0.72395  1.0000
  H   H19       1.0  0.35890  0.49996  0.29619  1.0000
  H   H20       1.0  0.64111  0.50005  0.70381  1.0000
  H   H21       1.0  0.63494  0.56407  0.45051  1.0000
  H   H22       1.0  0.36506  0.43594  0.54948  1.0000
  H   H23       1.0  0.55904  0.37947  0.40639  1.0000
  H   H24       1.0  0.44096  0.62054  0.59361  1.0000
  H   H25       1.0  0.92881  0.43239  0.43325  1.0000
  H   H26       1.0  0.07118  0.56761  0.56675  1.0000
  H   H27       1.0  0.93494  0.55879  0.35235  1.0000
  H   H28       1.0  0.06507  0.44121  0.64764  1.0000
  C   C1        1.0  0.45249  0.08942  0.82054  1.0000
  C   C2        1.0  0.54751  0.91058  0.17946  1.0000
  C   C3        1.0  0.29244  0.17564  0.82518  1.0000
  C   C4        1.0  0.70756  0.82436  0.17483  1.0000
  C   C5        1.0  0.58209  0.21301  0.00500  1.0000
  C   C6        1.0  0.41791  0.78699  0.99500  1.0000
  C   C7        1.0  0.59444  0.10746  0.90964  1.0000
  C   C8        1.0  0.40555  0.89253  0.09036  1.0000
  C   C9        1.0  0.27500  0.27352  0.92029  1.0000
  C   C10       1.0  0.72501  0.72647  0.07971  1.0000
  C   C11       1.0  0.01074  0.23212  0.74047  1.0000
  C   C12       1.0  0.98927  0.76789  0.25953  1.0000
  C   C13       1.0  0.86331  0.33900  0.26734  1.0000
  C   C14       1.0  0.13668  0.66100  0.73266  1.0000
  C   C15       1.0  0.74923  0.92181  0.80989  1.0000
  C   C16       1.0  0.25077  0.07818  0.19011  1.0000
  C   C17       1.0  0.11247  0.34950  0.92234  1.0000
  C   C18       1.0  0.88752  0.65050  0.07766  1.0000
  C   C19       1.0  0.97851  0.32810  0.83257  1.0000
  C   C20       1.0  0.02149  0.67189  0.16743  1.0000
  C   C21       1.0  0.54206  0.40192  0.18411  1.0000
  C   C22       1.0  0.45794  0.59809  0.81589  1.0000
  C   C23       1.0  0.70665  0.32409  0.17610  1.0000
  C   C24       1.0  0.29336  0.67592  0.82390  1.0000
  C   C25       1.0  0.60331  0.91174  0.72475  1.0000
  C   C26       1.0  0.39669  0.08826  0.27525  1.0000
  C   C27       1.0  0.74417  0.02003  0.90290  1.0000
  C   C28       1.0  0.25583  0.97997  0.09710  1.0000
  C   C29       1.0  0.42285  0.29331  0.01140  1.0000
  C   C30       1.0  0.57716  0.70669  0.98860  1.0000
  C   C31       1.0  0.52005  0.50287  0.28563  1.0000
  C   C32       1.0  0.47995  0.49714  0.71436  1.0000
  C   C33       1.0  0.63575  0.47506  0.38334  1.0000
  C   C34       1.0  0.36425  0.52495  0.61666  1.0000
  C   C35       1.0  0.85235  0.45754  0.36330  1.0000
  C   C36       1.0  0.14765  0.54247  0.63670  1.0000
  N   N1        1.0  0.45958  0.99257  0.73008  1.0000
  N   N2        1.0  0.54042  0.00743  0.26992  1.0000
  N   N3        1.0  0.16333  0.15879  0.73705  1.0000
  N   N4        1.0  0.83668  0.84121  0.26295  1.0000
  N   N5        1.0  0.72364  0.23099  0.08741  1.0000
  N   N6        1.0  0.27636  0.76901  0.91259  1.0000
  N   N7        1.0  0.40487  0.38701  0.10165  1.0000
  N   N8        1.0  0.59514  0.61300  0.89835  1.0000
  Cl  Cl1       1.0  0.92713  0.83857  0.54464  1.0000
  Cl  Cl2       1.0  0.07286  0.16143  0.45536  1.0000
  Cl  Cl3       1.0  0.40873  0.81346  0.45059  1.0000
  Cl  Cl4       1.0  0.59126  0.18654  0.54942  1.0000
