data_image0
_chemical_formula_structural       K4H44C40N4O16
_chemical_formula_sum              "K4 H44 C40 N4 O16"
_cell_length_a       8.05363
_cell_length_b       8.63898
_cell_length_c       16.218
_cell_angle_alpha    96.5598
_cell_angle_beta     89.9899
_cell_angle_gamma    90.0152

_space_group_name_H-M_alt    "P 1"
_space_group_IT_number       1

loop_
  _space_group_symop_operation_xyz
  'x, y, z'

loop_
  _atom_site_type_symbol
  _atom_site_label
  _atom_site_symmetry_multiplicity
  _atom_site_fract_x
  _atom_site_fract_y
  _atom_site_fract_z
  _atom_site_occupancy
  K   K1        1.0  0.29821  0.42816  0.10050  1.0000
  K   K2        1.0  0.79823  0.07138  0.89975  1.0000
  K   K3        1.0  0.70179  0.57140  0.89964  1.0000
  K   K4        1.0  0.20172  0.92815  0.10032  1.0000
  H   H1        1.0  0.41738  0.72506  0.02010  1.0000
  H   H2        1.0  0.91741  0.77436  0.97988  1.0000
  H   H3        1.0  0.58256  0.27445  0.97985  1.0000
  H   H4        1.0  0.08259  0.22515  0.02009  1.0000
  H   H5        1.0  0.58295  0.70441  0.07102  1.0000
  H   H6        1.0  0.08296  0.79511  0.92894  1.0000
  H   H7        1.0  0.41702  0.29516  0.92893  1.0000
  H   H8        1.0  0.91698  0.20450  0.07102  1.0000
  H   H9        1.0  0.30506  0.80743  0.30722  1.0000
  H   H10       1.0  0.80486  0.69319  0.69293  1.0000
  H   H11       1.0  0.69509  0.19297  0.69281  1.0000
  H   H12       1.0  0.19522  0.30691  0.30706  1.0000
  H   H13       1.0  0.44956  0.95197  0.42739  1.0000
  H   H14       1.0  0.94872  0.54838  0.57268  1.0000
  H   H15       1.0  0.55090  0.04829  0.57261  1.0000
  H   H16       1.0  0.05145  0.45179  0.42730  1.0000
  H   H17       1.0  0.64294  0.81176  0.51585  1.0000
  H   H18       1.0  0.14233  0.68812  0.48405  1.0000
  H   H19       1.0  0.35743  0.18824  0.48407  1.0000
  H   H20       1.0  0.85774  0.31221  0.51595  1.0000
  H   H21       1.0  0.70125  0.53192  0.47719  1.0000
  H   H22       1.0  0.20126  0.96792  0.52255  1.0000
  H   H23       1.0  0.29885  0.46805  0.52266  1.0000
  H   H24       1.0  0.79861  0.03247  0.47745  1.0000
  H   H25       1.0  0.65380  0.29033  0.39573  1.0000
  H   H26       1.0  0.15483  0.20961  0.60426  1.0000
  H   H27       1.0  0.34580  0.70969  0.60425  1.0000
  H   H28       1.0  0.84496  0.79070  0.39572  1.0000
  H   H29       1.0  0.44738  0.04804  0.25000  1.0000
  H   H30       1.0  0.94745  0.45199  0.75006  1.0000
  H   H31       1.0  0.55257  0.95207  0.75006  1.0000
  H   H32       1.0  0.05259  0.54824  0.25005  1.0000
  H   H33       1.0  0.62805  0.05442  0.31381  1.0000
  H   H34       1.0  0.12817  0.44598  0.68627  1.0000
  H   H35       1.0  0.37188  0.94577  0.68626  1.0000
  H   H36       1.0  0.87190  0.55427  0.31385  1.0000
  H   H37       1.0  0.68611  0.94655  0.16507  1.0000
  H   H38       1.0  0.18629  0.55332  0.83504  1.0000
  H   H39       1.0  0.31377  0.05325  0.83505  1.0000
  H   H40       1.0  0.81372  0.44659  0.16516  1.0000
  H   H41       1.0  0.80299  0.11805  0.19528  1.0000
  H   H42       1.0  0.30307  0.38186  0.80468  1.0000
  H   H43       1.0  0.19695  0.88176  0.80469  1.0000
  H   H44       1.0  0.69693  0.61811  0.19539  1.0000
  C   C1        1.0  0.41613  0.58332  0.32329  1.0000
  C   C2        1.0  0.91636  0.91711  0.67672  1.0000
  C   C3        1.0  0.58385  0.41698  0.67667  1.0000
  C   C4        1.0  0.08361  0.08306  0.32328  1.0000
  C   C5        1.0  0.39300  0.74892  0.34450  1.0000
  C   C6        1.0  0.89279  0.75156  0.65557  1.0000
  C   C7        1.0  0.60719  0.25140  0.65549  1.0000
  C   C8        1.0  0.10727  0.24860  0.34441  1.0000
  C   C9        1.0  0.47197  0.82738  0.41229  1.0000
  C   C10       1.0  0.97145  0.67296  0.58773  1.0000
  C   C11       1.0  0.52835  0.17286  0.58768  1.0000
  C   C12       1.0  0.02866  0.32725  0.41227  1.0000
  C   C13       1.0  0.58205  0.75012  0.46170  1.0000
  C   C14       1.0  0.08161  0.74995  0.53819  1.0000
  C   C15       1.0  0.41826  0.24998  0.53821  1.0000
  C   C16       1.0  0.91848  0.25032  0.46181  1.0000
  C   C17       1.0  0.61319  0.59150  0.44061  1.0000
  C   C18       1.0  0.11317  0.90848  0.55920  1.0000
  C   C19       1.0  0.38693  0.40855  0.55927  1.0000
  C   C20       1.0  0.88678  0.09182  0.44079  1.0000
  C   C21       1.0  0.53629  0.50730  0.37269  1.0000
  C   C22       1.0  0.03652  0.99285  0.62716  1.0000
  C   C23       1.0  0.46372  0.49284  0.62719  1.0000
  C   C24       1.0  0.96337  0.00740  0.37282  1.0000
  C   C25       1.0  0.57888  0.34578  0.34931  1.0000
  C   C26       1.0  0.07938  0.15429  0.65056  1.0000
  C   C27       1.0  0.42099  0.65429  0.65059  1.0000
  C   C28       1.0  0.92047  0.84601  0.34942  1.0000
  C   C29       1.0  0.56963  0.10382  0.26094  1.0000
  C   C30       1.0  0.06974  0.39629  0.73908  1.0000
  C   C31       1.0  0.43034  0.89623  0.73908  1.0000
  C   C32       1.0  0.93028  0.60386  0.26101  1.0000
  C   C33       1.0  0.67664  0.07303  0.18317  1.0000
  C   C34       1.0  0.17676  0.42686  0.81684  1.0000
  C   C35       1.0  0.32327  0.92680  0.81686  1.0000
  C   C36       1.0  0.82325  0.57308  0.18326  1.0000
  C   C37       1.0  0.60247  0.14514  0.10927  1.0000
  C   C38       1.0  0.10257  0.35460  0.89072  1.0000
  C   C39       1.0  0.39741  0.85455  0.89072  1.0000
  C   C40       1.0  0.89745  0.64515  0.10932  1.0000
  N   N1        1.0  0.53902  0.26853  0.28046  1.0000
  N   N2        1.0  0.03922  0.23164  0.71934  1.0000
  N   N3        1.0  0.46098  0.73160  0.71944  1.0000
  N   N4        1.0  0.96069  0.76855  0.28069  1.0000
  O   O1        1.0  0.33346  0.50771  0.26550  1.0000
  O   O2        1.0  0.83417  0.99299  0.73463  1.0000
  O   O3        1.0  0.66622  0.49273  0.73455  1.0000
  O   O4        1.0  0.16573  0.00709  0.26537  1.0000
  O   O5        1.0  0.44696  0.14101  0.10032  1.0000
  O   O6        1.0  0.94703  0.35844  0.89961  1.0000
  O   O7        1.0  0.55295  0.85845  0.89961  1.0000
  O   O8        1.0  0.05298  0.64112  0.10041  1.0000
  O   O9        1.0  0.70216  0.20630  0.06070  1.0000
  O   O10       1.0  0.20226  0.29365  0.93934  1.0000
  O   O11       1.0  0.29770  0.79351  0.93932  1.0000
  O   O12       1.0  0.79776  0.70612  0.06071  1.0000
  O   O13       1.0  0.46026  0.69269  0.07307  1.0000
  O   O14       1.0  0.96025  0.80667  0.92688  1.0000
  O   O15       1.0  0.53974  0.30667  0.92683  1.0000
  O   O16       1.0  0.03965  0.19271  0.07305  1.0000
