data_image0
_chemical_formula_structural       Ba4H56C32O48
_chemical_formula_sum              "Ba4 H56 C32 O48"
_cell_length_a       6.4408
_cell_length_b       11.5038
_cell_length_c       18.9585
_cell_angle_alpha    89.9999
_cell_angle_beta     90.0002
_cell_angle_gamma    93.1322

_space_group_name_H-M_alt    "P 1"
_space_group_IT_number       1

loop_
  _space_group_symop_operation_xyz
  'x, y, z'

loop_
  _atom_site_type_symbol
  _atom_site_label
  _atom_site_symmetry_multiplicity
  _atom_site_fract_x
  _atom_site_fract_y
  _atom_site_fract_z
  _atom_site_occupancy
  Ba  Ba1       1.0  0.51170  0.29943  0.48855  1.0000
  Ba  Ba2       1.0  0.48830  0.20057  0.98855  1.0000
  Ba  Ba3       1.0  0.48830  0.70057  0.51145  1.0000
  Ba  Ba4       1.0  0.51170  0.79943  0.01145  1.0000
  H   H1        1.0  0.71373  0.37273  0.28133  1.0000
  H   H2        1.0  0.28627  0.12727  0.78133  1.0000
  H   H3        1.0  0.28627  0.62727  0.71867  1.0000
  H   H4        1.0  0.71373  0.87274  0.21867  1.0000
  H   H5        1.0  0.03435  0.18829  0.51785  1.0000
  H   H6        1.0  0.96565  0.31171  0.01785  1.0000
  H   H7        1.0  0.96565  0.81171  0.48215  1.0000
  H   H8        1.0  0.03435  0.68829  0.98215  1.0000
  H   H9        1.0  0.14535  0.15070  0.58783  1.0000
  H   H10       1.0  0.85465  0.34930  0.08783  1.0000
  H   H11       1.0  0.85465  0.84930  0.41217  1.0000
  H   H12       1.0  0.14535  0.65070  0.91217  1.0000
  H   H13       1.0  0.24953  0.46558  0.24411  1.0000
  H   H14       1.0  0.75047  0.03442  0.74411  1.0000
  H   H15       1.0  0.75047  0.53442  0.75589  1.0000
  H   H16       1.0  0.24953  0.96558  0.25589  1.0000
  H   H17       1.0  0.97875  0.35265  0.56245  1.0000
  H   H18       1.0  0.02125  0.14735  0.06245  1.0000
  H   H19       1.0  0.02125  0.64735  0.43755  1.0000
  H   H20       1.0  0.97875  0.85265  0.93755  1.0000
  H   H21       1.0  0.89399  0.48055  0.56518  1.0000
  H   H22       1.0  0.10601  0.01945  0.06518  1.0000
  H   H23       1.0  0.10601  0.51945  0.43482  1.0000
  H   H24       1.0  0.89399  0.98055  0.93482  1.0000
  H   H25       1.0  0.37129  0.03386  0.39892  1.0000
  H   H26       1.0  0.62870  0.46614  0.89892  1.0000
  H   H27       1.0  0.62870  0.96614  0.60108  1.0000
  H   H28       1.0  0.37129  0.53386  0.10108  1.0000
  H   H29       1.0  0.34898  0.01981  0.48019  1.0000
  H   H30       1.0  0.65105  0.48019  0.98019  1.0000
  H   H31       1.0  0.65105  0.98019  0.51981  1.0000
  H   H32       1.0  0.34898  0.51981  0.01981  1.0000
  H   H33       1.0  0.97232  0.23987  0.41933  1.0000
  H   H34       1.0  0.02768  0.26013  0.91933  1.0000
  H   H35       1.0  0.02768  0.76013  0.58067  1.0000
  H   H36       1.0  0.97232  0.73987  0.08067  1.0000
  H   H37       1.0  0.86000  0.11290  0.41366  1.0000
  H   H38       1.0  0.14000  0.38710  0.91366  1.0000
  H   H39       1.0  0.14000  0.88710  0.58634  1.0000
  H   H40       1.0  0.86000  0.61290  0.08634  1.0000
  H   H41       1.0  0.69703  0.67413  0.32990  1.0000
  H   H42       1.0  0.30297  0.82587  0.82990  1.0000
  H   H43       1.0  0.30298  0.32587  0.67010  1.0000
  H   H44       1.0  0.69703  0.17413  0.17010  1.0000
  H   H45       1.0  0.78109  0.65733  0.21083  1.0000
  H   H46       1.0  0.21891  0.84266  0.71083  1.0000
  H   H47       1.0  0.21892  0.34267  0.78917  1.0000
  H   H48       1.0  0.78109  0.15734  0.28917  1.0000
  H   H49       1.0  0.26624  0.16738  0.19060  1.0000
  H   H50       1.0  0.73376  0.33262  0.69060  1.0000
  H   H51       1.0  0.73376  0.83262  0.80940  1.0000
  H   H52       1.0  0.26624  0.66738  0.30940  1.0000
  H   H53       1.0  0.18256  0.17838  0.31120  1.0000
  H   H54       1.0  0.81744  0.32162  0.81120  1.0000
  H   H55       1.0  0.81744  0.82161  0.68880  1.0000
  H   H56       1.0  0.18256  0.67838  0.18880  1.0000
  C   C1        1.0  0.65427  0.49385  0.36229  1.0000
  C   C2        1.0  0.34573  0.00615  0.86230  1.0000
  C   C3        1.0  0.34573  0.50615  0.63771  1.0000
  C   C4        1.0  0.65427  0.99385  0.13771  1.0000
  C   C5        1.0  0.70536  0.58613  0.30900  1.0000
  C   C6        1.0  0.29464  0.91387  0.80900  1.0000
  C   C7        1.0  0.29464  0.41386  0.69100  1.0000
  C   C8        1.0  0.70536  0.08613  0.19100  1.0000
  C   C9        1.0  0.75527  0.57643  0.24030  1.0000
  C   C10       1.0  0.24473  0.92357  0.74031  1.0000
  C   C11       1.0  0.24472  0.42357  0.75969  1.0000
  C   C12       1.0  0.75528  0.07643  0.25969  1.0000
  C   C13       1.0  0.78434  0.47133  0.19669  1.0000
  C   C14       1.0  0.21567  0.02867  0.69669  1.0000
  C   C15       1.0  0.21566  0.52867  0.80331  1.0000
  C   C16       1.0  0.78434  0.97133  0.30331  1.0000
  C   C17       1.0  0.32429  0.34800  0.16264  1.0000
  C   C18       1.0  0.67571  0.15201  0.66264  1.0000
  C   C19       1.0  0.67571  0.65201  0.83736  1.0000
  C   C20       1.0  0.32429  0.84799  0.33736  1.0000
  C   C21       1.0  0.26337  0.25386  0.21411  1.0000
  C   C22       1.0  0.73663  0.24614  0.71412  1.0000
  C   C23       1.0  0.73663  0.74614  0.78588  1.0000
  C   C24       1.0  0.26337  0.75386  0.28588  1.0000
  C   C25       1.0  0.19328  0.36412  0.32858  1.0000
  C   C26       1.0  0.80672  0.13588  0.82858  1.0000
  C   C27       1.0  0.80672  0.63588  0.67143  1.0000
  C   C28       1.0  0.19328  0.86412  0.17143  1.0000
  C   C29       1.0  0.21288  0.26032  0.28296  1.0000
  C   C30       1.0  0.78712  0.23968  0.78297  1.0000
  C   C31       1.0  0.78712  0.73968  0.71703  1.0000
  C   C32       1.0  0.21288  0.76031  0.21703  1.0000
  O   O1        1.0  0.65981  0.38446  0.34618  1.0000
  O   O2        1.0  0.34018  0.11554  0.84618  1.0000
  O   O3        1.0  0.34019  0.61554  0.65382  1.0000
  O   O4        1.0  0.65981  0.88446  0.15382  1.0000
  O   O5        1.0  0.20624  0.46820  0.30173  1.0000
  O   O6        1.0  0.79376  0.03180  0.80173  1.0000
  O   O7        1.0  0.79377  0.53180  0.69827  1.0000
  O   O8        1.0  0.20624  0.96820  0.19827  1.0000
  O   O9        1.0  0.76123  0.36760  0.22423  1.0000
  O   O10       1.0  0.23877  0.13240  0.72423  1.0000
  O   O11       1.0  0.23877  0.63240  0.77577  1.0000
  O   O12       1.0  0.76123  0.86760  0.27577  1.0000
  O   O13       1.0  0.13191  0.21762  0.55529  1.0000
  O   O14       1.0  0.86809  0.28238  0.05529  1.0000
  O   O15       1.0  0.86809  0.78238  0.44471  1.0000
  O   O16       1.0  0.13191  0.71762  0.94471  1.0000
  O   O17       1.0  0.30850  0.45676  0.17953  1.0000
  O   O18       1.0  0.69151  0.04325  0.67953  1.0000
  O   O19       1.0  0.69151  0.54325  0.82047  1.0000
  O   O20       1.0  0.30849  0.95675  0.32047  1.0000
  O   O21       1.0  0.60290  0.52513  0.42321  1.0000
  O   O22       1.0  0.39710  0.97487  0.92321  1.0000
  O   O23       1.0  0.39711  0.47486  0.57680  1.0000
  O   O24       1.0  0.60290  0.02514  0.07679  1.0000
  O   O25       1.0  0.86978  0.40246  0.54536  1.0000
  O   O26       1.0  0.13022  0.09754  0.04536  1.0000
  O   O27       1.0  0.13022  0.59754  0.45464  1.0000
  O   O28       1.0  0.86978  0.90246  0.95464  1.0000
  O   O29       1.0  0.16116  0.34961  0.39370  1.0000
  O   O30       1.0  0.83883  0.15039  0.89370  1.0000
  O   O31       1.0  0.83884  0.65039  0.60630  1.0000
  O   O32       1.0  0.16116  0.84961  0.10630  1.0000
  O   O33       1.0  0.83420  0.48423  0.13302  1.0000
  O   O34       1.0  0.16580  0.01577  0.63303  1.0000
  O   O35       1.0  0.16580  0.51577  0.86698  1.0000
  O   O36       1.0  0.83420  0.98423  0.36697  1.0000
  O   O37       1.0  0.39138  0.31821  0.10390  1.0000
  O   O38       1.0  0.60860  0.18179  0.60390  1.0000
  O   O39       1.0  0.60860  0.68179  0.89610  1.0000
  O   O40       1.0  0.39140  0.81821  0.39610  1.0000
  O   O41       1.0  0.39195  0.07646  0.44418  1.0000
  O   O42       1.0  0.60804  0.42354  0.94418  1.0000
  O   O43       1.0  0.60804  0.92354  0.55582  1.0000
  O   O44       1.0  0.39195  0.57646  0.05582  1.0000
  O   O45       1.0  0.87038  0.18499  0.44290  1.0000
  O   O46       1.0  0.12962  0.31501  0.94290  1.0000
  O   O47       1.0  0.12962  0.81501  0.55710  1.0000
  O   O48       1.0  0.87038  0.68499  0.05710  1.0000
