data_image0
_chemical_formula_structural       Cu4H56C24N8Cl8
_chemical_formula_sum              "Cu4 H56 C24 N8 Cl8"
_cell_length_a       5.69284
_cell_length_b       6.62465
_cell_length_c       24.6569
_cell_angle_alpha    90.0007
_cell_angle_beta     90.0004
_cell_angle_gamma    89.9992

_space_group_name_H-M_alt    "P 1"
_space_group_IT_number       1

loop_
  _space_group_symop_operation_xyz
  'x, y, z'

loop_
  _atom_site_type_symbol
  _atom_site_label
  _atom_site_symmetry_multiplicity
  _atom_site_fract_x
  _atom_site_fract_y
  _atom_site_fract_z
  _atom_site_occupancy
  Cu  Cu1       1.0  0.25665  0.40134  0.98750  1.0000
  Cu  Cu2       1.0  0.24335  0.59867  0.48750  1.0000
  Cu  Cu3       1.0  0.74336  0.90133  0.51250  1.0000
  Cu  Cu4       1.0  0.75665  0.09866  0.01250  1.0000
  H   H1        1.0  0.51834  0.45194  0.87767  1.0000
  H   H2        1.0  0.98166  0.54806  0.37767  1.0000
  H   H3        1.0  0.48165  0.95194  0.62233  1.0000
  H   H4        1.0  0.01834  0.04806  0.12233  1.0000
  H   H5        1.0  0.10978  0.27896  0.81135  1.0000
  H   H6        1.0  0.39023  0.72103  0.31135  1.0000
  H   H7        1.0  0.89021  0.77895  0.68865  1.0000
  H   H8        1.0  0.60978  0.22105  0.18865  1.0000
  H   H9        1.0  0.40834  0.20611  0.80739  1.0000
  H   H10       1.0  0.09167  0.79389  0.30740  1.0000
  H   H11       1.0  0.59164  0.70611  0.69260  1.0000
  H   H12       1.0  0.90834  0.29389  0.19260  1.0000
  H   H13       1.0  0.51959  0.54933  0.77534  1.0000
  H   H14       1.0  0.98041  0.45067  0.27534  1.0000
  H   H15       1.0  0.48039  0.04934  0.72465  1.0000
  H   H16       1.0  0.01960  0.95068  0.22466  1.0000
  H   H17       1.0  0.30175  0.44798  0.73214  1.0000
  H   H18       1.0  0.19823  0.55201  0.23214  1.0000
  H   H19       1.0  0.69819  0.94798  0.76786  1.0000
  H   H20       1.0  0.80178  0.05203  0.26786  1.0000
  H   H21       1.0  0.99296  0.64358  0.78230  1.0000
  H   H22       1.0  0.50704  0.35642  0.28230  1.0000
  H   H23       1.0  0.00702  0.14357  0.71770  1.0000
  H   H24       1.0  0.49297  0.85643  0.21770  1.0000
  H   H25       1.0  0.20957  0.80728  0.75602  1.0000
  H   H26       1.0  0.29043  0.19272  0.25601  1.0000
  H   H27       1.0  0.79041  0.30726  0.74399  1.0000
  H   H28       1.0  0.70958  0.69273  0.24399  1.0000
  H   H29       1.0  0.40701  0.82326  0.84657  1.0000
  H   H30       1.0  0.09298  0.17675  0.34656  1.0000
  H   H31       1.0  0.59298  0.32326  0.65344  1.0000
  H   H32       1.0  0.90702  0.67675  0.15343  1.0000
  H   H33       1.0  0.10717  0.89402  0.85240  1.0000
  H   H34       1.0  0.39281  0.10598  0.35240  1.0000
  H   H35       1.0  0.89281  0.39401  0.64761  1.0000
  H   H36       1.0  0.60719  0.60599  0.14760  1.0000
  H   H37       1.0  0.99877  0.55816  0.88512  1.0000
  H   H38       1.0  0.50123  0.44184  0.38512  1.0000
  H   H39       1.0  0.00121  0.05816  0.61489  1.0000
  H   H40       1.0  0.49878  0.94183  0.11488  1.0000
  H   H41       1.0  0.40873  0.15385  0.91737  1.0000
  H   H42       1.0  0.09129  0.84615  0.41736  1.0000
  H   H43       1.0  0.59127  0.65385  0.58263  1.0000
  H   H44       1.0  0.90874  0.34615  0.08263  1.0000
  H   H45       1.0  0.11999  0.19192  0.90901  1.0000
  H   H46       1.0  0.38002  0.80808  0.40901  1.0000
  H   H47       1.0  0.88000  0.69193  0.59099  1.0000
  H   H48       1.0  0.62000  0.30808  0.09099  1.0000
  H   H49       1.0  0.11544  0.75786  0.95606  1.0000
  H   H50       1.0  0.38457  0.24215  0.45606  1.0000
  H   H51       1.0  0.88458  0.25785  0.54394  1.0000
  H   H52       1.0  0.61543  0.74214  0.04394  1.0000
  H   H53       1.0  0.40014  0.73331  0.94370  1.0000
  H   H54       1.0  0.09987  0.26670  0.44370  1.0000
  H   H55       1.0  0.59989  0.23331  0.55630  1.0000
  H   H56       1.0  0.90013  0.76670  0.05630  1.0000
  C   C1        1.0  0.33147  0.41245  0.87252  1.0000
  C   C2        1.0  0.16854  0.58756  0.37252  1.0000
  C   C3        1.0  0.66851  0.91245  0.62748  1.0000
  C   C4        1.0  0.83148  0.08755  0.12748  1.0000
  C   C5        1.0  0.29155  0.33519  0.81494  1.0000
  C   C6        1.0  0.20846  0.66480  0.31494  1.0000
  C   C7        1.0  0.70843  0.83520  0.68506  1.0000
  C   C8        1.0  0.79156  0.16481  0.18506  1.0000
  C   C9        1.0  0.33340  0.50349  0.77359  1.0000
  C   C10       1.0  0.16659  0.49650  0.27359  1.0000
  C   C11       1.0  0.66657  0.00349  0.72641  1.0000
  C   C12       1.0  0.83342  0.99652  0.22641  1.0000
  C   C13       1.0  0.17947  0.68702  0.78602  1.0000
  C   C14       1.0  0.32053  0.31297  0.28602  1.0000
  C   C15       1.0  0.82051  0.18701  0.71399  1.0000
  C   C16       1.0  0.67948  0.81298  0.21398  1.0000
  C   C17       1.0  0.22508  0.76703  0.84333  1.0000
  C   C18       1.0  0.27492  0.23296  0.34333  1.0000
  C   C19       1.0  0.77491  0.26704  0.65667  1.0000
  C   C20       1.0  0.72509  0.73297  0.15667  1.0000
  C   C21       1.0  0.18608  0.60042  0.88530  1.0000
  C   C22       1.0  0.31392  0.39958  0.38529  1.0000
  C   C23       1.0  0.81391  0.10042  0.61471  1.0000
  C   C24       1.0  0.68608  0.89957  0.11470  1.0000
  N   N1        1.0  0.27925  0.26191  0.91469  1.0000
  N   N2        1.0  0.22076  0.73810  0.41469  1.0000
  N   N3        1.0  0.72078  0.76190  0.58531  1.0000
  N   N4        1.0  0.77922  0.23809  0.08531  1.0000
  N   N5        1.0  0.24072  0.65978  0.94182  1.0000
  N   N6        1.0  0.25929  0.34023  0.44182  1.0000
  N   N7        1.0  0.75927  0.15978  0.55819  1.0000
  N   N8        1.0  0.74074  0.84023  0.05818  1.0000
  Cl  Cl1       1.0  0.25571  0.08254  0.02481  1.0000
  Cl  Cl2       1.0  0.24431  0.91747  0.52481  1.0000
  Cl  Cl3       1.0  0.74432  0.58254  0.47519  1.0000
  Cl  Cl4       1.0  0.75571  0.41747  0.97519  1.0000
  Cl  Cl5       1.0  0.24655  0.55262  0.07139  1.0000
  Cl  Cl6       1.0  0.25346  0.44739  0.57139  1.0000
  Cl  Cl7       1.0  0.75346  0.05261  0.42861  1.0000
  Cl  Cl8       1.0  0.74654  0.94738  0.92861  1.0000
