data_image0
_chemical_formula_structural       Cu2H36C32N8Cl4
_chemical_formula_sum              "Cu2 H36 C32 N8 Cl4"
_cell_length_a       8.57948
_cell_length_b       10.8523
_cell_length_c       13.0017
_cell_angle_alpha    106.332
_cell_angle_beta     90.1198
_cell_angle_gamma    113.387

_space_group_name_H-M_alt    "P 1"
_space_group_IT_number       1

loop_
  _space_group_symop_operation_xyz
  'x, y, z'

loop_
  _atom_site_type_symbol
  _atom_site_label
  _atom_site_symmetry_multiplicity
  _atom_site_fract_x
  _atom_site_fract_y
  _atom_site_fract_z
  _atom_site_occupancy
  Cu  Cu1       1.0  0.21171  0.49460  0.23975  1.0000
  Cu  Cu2       1.0  0.78828  0.50539  0.76024  1.0000
  H   H1        1.0  0.23530  0.48590  0.63519  1.0000
  H   H2        1.0  0.76470  0.51410  0.36481  1.0000
  H   H3        1.0  0.38947  0.61392  0.47993  1.0000
  H   H4        1.0  0.61052  0.38608  0.52007  1.0000
  H   H5        1.0  0.87956  0.27143  0.23964  1.0000
  H   H6        1.0  0.12042  0.72858  0.76037  1.0000
  H   H7        1.0  0.75516  0.22784  0.34337  1.0000
  H   H8        1.0  0.24483  0.77217  0.65664  1.0000
  H   H9        1.0  0.88338  0.13611  0.29166  1.0000
  H   H10       1.0  0.11660  0.86389  0.70834  1.0000
  H   H11       1.0  0.79471  0.22310  0.51848  1.0000
  H   H12       1.0  0.20529  0.77690  0.48152  1.0000
  H   H13       1.0  0.94720  0.30421  0.63548  1.0000
  H   H14       1.0  0.05280  0.69578  0.36452  1.0000
  H   H15       1.0  0.21843  0.23130  0.61374  1.0000
  H   H16       1.0  0.78158  0.76870  0.38625  1.0000
  H   H17       1.0  0.71789  0.97713  0.42776  1.0000
  H   H18       1.0  0.28211  0.02287  0.57223  1.0000
  H   H19       1.0  0.29769  0.29008  0.84294  1.0000
  H   H20       1.0  0.70232  0.70993  0.15706  1.0000
  H   H21       1.0  0.10391  0.40232  0.98043  1.0000
  H   H22       1.0  0.89609  0.59766  0.01957  1.0000
  H   H23       1.0  0.48000  0.42821  0.26879  1.0000
  H   H24       1.0  0.51999  0.57179  0.73122  1.0000
  H   H25       1.0  0.64992  0.42901  0.18934  1.0000
  H   H26       1.0  0.35007  0.57098  0.81067  1.0000
  H   H27       1.0  0.49022  0.26618  0.19346  1.0000
  H   H28       1.0  0.50978  0.73382  0.80654  1.0000
  H   H29       1.0  0.68248  0.34533  0.99959  1.0000
  H   H30       1.0  0.31753  0.65467  0.00041  1.0000
  H   H31       1.0  0.55624  0.25345  0.87195  1.0000
  H   H32       1.0  0.44378  0.74655  0.12805  1.0000
  H   H33       1.0  0.25116  0.03293  0.93442  1.0000
  H   H34       1.0  0.74885  0.96707  0.06559  1.0000
  H   H35       1.0  0.79251  0.19246  0.03261  1.0000
  H   H36       1.0  0.20750  0.80754  0.96739  1.0000
  C   C1        1.0  0.02405  0.34797  0.39384  1.0000
  C   C2        1.0  0.97595  0.65204  0.60615  1.0000
  C   C3        1.0  0.19631  0.46211  0.55015  1.0000
  C   C4        1.0  0.80369  0.53789  0.44985  1.0000
  C   C5        1.0  0.26925  0.52459  0.47408  1.0000
  C   C6        1.0  0.73075  0.47541  0.52591  1.0000
  C   C7        1.0  0.87783  0.23970  0.31258  1.0000
  C   C8        1.0  0.12215  0.76031  0.68742  1.0000
  C   C9        1.0  0.92742  0.24971  0.54820  1.0000
  C   C10       1.0  0.07259  0.75028  0.45180  1.0000
  C   C11       1.0  0.96309  0.11954  0.52407  1.0000
  C   C12       1.0  0.03691  0.88046  0.47593  1.0000
  C   C13       1.0  0.12111  0.13019  0.56401  1.0000
  C   C14       1.0  0.87890  0.86981  0.43598  1.0000
  C   C15       1.0  0.84211  0.98816  0.45988  1.0000
  C   C16       1.0  0.15789  0.01184  0.54012  1.0000
  C   C17       1.0  0.40748  0.36794  0.10036  1.0000
  C   C18       1.0  0.59252  0.63206  0.89964  1.0000
  C   C19       1.0  0.30351  0.32287  0.93021  1.0000
  C   C20       1.0  0.69650  0.67713  0.06980  1.0000
  C   C21       1.0  0.21074  0.37914  0.99870  1.0000
  C   C22       1.0  0.78926  0.62085  0.00129  1.0000
  C   C23       1.0  0.51240  0.37325  0.19334  1.0000
  C   C24       1.0  0.48760  0.62675  0.80666  1.0000
  C   C25       1.0  0.55627  0.26425  0.95869  1.0000
  C   C26       1.0  0.44373  0.73576  0.04131  1.0000
  C   C27       1.0  0.52546  0.12730  0.98017  1.0000
  C   C28       1.0  0.47455  0.87270  0.01984  1.0000
  C   C29       1.0  0.36085  0.01889  0.96320  1.0000
  C   C30       1.0  0.63916  0.98112  0.03680  1.0000
  C   C31       1.0  0.66432  0.10723  0.01730  1.0000
  C   C32       1.0  0.33569  0.89277  0.98270  1.0000
  N   N1        1.0  0.16081  0.45371  0.37738  1.0000
  N   N2        1.0  0.83918  0.54629  0.62261  1.0000
  N   N3        1.0  0.04235  0.35213  0.49897  1.0000
  N   N4        1.0  0.95765  0.64787  0.50103  1.0000
  N   N5        1.0  0.27703  0.40721  0.10394  1.0000
  N   N6        1.0  0.72297  0.59278  0.89605  1.0000
  N   N7        1.0  0.42667  0.31680  0.99521  1.0000
  N   N8        1.0  0.57334  0.68320  0.00479  1.0000
  Cl  Cl1       1.0  0.96314  0.48718  0.17311  1.0000
  Cl  Cl2       1.0  0.03686  0.51282  0.82689  1.0000
  Cl  Cl3       1.0  0.46105  0.68986  0.30482  1.0000
  Cl  Cl4       1.0  0.53896  0.31014  0.69517  1.0000
