data_image0
_chemical_formula_structural       Ag4H20C40N4O8F12
_chemical_formula_sum              "Ag4 H20 C40 N4 O8 F12"
_cell_length_a       4.50706
_cell_length_b       11.3576
_cell_length_c       19.2666
_cell_angle_alpha    101.346
_cell_angle_beta     90
_cell_angle_gamma    89.9999

_space_group_name_H-M_alt    "P 1"
_space_group_IT_number       1

loop_
  _space_group_symop_operation_xyz
  'x, y, z'

loop_
  _atom_site_type_symbol
  _atom_site_label
  _atom_site_symmetry_multiplicity
  _atom_site_fract_x
  _atom_site_fract_y
  _atom_site_fract_z
  _atom_site_occupancy
  Ag  Ag1       1.0  0.76246  0.55721  0.56087  1.0000
  Ag  Ag2       1.0  0.26247  0.44280  0.93913  1.0000
  Ag  Ag3       1.0  0.23753  0.44279  0.43913  1.0000
  Ag  Ag4       1.0  0.73753  0.55721  0.06087  1.0000
  H   H1        1.0  0.29367  0.65830  0.67476  1.0000
  H   H2        1.0  0.79368  0.34170  0.82524  1.0000
  H   H3        1.0  0.70632  0.34170  0.32524  1.0000
  H   H4        1.0  0.20632  0.65831  0.17476  1.0000
  H   H5        1.0  0.65630  0.80517  0.74174  1.0000
  H   H6        1.0  0.15631  0.19483  0.75826  1.0000
  H   H7        1.0  0.34369  0.19483  0.25827  1.0000
  H   H8        1.0  0.84369  0.80517  0.24174  1.0000
  H   H9        1.0  0.79861  0.98842  0.69944  1.0000
  H   H10       1.0  0.29861  0.01158  0.80056  1.0000
  H   H11       1.0  0.20139  0.01158  0.30056  1.0000
  H   H12       1.0  0.70139  0.98842  0.19944  1.0000
  H   H13       1.0  0.58855  0.03219  0.58628  1.0000
  H   H14       1.0  0.08855  0.96781  0.91372  1.0000
  H   H15       1.0  0.41146  0.96781  0.41372  1.0000
  H   H16       1.0  0.91146  0.03219  0.08628  1.0000
  H   H17       1.0  0.82774  0.82913  0.40593  1.0000
  H   H18       1.0  0.32774  0.17087  0.09407  1.0000
  H   H19       1.0  0.17226  0.17087  0.59407  1.0000
  H   H20       1.0  0.67226  0.82913  0.90593  1.0000
  C   C1        1.0  0.32359  0.86980  0.57056  1.0000
  C   C2        1.0  0.82359  0.13019  0.92944  1.0000
  C   C3        1.0  0.67642  0.13019  0.42944  1.0000
  C   C4        1.0  0.17641  0.86981  0.07056  1.0000
  C   C5        1.0  0.24063  0.76453  0.59326  1.0000
  C   C6        1.0  0.74063  0.23546  0.90674  1.0000
  C   C7        1.0  0.75937  0.23546  0.40674  1.0000
  C   C8        1.0  0.25937  0.76454  0.09326  1.0000
  C   C9        1.0  0.35934  0.73859  0.65561  1.0000
  C   C10       1.0  0.85936  0.26141  0.84439  1.0000
  C   C11       1.0  0.64064  0.26141  0.34439  1.0000
  C   C12       1.0  0.14065  0.73859  0.15561  1.0000
  C   C13       1.0  0.55860  0.82219  0.69301  1.0000
  C   C14       1.0  0.05860  0.17780  0.80699  1.0000
  C   C15       1.0  0.44140  0.17781  0.30699  1.0000
  C   C16       1.0  0.94140  0.82220  0.19301  1.0000
  C   C17       1.0  0.64045  0.92646  0.66880  1.0000
  C   C18       1.0  0.14046  0.07354  0.83120  1.0000
  C   C19       1.0  0.35954  0.07354  0.33120  1.0000
  C   C20       1.0  0.85954  0.92646  0.16880  1.0000
  C   C21       1.0  0.52389  0.95266  0.60610  1.0000
  C   C22       1.0  0.02388  0.04734  0.89390  1.0000
  C   C23       1.0  0.47612  0.04734  0.39390  1.0000
  C   C24       1.0  0.97611  0.95266  0.10610  1.0000
  C   C25       1.0  0.99893  0.77007  0.49556  1.0000
  C   C26       1.0  0.49893  0.22993  0.00444  1.0000
  C   C27       1.0  0.00107  0.22993  0.50444  1.0000
  C   C28       1.0  0.50107  0.77007  0.99556  1.0000
  C   C29       1.0  0.81929  0.75532  0.43427  1.0000
  C   C30       1.0  0.31930  0.24468  0.06573  1.0000
  C   C31       1.0  0.18071  0.24468  0.56573  1.0000
  C   C32       1.0  0.68071  0.75532  0.93427  1.0000
  C   C33       1.0  0.64697  0.65663  0.40680  1.0000
  C   C34       1.0  0.14698  0.34337  0.09320  1.0000
  C   C35       1.0  0.35302  0.34338  0.59320  1.0000
  C   C36       1.0  0.85303  0.65663  0.90680  1.0000
  C   C37       1.0  0.48997  0.65821  0.33614  1.0000
  C   C38       1.0  0.98997  0.34179  0.16386  1.0000
  C   C39       1.0  0.51003  0.34179  0.66386  1.0000
  C   C40       1.0  0.01003  0.65821  0.83614  1.0000
  N   N1        1.0  0.03783  0.70324  0.54455  1.0000
  N   N2        1.0  0.53783  0.29675  0.95545  1.0000
  N   N3        1.0  0.96216  0.29675  0.45545  1.0000
  N   N4        1.0  0.46216  0.70325  0.04455  1.0000
  O   O1        1.0  0.17107  0.87346  0.50889  1.0000
  O   O2        1.0  0.67107  0.12654  0.99111  1.0000
  O   O3        1.0  0.82893  0.12654  0.49111  1.0000
  O   O4        1.0  0.32893  0.87346  0.00889  1.0000
  O   O5        1.0  0.61861  0.55859  0.43036  1.0000
  O   O6        1.0  0.11861  0.44141  0.06964  1.0000
  O   O7        1.0  0.38138  0.44141  0.56964  1.0000
  O   O8        1.0  0.88138  0.55859  0.93036  1.0000
  F   F1        1.0  0.40627  0.77080  0.32820  1.0000
  F   F2        1.0  0.90627  0.22920  0.17180  1.0000
  F   F3        1.0  0.59374  0.22920  0.67180  1.0000
  F   F4        1.0  0.09373  0.77080  0.82820  1.0000
  F   F5        1.0  0.24258  0.58862  0.32827  1.0000
  F   F6        1.0  0.74259  0.41138  0.17173  1.0000
  F   F7        1.0  0.75742  0.41138  0.67173  1.0000
  F   F8        1.0  0.25742  0.58862  0.82827  1.0000
  F   F9        1.0  0.66978  0.61375  0.27984  1.0000
  F   F10       1.0  0.16978  0.38625  0.22016  1.0000
  F   F11       1.0  0.33023  0.38624  0.72016  1.0000
  F   F12       1.0  0.83023  0.61375  0.77984  1.0000
