data_image0
_chemical_formula_structural       Li2H18C12O16
_chemical_formula_sum              "Li2 H18 C12 O16"
_cell_length_a       6.58344
_cell_length_b       7.41996
_cell_length_c       9.03201
_cell_angle_alpha    85.3475
_cell_angle_beta     79.5412
_cell_angle_gamma    72.383

_space_group_name_H-M_alt    "P 1"
_space_group_IT_number       1

loop_
  _space_group_symop_operation_xyz
  'x, y, z'

loop_
  _atom_site_type_symbol
  _atom_site_label
  _atom_site_symmetry_multiplicity
  _atom_site_fract_x
  _atom_site_fract_y
  _atom_site_fract_z
  _atom_site_occupancy
  Li  Li1       1.0  0.96555  0.71167  0.49373  1.0000
  Li  Li2       1.0  0.03822  0.28944  0.50668  1.0000
  H   H1        1.0  0.49934  0.17328  0.25185  1.0000
  H   H2        1.0  0.16288  0.94533  0.33454  1.0000
  H   H3        1.0  0.00438  0.96418  0.00574  1.0000
  H   H4        1.0  0.71677  0.62659  0.21278  1.0000
  H   H5        1.0  0.61730  0.62739  0.40622  1.0000
  H   H6        1.0  0.32884  0.89187  0.07865  1.0000
  H   H7        1.0  0.48984  0.66052  0.02841  1.0000
  H   H8        1.0  0.97736  0.48847  0.99113  1.0000
  H   H9        1.0  0.50579  0.82875  0.74909  1.0000
  H   H10       1.0  0.84049  0.05633  0.66895  1.0000
  H   H11       1.0  0.28696  0.37607  0.78709  1.0000
  H   H12       1.0  0.38819  0.37413  0.59371  1.0000
  H   H13       1.0  0.65847  0.11406  0.92574  1.0000
  H   H14       1.0  0.50984  0.34934  0.97233  1.0000
  H   H15       1.0  0.00420  0.78483  0.77824  1.0000
  H   H16       1.0  0.14627  0.87262  0.65135  1.0000
  H   H17       1.0  0.00382  0.21226  0.22148  1.0000
  H   H18       1.0  0.85899  0.12805  0.34880  1.0000
  C   C1        1.0  0.60694  0.89737  0.31021  1.0000
  C   C2        1.0  0.58494  0.70219  0.29923  1.0000
  C   C3        1.0  0.36653  0.69119  0.26734  1.0000
  C   C4        1.0  0.34232  0.74160  0.10020  1.0000
  C   C5        1.0  0.35740  0.48591  0.30791  1.0000
  C   C6        1.0  0.15997  0.69171  0.05137  1.0000
  C   C7        1.0  0.39747  0.10459  0.69041  1.0000
  C   C8        1.0  0.41927  0.29996  0.70112  1.0000
  C   C9        1.0  0.63697  0.31099  0.73474  1.0000
  C   C10       1.0  0.65569  0.26182  0.90273  1.0000
  C   C11       1.0  0.64680  0.51571  0.69368  1.0000
  C   C12       1.0  0.84463  0.29490  0.95542  1.0000
  O   O1        1.0  0.73874  0.92073  0.38485  1.0000
  O   O2        1.0  0.48478  0.03379  0.23602  1.0000
  O   O3        1.0  0.19301  0.80909  0.36494  1.0000
  O   O4        1.0  0.51958  0.35479  0.24823  1.0000
  O   O5        1.0  0.19544  0.46539  0.39837  1.0000
  O   O6        1.0  0.15624  0.52438  0.05417  1.0000
  O   O7        1.0  0.00257  0.82471  0.99928  1.0000
  O   O8        1.0  0.26586  0.08068  0.61595  1.0000
  O   O9        1.0  0.52023  0.96836  0.76447  1.0000
  O   O10       1.0  0.81192  0.19232  0.63864  1.0000
  O   O11       1.0  0.48575  0.64719  0.75437  1.0000
  O   O12       1.0  0.80813  0.53601  0.60246  1.0000
  O   O13       1.0  0.84815  0.47125  0.94662  1.0000
  O   O14       1.0  0.98811  0.16738  0.00964  1.0000
  O   O15       1.0  0.01834  0.82525  0.67225  1.0000
  O   O16       1.0  0.98719  0.17500  0.32837  1.0000
