data_image0
_chemical_formula_structural       Cd2H52C76N4O8
_chemical_formula_sum              "Cd2 H52 C76 N4 O8"
_cell_length_a       10.1567
_cell_length_b       11.7257
_cell_length_c       14.1642
_cell_angle_alpha    98.1519
_cell_angle_beta     102.722
_cell_angle_gamma    109.118

_space_group_name_H-M_alt    "P 1"
_space_group_IT_number       1

loop_
  _space_group_symop_operation_xyz
  'x, y, z'

loop_
  _atom_site_type_symbol
  _atom_site_label
  _atom_site_symmetry_multiplicity
  _atom_site_fract_x
  _atom_site_fract_y
  _atom_site_fract_z
  _atom_site_occupancy
  Cd  Cd1       1.0  0.26823  0.93078  0.90039  1.0000
  Cd  Cd2       1.0  0.73177  0.06922  0.09961  1.0000
  H   H1        1.0  0.08835  0.31351  0.96054  1.0000
  H   H2        1.0  0.91164  0.68648  0.03946  1.0000
  H   H3        1.0  0.43441  0.37728  0.81802  1.0000
  H   H4        1.0  0.56558  0.62272  0.18199  1.0000
  H   H5        1.0  0.46161  0.88960  0.64516  1.0000
  H   H6        1.0  0.53840  0.11040  0.35484  1.0000
  H   H7        1.0  0.42787  0.16550  0.83052  1.0000
  H   H8        1.0  0.57213  0.83450  0.16948  1.0000
  H   H9        1.0  0.81067  0.95815  0.90632  1.0000
  H   H10       1.0  0.18933  0.04185  0.09368  1.0000
  H   H11       1.0  0.02845  0.43923  0.85417  1.0000
  H   H12       1.0  0.97154  0.56077  0.14583  1.0000
  H   H13       1.0  0.09857  0.10738  0.96832  1.0000
  H   H14       1.0  0.90143  0.89261  0.03169  1.0000
  H   H15       1.0  0.83111  0.79203  0.62278  1.0000
  H   H16       1.0  0.16889  0.20796  0.37722  1.0000
  H   H17       1.0  0.04463  0.65795  0.86295  1.0000
  H   H18       1.0  0.95537  0.34204  0.13704  1.0000
  H   H19       1.0  0.49272  0.78975  0.92741  1.0000
  H   H20       1.0  0.50728  0.21025  0.07260  1.0000
  H   H21       1.0  0.72089  0.65179  0.43796  1.0000
  H   H22       1.0  0.27911  0.34822  0.56204  1.0000
  H   H23       1.0  0.49785  0.57763  0.91960  1.0000
  H   H24       1.0  0.50215  0.42237  0.08041  1.0000
  H   H25       1.0  0.40117  0.84987  0.32278  1.0000
  H   H26       1.0  0.59884  0.15013  0.67722  1.0000
  H   H27       1.0  0.67559  0.00615  0.45651  1.0000
  H   H28       1.0  0.32442  0.99386  0.54350  1.0000
  H   H29       1.0  0.18488  0.75704  0.44569  1.0000
  H   H30       1.0  0.81512  0.24297  0.55430  1.0000
  H   H31       1.0  0.44052  0.57863  0.60539  1.0000
  H   H32       1.0  0.55948  0.42136  0.39460  1.0000
  H   H33       1.0  0.86500  0.07270  0.36886  1.0000
  H   H34       1.0  0.13501  0.92731  0.63115  1.0000
  H   H35       1.0  0.91670  0.72120  0.35698  1.0000
  H   H36       1.0  0.08331  0.27880  0.64301  1.0000
  H   H37       1.0  0.33103  0.47850  0.36058  1.0000
  H   H38       1.0  0.66897  0.52151  0.63941  1.0000
  H   H39       1.0  0.25649  0.50993  0.69589  1.0000
  H   H40       1.0  0.74351  0.49007  0.30410  1.0000
  H   H41       1.0  0.99075  0.93348  0.32326  1.0000
  H   H42       1.0  0.00925  0.06652  0.67675  1.0000
  H   H43       1.0  0.29022  0.76759  0.14025  1.0000
  H   H44       1.0  0.70979  0.23242  0.85974  1.0000
  H   H45       1.0  0.00602  0.69558  0.54119  1.0000
  H   H46       1.0  0.99398  0.30443  0.45880  1.0000
  H   H47       1.0  0.23012  0.39633  0.17794  1.0000
  H   H48       1.0  0.76987  0.60367  0.82206  1.0000
  H   H49       1.0  0.03923  0.57023  0.66525  1.0000
  H   H50       1.0  0.96078  0.42978  0.33474  1.0000
  H   H51       1.0  0.20610  0.54127  0.06715  1.0000
  H   H52       1.0  0.79389  0.45872  0.93285  1.0000
  C   C1        1.0  0.26214  0.36446  0.88931  1.0000
  C   C2        1.0  0.73786  0.63554  0.11069  1.0000
  C   C3        1.0  0.16556  0.28519  0.93020  1.0000
  C   C4        1.0  0.83444  0.71481  0.06980  1.0000
  C   C5        1.0  0.97517  0.86223  0.81637  1.0000
  C   C6        1.0  0.02484  0.13777  0.18363  1.0000
  C   C7        1.0  0.62863  0.92929  0.78090  1.0000
  C   C8        1.0  0.37137  0.07071  0.21910  1.0000
  C   C9        1.0  0.54761  0.97816  0.84244  1.0000
  C   C10       1.0  0.45240  0.02183  0.15756  1.0000
  C   C11       1.0  0.35910  0.32150  0.85288  1.0000
  C   C12       1.0  0.64090  0.67850  0.14713  1.0000
  C   C13       1.0  0.26328  0.49014  0.88778  1.0000
  C   C14       1.0  0.73672  0.50985  0.11222  1.0000
  C   C15       1.0  0.56648  0.88454  0.67799  1.0000
  C   C16       1.0  0.43352  0.11546  0.32201  1.0000
  C   C17       1.0  0.35662  0.20378  0.85953  1.0000
  C   C18       1.0  0.64338  0.79622  0.14047  1.0000
  C   C19       1.0  0.83111  0.86839  0.76923  1.0000
  C   C20       1.0  0.16889  0.13160  0.23077  1.0000
  C   C21       1.0  0.76113  0.92144  0.82661  1.0000
  C   C22       1.0  0.23887  0.07856  0.17339  1.0000
  C   C23       1.0  0.63710  0.83392  0.61894  1.0000
  C   C24       1.0  0.36290  0.16608  0.38106  1.0000
  C   C25       1.0  0.13429  0.51395  0.87145  1.0000
  C   C26       1.0  0.86570  0.48605  0.12855  1.0000
  C   C27       1.0  0.43403  0.71517  0.46399  1.0000
  C   C28       1.0  0.56596  0.28483  0.53600  1.0000
  C   C29       1.0  0.57580  0.78745  0.50924  1.0000
  C   C30       1.0  0.42420  0.21255  0.49076  1.0000
  C   C31       1.0  0.32539  0.67253  0.51936  1.0000
  C   C32       1.0  0.67461  0.32747  0.48064  1.0000
  C   C33       1.0  0.17117  0.16935  0.93530  1.0000
  C   C34       1.0  0.82883  0.83064  0.06470  1.0000
  C   C35       1.0  0.77090  0.82805  0.66596  1.0000
  C   C36       1.0  0.22910  0.17194  0.33404  1.0000
  C   C37       1.0  0.14205  0.63527  0.87608  1.0000
  C   C38       1.0  0.85795  0.36472  0.12391  1.0000
  C   C39       1.0  0.37501  0.66996  0.35389  1.0000
  C   C40       1.0  0.62499  0.33005  0.64610  1.0000
  C   C41       1.0  0.39239  0.70919  0.91065  1.0000
  C   C42       1.0  0.60761  0.29081  0.08935  1.0000
  C   C43       1.0  0.68466  0.82421  0.45253  1.0000
  C   C44       1.0  0.31534  0.17579  0.54747  1.0000
  C   C45       1.0  0.75301  0.74447  0.42344  1.0000
  C   C46       1.0  0.24699  0.25553  0.57656  1.0000
  C   C47       1.0  0.39450  0.59071  0.90618  1.0000
  C   C48       1.0  0.60550  0.40929  0.09382  1.0000
  C   C49       1.0  0.36270  0.75051  0.29095  1.0000
  C   C50       1.0  0.63729  0.24950  0.70905  1.0000
  C   C51       1.0  0.72783  0.94327  0.43377  1.0000
  C   C52       1.0  0.27217  0.05673  0.56624  1.0000
  C   C53       1.0  0.20088  0.70325  0.50109  1.0000
  C   C54       1.0  0.79911  0.29675  0.49890  1.0000
  C   C55       1.0  0.34402  0.60269  0.59026  1.0000
  C   C56       1.0  0.65598  0.39732  0.40975  1.0000
  C   C57       1.0  0.83574  0.98171  0.38618  1.0000
  C   C58       1.0  0.16428  0.01830  0.61383  1.0000
  C   C59       1.0  0.86352  0.78400  0.37795  1.0000
  C   C60       1.0  0.13648  0.21600  0.62205  1.0000
  C   C61       1.0  0.32403  0.54194  0.31193  1.0000
  C   C62       1.0  0.67597  0.45807  0.68807  1.0000
  C   C63       1.0  0.24103  0.56537  0.64189  1.0000
  C   C64       1.0  0.75897  0.43463  0.35811  1.0000
  C   C65       1.0  0.90515  0.90250  0.35927  1.0000
  C   C66       1.0  0.09486  0.09751  0.64074  1.0000
  C   C67       1.0  0.30045  0.70411  0.18833  1.0000
  C   C68       1.0  0.69955  0.29590  0.81167  1.0000
  C   C69       1.0  0.10019  0.66859  0.55456  1.0000
  C   C70       1.0  0.89981  0.33141  0.44544  1.0000
  C   C71       1.0  0.26574  0.49572  0.20926  1.0000
  C   C72       1.0  0.73426  0.50428  0.79073  1.0000
  C   C73       1.0  0.11954  0.59885  0.62482  1.0000
  C   C74       1.0  0.88047  0.40115  0.37518  1.0000
  C   C75       1.0  0.25296  0.57687  0.14732  1.0000
  C   C76       1.0  0.74704  0.42313  0.85267  1.0000
  N   N1        1.0  0.26883  0.73130  0.89662  1.0000
  N   N2        1.0  0.73117  0.26870  0.10338  1.0000
  N   N3        1.0  0.26609  0.12980  0.90115  1.0000
  N   N4        1.0  0.73391  0.87020  0.09885  1.0000
  O   O1        1.0  0.02019  0.88385  0.91160  1.0000
  O   O2        1.0  0.97982  0.11615  0.08840  1.0000
  O   O3        1.0  0.41517  0.95777  0.79888  1.0000
  O   O4        1.0  0.58484  0.04223  0.20113  1.0000
  O   O5        1.0  0.05047  0.84099  0.76015  1.0000
  O   O6        1.0  0.94953  0.15901  0.23985  1.0000
  O   O7        1.0  0.61061  0.03400  0.93324  1.0000
  O   O8        1.0  0.38939  0.96599  0.06676  1.0000
