data_image0
_chemical_formula_structural       Zn8H32C16N80
_chemical_formula_sum              "Zn8 H32 C16 N80"
_cell_length_a       10.2897
_cell_length_b       10.3367
_cell_length_c       20.0702
_cell_angle_alpha    90
_cell_angle_beta     90
_cell_angle_gamma    119.723

_space_group_name_H-M_alt    "P 1"
_space_group_IT_number       1

loop_
  _space_group_symop_operation_xyz
  'x, y, z'

loop_
  _atom_site_type_symbol
  _atom_site_label
  _atom_site_symmetry_multiplicity
  _atom_site_fract_x
  _atom_site_fract_y
  _atom_site_fract_z
  _atom_site_occupancy
  Zn  Zn1       1.0  0.37079  0.54587  0.59731  1.0000
  Zn  Zn2       1.0  0.62921  0.45412  0.09731  1.0000
  Zn  Zn3       1.0  0.62921  0.45413  0.40269  1.0000
  Zn  Zn4       1.0  0.37079  0.54587  0.90269  1.0000
  Zn  Zn5       1.0  0.04610  0.87875  0.59625  1.0000
  Zn  Zn6       1.0  0.95390  0.12125  0.09625  1.0000
  Zn  Zn7       1.0  0.95390  0.12125  0.40375  1.0000
  Zn  Zn8       1.0  0.04610  0.87875  0.90375  1.0000
  H   H1        1.0  0.93528  0.53815  0.58490  1.0000
  H   H2        1.0  0.06472  0.46185  0.08490  1.0000
  H   H3        1.0  0.06472  0.46185  0.41510  1.0000
  H   H4        1.0  0.93528  0.53815  0.91510  1.0000
  H   H5        1.0  0.03461  0.44059  0.58781  1.0000
  H   H6        1.0  0.96539  0.55941  0.08781  1.0000
  H   H7        1.0  0.96539  0.55941  0.41219  1.0000
  H   H8        1.0  0.03461  0.44059  0.91219  1.0000
  H   H9        1.0  0.47984  0.30617  0.57527  1.0000
  H   H10       1.0  0.52016  0.69383  0.07527  1.0000
  H   H11       1.0  0.52016  0.69383  0.42473  1.0000
  H   H12       1.0  0.47984  0.30617  0.92473  1.0000
  H   H13       1.0  0.38128  0.11045  0.56538  1.0000
  H   H14       1.0  0.61872  0.88955  0.06538  1.0000
  H   H15       1.0  0.61872  0.88955  0.43462  1.0000
  H   H16       1.0  0.38128  0.11045  0.93462  1.0000
  H   H17       1.0  0.80337  0.98049  0.57865  1.0000
  H   H18       1.0  0.19663  0.01951  0.07864  1.0000
  H   H19       1.0  0.19663  0.01951  0.42135  1.0000
  H   H20       1.0  0.80337  0.98049  0.92136  1.0000
  H   H21       1.0  0.60701  0.88145  0.57040  1.0000
  H   H22       1.0  0.39299  0.11856  0.07040  1.0000
  H   H23       1.0  0.39299  0.11855  0.42960  1.0000
  H   H24       1.0  0.60701  0.88145  0.92960  1.0000
  H   H25       1.0  0.34421  0.31482  0.79149  1.0000
  H   H26       1.0  0.65580  0.68518  0.29149  1.0000
  H   H27       1.0  0.65580  0.68518  0.20851  1.0000
  H   H28       1.0  0.34420  0.31482  0.70851  1.0000
  H   H29       1.0  0.00685  0.62809  0.70770  1.0000
  H   H30       1.0  0.99315  0.37191  0.20770  1.0000
  H   H31       1.0  0.99315  0.37191  0.29230  1.0000
  H   H32       1.0  0.00685  0.62809  0.79230  1.0000
  C   C1        1.0  0.16031  0.66328  0.57220  1.0000
  C   C2        1.0  0.83969  0.33672  0.07221  1.0000
  C   C3        1.0  0.83969  0.33672  0.42779  1.0000
  C   C4        1.0  0.16031  0.66328  0.92779  1.0000
  C   C5        1.0  0.25230  0.20828  0.57498  1.0000
  C   C6        1.0  0.74770  0.79172  0.07498  1.0000
  C   C7        1.0  0.74770  0.79172  0.42502  1.0000
  C   C8        1.0  0.25230  0.20828  0.92502  1.0000
  C   C9        1.0  0.70591  0.75434  0.58086  1.0000
  C   C10       1.0  0.29409  0.24566  0.08086  1.0000
  C   C11       1.0  0.29409  0.24566  0.41914  1.0000
  C   C12       1.0  0.70591  0.75434  0.91914  1.0000
  C   C13       1.0  0.36322  0.50186  0.75000  1.0000
  C   C14       1.0  0.63678  0.49814  0.25000  1.0000
  C   C15       1.0  0.05100  0.82359  0.75000  1.0000
  C   C16       1.0  0.94901  0.17641  0.25000  1.0000
  N   N1        1.0  0.29486  0.67443  0.56072  1.0000
  N   N2        1.0  0.70514  0.32557  0.06072  1.0000
  N   N3        1.0  0.70514  0.32557  0.43928  1.0000
  N   N4        1.0  0.29486  0.67443  0.93928  1.0000
  N   N5        1.0  0.39164  0.82029  0.54613  1.0000
  N   N6        1.0  0.60836  0.17971  0.04613  1.0000
  N   N7        1.0  0.60836  0.17971  0.45387  1.0000
  N   N8        1.0  0.39164  0.82029  0.95387  1.0000
  N   N9        1.0  0.32038  0.89383  0.54752  1.0000
  N   N10       1.0  0.67962  0.10617  0.04752  1.0000
  N   N11       1.0  0.67963  0.10617  0.45248  1.0000
  N   N12       1.0  0.32037  0.89383  0.95248  1.0000
  N   N13       1.0  0.17422  0.79908  0.56336  1.0000
  N   N14       1.0  0.82578  0.20092  0.06336  1.0000
  N   N15       1.0  0.82578  0.20092  0.43664  1.0000
  N   N16       1.0  0.17422  0.79908  0.93664  1.0000
  N   N17       1.0  0.03519  0.53997  0.59285  1.0000
  N   N18       1.0  0.96481  0.46003  0.09285  1.0000
  N   N19       1.0  0.96481  0.46003  0.40715  1.0000
  N   N20       1.0  0.03519  0.53997  0.90715  1.0000
  N   N21       1.0  0.23624  0.33048  0.57891  1.0000
  N   N22       1.0  0.76376  0.66952  0.07891  1.0000
  N   N23       1.0  0.76377  0.66952  0.42109  1.0000
  N   N24       1.0  0.23623  0.33048  0.92109  1.0000
  N   N25       1.0  0.08627  0.28106  0.57625  1.0000
  N   N26       1.0  0.91373  0.71894  0.07625  1.0000
  N   N27       1.0  0.91373  0.71894  0.42375  1.0000
  N   N28       1.0  0.08627  0.28106  0.92375  1.0000
  N   N29       1.0  0.01468  0.13807  0.57048  1.0000
  N   N30       1.0  0.98532  0.86194  0.07048  1.0000
  N   N31       1.0  0.98533  0.86194  0.42952  1.0000
  N   N32       1.0  0.01467  0.13807  0.92952  1.0000
  N   N33       1.0  0.11414  0.08731  0.56891  1.0000
  N   N34       1.0  0.88586  0.91269  0.06891  1.0000
  N   N35       1.0  0.88586  0.91269  0.43109  1.0000
  N   N36       1.0  0.11414  0.08731  0.93109  1.0000
  N   N37       1.0  0.38143  0.20657  0.57831  1.0000
  N   N38       1.0  0.61857  0.79343  0.07831  1.0000
  N   N39       1.0  0.61857  0.79343  0.42169  1.0000
  N   N40       1.0  0.38143  0.20657  0.92169  1.0000
  N   N41       1.0  0.82917  0.73855  0.58205  1.0000
  N   N42       1.0  0.17083  0.26145  0.08205  1.0000
  N   N43       1.0  0.17083  0.26145  0.41795  1.0000
  N   N44       1.0  0.82917  0.73855  0.91795  1.0000
  N   N45       1.0  0.77970  0.58957  0.57886  1.0000
  N   N46       1.0  0.22030  0.41043  0.07886  1.0000
  N   N47       1.0  0.22030  0.41043  0.42114  1.0000
  N   N48       1.0  0.77970  0.58957  0.92114  1.0000
  N   N49       1.0  0.63565  0.51756  0.57571  1.0000
  N   N50       1.0  0.36435  0.48244  0.07571  1.0000
  N   N51       1.0  0.36435  0.48244  0.42429  1.0000
  N   N52       1.0  0.63565  0.51756  0.92429  1.0000
  N   N53       1.0  0.58412  0.61618  0.57673  1.0000
  N   N54       1.0  0.41588  0.38382  0.07672  1.0000
  N   N55       1.0  0.41588  0.38382  0.42327  1.0000
  N   N56       1.0  0.58412  0.61618  0.92328  1.0000
  N   N57       1.0  0.70378  0.88261  0.58387  1.0000
  N   N58       1.0  0.29623  0.11739  0.08387  1.0000
  N   N59       1.0  0.29623  0.11739  0.41613  1.0000
  N   N60       1.0  0.70377  0.88261  0.91613  1.0000
  N   N61       1.0  0.35624  0.57431  0.69552  1.0000
  N   N62       1.0  0.64376  0.42569  0.19552  1.0000
  N   N63       1.0  0.64376  0.42569  0.30448  1.0000
  N   N64       1.0  0.35624  0.57431  0.80448  1.0000
  N   N65       1.0  0.34375  0.69310  0.71785  1.0000
  N   N66       1.0  0.65625  0.30691  0.21785  1.0000
  N   N67       1.0  0.65625  0.30691  0.28215  1.0000
  N   N68       1.0  0.34375  0.69310  0.78215  1.0000
  N   N69       1.0  0.38118  0.37988  0.75000  1.0000
  N   N70       1.0  0.61882  0.62012  0.25000  1.0000
  N   N71       1.0  0.08304  0.91036  0.69543  1.0000
  N   N72       1.0  0.91696  0.08964  0.19543  1.0000
  N   N73       1.0  0.91696  0.08964  0.30458  1.0000
  N   N74       1.0  0.08304  0.91036  0.80458  1.0000
  N   N75       1.0  0.13756  0.05289  0.71786  1.0000
  N   N76       1.0  0.86244  0.94711  0.21786  1.0000
  N   N77       1.0  0.86244  0.94711  0.28214  1.0000
  N   N78       1.0  0.13756  0.05289  0.78214  1.0000
  N   N79       1.0  0.99091  0.67295  0.75000  1.0000
  N   N80       1.0  0.00909  0.32705  0.25000  1.0000
