data_image0
_chemical_formula_structural       Cu2H30C36S2N12O8
_chemical_formula_sum              "Cu2 H30 C36 S2 N12 O8"
_cell_length_a       9.37445
_cell_length_b       10.3226
_cell_length_c       10.9606
_cell_angle_alpha    79.0717
_cell_angle_beta     82.4556
_cell_angle_gamma    71.4381

_space_group_name_H-M_alt    "P 1"
_space_group_IT_number       1

loop_
  _space_group_symop_operation_xyz
  'x, y, z'

loop_
  _atom_site_type_symbol
  _atom_site_label
  _atom_site_symmetry_multiplicity
  _atom_site_fract_x
  _atom_site_fract_y
  _atom_site_fract_z
  _atom_site_occupancy
  Cu  Cu1       1.0  0.56960  0.82724  0.51297  1.0000
  Cu  Cu2       1.0  0.43040  0.17276  0.48703  1.0000
  H   H1        1.0  0.41199  0.85960  0.78023  1.0000
  H   H2        1.0  0.58802  0.14041  0.21976  1.0000
  H   H3        1.0  0.27808  0.73306  0.48019  1.0000
  H   H4        1.0  0.72191  0.26694  0.51981  1.0000
  H   H5        1.0  0.06214  0.72822  0.68088  1.0000
  H   H6        1.0  0.93787  0.27178  0.31912  1.0000
  H   H7        1.0  0.34966  0.75945  0.98198  1.0000
  H   H8        1.0  0.65034  0.24056  0.01802  1.0000
  H   H9        1.0  0.91917  0.86191  0.82516  1.0000
  H   H10       1.0  0.08083  0.13809  0.17484  1.0000
  H   H11       1.0  0.68580  0.75479  0.79595  1.0000
  H   H12       1.0  0.31420  0.24520  0.20405  1.0000
  H   H13       1.0  0.80582  0.52727  0.49555  1.0000
  H   H14       1.0  0.19419  0.47273  0.50445  1.0000
  H   H15       1.0  0.00040  0.39131  0.68020  1.0000
  H   H16       1.0  0.99961  0.60869  0.31980  1.0000
  H   H17       1.0  0.15919  0.46099  0.80235  1.0000
  H   H18       1.0  0.84081  0.53900  0.19766  1.0000
  H   H19       1.0  0.72044  0.59151  0.99921  1.0000
  H   H20       1.0  0.27956  0.40847  0.00079  1.0000
  H   H21       1.0  0.70853  0.80629  0.22705  1.0000
  H   H22       1.0  0.29148  0.19370  0.77295  1.0000
  H   H23       1.0  0.86359  0.89690  0.53579  1.0000
  H   H24       1.0  0.13640  0.10311  0.46421  1.0000
  H   H25       1.0  0.07739  0.90768  0.33364  1.0000
  H   H26       1.0  0.92261  0.09232  0.66636  1.0000
  H   H27       1.0  0.21960  0.78657  0.18844  1.0000
  H   H28       1.0  0.78039  0.21342  0.81156  1.0000
  H   H29       1.0  0.78881  0.88796  0.03062  1.0000
  H   H30       1.0  0.21119  0.11204  0.96938  1.0000
  C   C1        1.0  0.35036  0.81843  0.72716  1.0000
  C   C2        1.0  0.64965  0.18157  0.27283  1.0000
  C   C3        1.0  0.27452  0.75486  0.57369  1.0000
  C   C4        1.0  0.72549  0.24514  0.42631  1.0000
  C   C5        1.0  0.16809  0.75139  0.67197  1.0000
  C   C6        1.0  0.83192  0.24861  0.32803  1.0000
  C   C7        1.0  0.14364  0.80400  0.89016  1.0000
  C   C8        1.0  0.85638  0.19600  0.10983  1.0000
  C   C9        1.0  0.22703  0.78541  0.99252  1.0000
  C   C10       1.0  0.77298  0.21459  0.00748  1.0000
  C   C11       1.0  0.98655  0.83844  0.90498  1.0000
  C   C12       1.0  0.01346  0.16156  0.09502  1.0000
  C   C13       1.0  0.74059  0.67257  0.74026  1.0000
  C   C14       1.0  0.25941  0.32742  0.25974  1.0000
  C   C15       1.0  0.80958  0.55414  0.58568  1.0000
  C   C16       1.0  0.19042  0.44585  0.41433  1.0000
  C   C17       1.0  0.90740  0.48597  0.67568  1.0000
  C   C18       1.0  0.09259  0.51402  0.32432  1.0000
  C   C19       1.0  0.93193  0.52935  0.88826  1.0000
  C   C20       1.0  0.06806  0.47065  0.11174  1.0000
  C   C21       1.0  0.08910  0.47660  0.88905  1.0000
  C   C22       1.0  0.91091  0.52339  0.11095  1.0000
  C   C23       1.0  0.84294  0.55231  0.99939  1.0000
  C   C24       1.0  0.15707  0.44768  0.00061  1.0000
  C   C25       1.0  0.78202  0.82771  0.28415  1.0000
  C   C26       1.0  0.21798  0.17228  0.71585  1.0000
  C   C27       1.0  0.86844  0.87314  0.44252  1.0000
  C   C28       1.0  0.13155  0.12687  0.55747  1.0000
  C   C29       1.0  0.97395  0.87847  0.34404  1.0000
  C   C30       1.0  0.02604  0.12153  0.65595  1.0000
  C   C31       1.0  0.99503  0.83576  0.12421  1.0000
  C   C32       1.0  0.00497  0.16424  0.87580  1.0000
  C   C33       1.0  0.15284  0.80082  0.10991  1.0000
  C   C34       1.0  0.84717  0.19918  0.89009  1.0000
  C   C35       1.0  0.91199  0.85533  0.02180  1.0000
  C   C36       1.0  0.08801  0.14466  0.97820  1.0000
  S   S1        1.0  0.38653  0.96230  0.27814  1.0000
  S   S2        1.0  0.61346  0.03772  0.72188  1.0000
  N   N1        1.0  0.38649  0.79675  0.60975  1.0000
  N   N2        1.0  0.61352  0.20324  0.39025  1.0000
  N   N3        1.0  0.21785  0.79087  0.76915  1.0000
  N   N4        1.0  0.78216  0.20913  0.23084  1.0000
  N   N5        1.0  0.70755  0.67013  0.62654  1.0000
  N   N6        1.0  0.29245  0.32987  0.37346  1.0000
  N   N7        1.0  0.86252  0.56125  0.77391  1.0000
  N   N8        1.0  0.13748  0.43874  0.22609  1.0000
  N   N9        1.0  0.75117  0.84066  0.40383  1.0000
  N   N10       1.0  0.24882  0.15935  0.59617  1.0000
  N   N11       1.0  0.91839  0.84983  0.24403  1.0000
  N   N12       1.0  0.08161  0.15016  0.75597  1.0000
  O   O1        1.0  0.44141  0.04854  0.16982  1.0000
  O   O2        1.0  0.55855  0.95149  0.83020  1.0000
  O   O3        1.0  0.21964  0.01368  0.29828  1.0000
  O   O4        1.0  0.78036  0.98633  0.70174  1.0000
  O   O5        1.0  0.44814  0.98387  0.39507  1.0000
  O   O6        1.0  0.55185  0.01614  0.60490  1.0000
  O   O7        1.0  0.44168  0.81334  0.27023  1.0000
  O   O8        1.0  0.55829  0.18671  0.72976  1.0000
