data_image0
_chemical_formula_structural       Cu4H64C32N8Cl4
_chemical_formula_sum              "Cu4 H64 C32 N8 Cl4"
_cell_length_a       7.53744
_cell_length_b       8.72932
_cell_length_c       14.7903
_cell_angle_alpha    90.0004
_cell_angle_beta     89.9998
_cell_angle_gamma    89.9999

_space_group_name_H-M_alt    "P 1"
_space_group_IT_number       1

loop_
  _space_group_symop_operation_xyz
  'x, y, z'

loop_
  _atom_site_type_symbol
  _atom_site_label
  _atom_site_symmetry_multiplicity
  _atom_site_fract_x
  _atom_site_fract_y
  _atom_site_fract_z
  _atom_site_occupancy
  Cu  Cu1       1.0  0.97960  0.83844  0.54217  1.0000
  Cu  Cu2       1.0  0.52040  0.16155  0.04218  1.0000
  Cu  Cu3       1.0  0.02040  0.33845  0.95782  1.0000
  Cu  Cu4       1.0  0.47960  0.66156  0.45782  1.0000
  H   H1        1.0  0.05721  0.92685  0.38319  1.0000
  H   H2        1.0  0.44280  0.07315  0.88320  1.0000
  H   H3        1.0  0.94279  0.42686  0.11680  1.0000
  H   H4        1.0  0.55721  0.57315  0.61680  1.0000
  H   H5        1.0  0.82230  0.97165  0.41217  1.0000
  H   H6        1.0  0.67770  0.02833  0.91218  1.0000
  H   H7        1.0  0.17770  0.47166  0.08782  1.0000
  H   H8        1.0  0.32230  0.52834  0.58783  1.0000
  H   H9        1.0  0.16072  0.07454  0.51329  1.0000
  H   H10       1.0  0.33928  0.92546  0.01330  1.0000
  H   H11       1.0  0.83929  0.57456  0.98671  1.0000
  H   H12       1.0  0.66072  0.42546  0.48670  1.0000
  H   H13       1.0  0.91157  0.28313  0.52150  1.0000
  H   H14       1.0  0.58842  0.71687  0.02151  1.0000
  H   H15       1.0  0.08843  0.78314  0.97849  1.0000
  H   H16       1.0  0.41158  0.21687  0.47850  1.0000
  H   H17       1.0  0.75885  0.13269  0.54558  1.0000
  H   H18       1.0  0.74115  0.86730  0.04558  1.0000
  H   H19       1.0  0.24116  0.63270  0.95442  1.0000
  H   H20       1.0  0.25885  0.36730  0.45442  1.0000
  H   H21       1.0  0.11296  0.36929  0.64156  1.0000
  H   H22       1.0  0.38703  0.63072  0.14156  1.0000
  H   H23       1.0  0.88704  0.86929  0.85844  1.0000
  H   H24       1.0  0.61296  0.13071  0.35844  1.0000
  H   H25       1.0  0.21098  0.18352  0.63943  1.0000
  H   H26       1.0  0.28901  0.81648  0.13944  1.0000
  H   H27       1.0  0.78902  0.68353  0.86056  1.0000
  H   H28       1.0  0.71099  0.31647  0.36056  1.0000
  H   H29       1.0  0.66438  0.22280  0.67864  1.0000
  H   H30       1.0  0.83561  0.77720  0.17864  1.0000
  H   H31       1.0  0.33562  0.72280  0.82135  1.0000
  H   H32       1.0  0.16439  0.27720  0.32136  1.0000
  H   H33       1.0  0.79163  0.39253  0.66397  1.0000
  H   H34       1.0  0.70837  0.60747  0.16397  1.0000
  H   H35       1.0  0.20838  0.89253  0.83603  1.0000
  H   H36       1.0  0.29163  0.10747  0.33603  1.0000
  H   H37       1.0  0.14045  0.14248  0.80037  1.0000
  H   H38       1.0  0.35954  0.85752  0.30038  1.0000
  H   H39       1.0  0.85955  0.64248  0.69963  1.0000
  H   H40       1.0  0.64046  0.35752  0.19963  1.0000
  H   H41       1.0  0.00956  0.45865  0.80739  1.0000
  H   H42       1.0  0.49044  0.54135  0.30739  1.0000
  H   H43       1.0  0.99044  0.95865  0.69261  1.0000
  H   H44       1.0  0.50955  0.04135  0.19261  1.0000
  H   H45       1.0  0.34662  0.34059  0.86510  1.0000
  H   H46       1.0  0.15337  0.65940  0.36511  1.0000
  H   H47       1.0  0.65338  0.84060  0.63489  1.0000
  H   H48       1.0  0.84662  0.15939  0.13489  1.0000
  H   H49       1.0  0.32204  0.45289  0.76550  1.0000
  H   H50       1.0  0.17796  0.54710  0.26550  1.0000
  H   H51       1.0  0.67797  0.95290  0.73451  1.0000
  H   H52       1.0  0.82203  0.04710  0.23450  1.0000
  H   H53       1.0  0.42572  0.27079  0.75962  1.0000
  H   H54       1.0  0.07428  0.72920  0.25962  1.0000
  H   H55       1.0  0.57428  0.77081  0.74038  1.0000
  H   H56       1.0  0.92572  0.22919  0.24038  1.0000
  H   H57       1.0  0.80993  0.16774  0.82403  1.0000
  H   H58       1.0  0.69007  0.83226  0.32403  1.0000
  H   H59       1.0  0.19007  0.66774  0.67597  1.0000
  H   H60       1.0  0.30993  0.33226  0.17598  1.0000
  H   H61       1.0  0.71872  0.35445  0.82803  1.0000
  H   H62       1.0  0.78127  0.64555  0.32803  1.0000
  H   H63       1.0  0.28127  0.85445  0.67196  1.0000
  H   H64       1.0  0.21872  0.14555  0.17197  1.0000
  C   C1        1.0  0.96173  0.97025  0.43226  1.0000
  C   C2        1.0  0.53828  0.02974  0.93226  1.0000
  C   C3        1.0  0.03828  0.47026  0.06774  1.0000
  C   C4        1.0  0.46173  0.52975  0.56774  1.0000
  C   C5        1.0  0.01759  0.05797  0.50569  1.0000
  C   C6        1.0  0.48240  0.94203  0.00570  1.0000
  C   C7        1.0  0.98240  0.55799  0.99430  1.0000
  C   C8        1.0  0.51760  0.44202  0.49430  1.0000
  C   C9        1.0  0.89790  0.16870  0.55394  1.0000
  C   C10       1.0  0.60209  0.83129  0.05394  1.0000
  C   C11       1.0  0.10210  0.66871  0.94606  1.0000
  C   C12       1.0  0.39790  0.33129  0.44607  1.0000
  C   C13       1.0  0.10561  0.25235  0.67101  1.0000
  C   C14       1.0  0.39439  0.74765  0.17102  1.0000
  C   C15       1.0  0.89439  0.75235  0.82899  1.0000
  C   C16       1.0  0.60561  0.24764  0.32899  1.0000
  C   C17       1.0  0.79359  0.27571  0.69370  1.0000
  C   C18       1.0  0.70641  0.72429  0.19370  1.0000
  C   C19       1.0  0.20641  0.77571  0.80630  1.0000
  C   C20       1.0  0.29359  0.22429  0.30630  1.0000
  C   C21       1.0  0.14099  0.25996  0.77278  1.0000
  C   C22       1.0  0.35900  0.74004  0.27278  1.0000
  C   C23       1.0  0.85900  0.75996  0.72722  1.0000
  C   C24       1.0  0.64099  0.24003  0.22722  1.0000
  C   C25       1.0  0.31861  0.33548  0.79226  1.0000
  C   C26       1.0  0.18139  0.66452  0.29227  1.0000
  C   C27       1.0  0.68139  0.83549  0.70774  1.0000
  C   C28       1.0  0.81861  0.16451  0.20774  1.0000
  C   C29       1.0  0.82065  0.28355  0.79534  1.0000
  C   C30       1.0  0.67935  0.71645  0.29535  1.0000
  C   C31       1.0  0.17935  0.78355  0.70465  1.0000
  C   C32       1.0  0.32065  0.21645  0.20466  1.0000
  N   N1        1.0  0.93265  0.18243  0.65175  1.0000
  N   N2        1.0  0.56734  0.81757  0.15175  1.0000
  N   N3        1.0  0.06735  0.68243  0.84825  1.0000
  N   N4        1.0  0.43265  0.31757  0.34826  1.0000
  N   N5        1.0  0.99728  0.34253  0.82117  1.0000
  N   N6        1.0  0.50271  0.65748  0.32118  1.0000
  N   N7        1.0  0.00271  0.84252  0.67882  1.0000
  N   N8        1.0  0.49728  0.15748  0.17883  1.0000
  Cl  Cl1       1.0  0.95341  0.59072  0.51118  1.0000
  Cl  Cl2       1.0  0.54660  0.40927  0.01118  1.0000
  Cl  Cl3       1.0  0.04660  0.09073  0.98882  1.0000
  Cl  Cl4       1.0  0.45341  0.90928  0.48882  1.0000
