data_image0
_chemical_formula_structural       Hg4H28C28Se2S8N16
_chemical_formula_sum              "Hg4 H28 C28 Se2 S8 N16"
_cell_length_a       9.40232
_cell_length_b       10.414
_cell_length_c       12.8942
_cell_angle_alpha    111.045
_cell_angle_beta     98.1142
_cell_angle_gamma    91.7483

_space_group_name_H-M_alt    "P 1"
_space_group_IT_number       1

loop_
  _space_group_symop_operation_xyz
  'x, y, z'

loop_
  _atom_site_type_symbol
  _atom_site_label
  _atom_site_symmetry_multiplicity
  _atom_site_fract_x
  _atom_site_fract_y
  _atom_site_fract_z
  _atom_site_occupancy
  Hg  Hg1       1.0  0.79783  0.35028  0.77556  1.0000
  Hg  Hg2       1.0  0.20217  0.64972  0.22444  1.0000
  Hg  Hg3       1.0  0.34024  0.17989  0.92447  1.0000
  Hg  Hg4       1.0  0.65976  0.82011  0.07553  1.0000
  H   H1        1.0  0.00377  0.64819  0.84898  1.0000
  H   H2        1.0  0.99623  0.35182  0.15102  1.0000
  H   H3        1.0  0.60971  0.14954  0.52147  1.0000
  H   H4        1.0  0.39029  0.85046  0.47853  1.0000
  H   H5        1.0  0.02843  0.18256  0.58326  1.0000
  H   H6        1.0  0.97157  0.81744  0.41674  1.0000
  H   H7        1.0  0.05721  0.23917  0.47225  1.0000
  H   H8        1.0  0.94279  0.76083  0.52775  1.0000
  H   H9        1.0  0.88298  0.23691  0.51022  1.0000
  H   H10       1.0  0.11702  0.76309  0.48978  1.0000
  H   H11       1.0  0.12544  0.84415  0.77400  1.0000
  H   H12       1.0  0.87456  0.15585  0.22600  1.0000
  H   H13       1.0  0.26740  0.77518  0.69821  1.0000
  H   H14       1.0  0.73260  0.22482  0.30179  1.0000
  H   H15       1.0  0.27445  0.78493  0.83938  1.0000
  H   H16       1.0  0.72555  0.21507  0.16062  1.0000
  H   H17       1.0  0.48108  0.59263  0.80697  1.0000
  H   H18       1.0  0.51892  0.40737  0.19303  1.0000
  H   H19       1.0  0.50381  0.66272  0.70344  1.0000
  H   H20       1.0  0.49619  0.33729  0.29656  1.0000
  H   H21       1.0  0.65546  0.61165  0.77430  1.0000
  H   H22       1.0  0.34454  0.38835  0.22570  1.0000
  H   H23       1.0  0.42044  0.08706  0.33897  1.0000
  H   H24       1.0  0.57956  0.91294  0.66103  1.0000
  H   H25       1.0  0.28088  0.20017  0.34156  1.0000
  H   H26       1.0  0.71912  0.79983  0.65844  1.0000
  H   H27       1.0  0.27702  0.08464  0.41465  1.0000
  H   H28       1.0  0.72298  0.91536  0.58535  1.0000
  C   C1        1.0  0.03628  0.40179  0.62473  1.0000
  C   C2        1.0  0.96371  0.59821  0.37527  1.0000
  C   C3        1.0  0.99902  0.25746  0.54350  1.0000
  C   C4        1.0  0.00098  0.74255  0.45650  1.0000
  C   C5        1.0  0.13479  0.50552  0.62176  1.0000
  C   C6        1.0  0.86521  0.49448  0.37824  1.0000
  C   C7        1.0  0.12642  0.62382  0.71662  1.0000
  C   C8        1.0  0.87358  0.37618  0.28338  1.0000
  C   C9        1.0  0.20239  0.76456  0.75926  1.0000
  C   C10       1.0  0.79761  0.23544  0.24074  1.0000
  C   C11       1.0  0.51597  0.44626  0.64817  1.0000
  C   C12       1.0  0.48403  0.55374  0.35183  1.0000
  C   C13       1.0  0.54089  0.58517  0.73797  1.0000
  C   C14       1.0  0.45911  0.41483  0.26203  1.0000
  C   C15       1.0  0.40340  0.39479  0.55475  1.0000
  C   C16       1.0  0.59660  0.60521  0.44525  1.0000
  C   C17       1.0  0.42976  0.25865  0.49464  1.0000
  C   C18       1.0  0.57024  0.74135  0.50536  1.0000
  C   C19       1.0  0.34825  0.15189  0.39130  1.0000
  C   C20       1.0  0.65175  0.84811  0.60870  1.0000
  C   C21       1.0  0.65618  0.39774  0.99554  1.0000
  C   C22       1.0  0.34383  0.60225  0.00446  1.0000
  C   C23       1.0  0.94994  0.19223  0.91713  1.0000
  C   C24       1.0  0.05005  0.80776  0.08287  1.0000
  C   C25       1.0  0.40521  0.04913  0.10973  1.0000
  C   C26       1.0  0.59479  0.95087  0.89027  1.0000
  C   C27       1.0  0.30353  0.09464  0.65574  1.0000
  C   C28       1.0  0.69647  0.90536  0.34426  1.0000
  Se  Se1       1.0  0.25236  0.49192  0.50975  1.0000
  Se  Se2       1.0  0.74763  0.50809  0.49025  1.0000
  S   S1        1.0  0.77677  0.50465  0.97966  1.0000
  S   S2        1.0  0.22323  0.49535  0.02034  1.0000
  S   S3        1.0  0.87688  0.12173  0.78336  1.0000
  S   S4        1.0  0.12310  0.87826  0.21664  1.0000
  S   S5        1.0  0.25297  0.10225  0.06495  1.0000
  S   S6        1.0  0.74703  0.89775  0.93505  1.0000
  S   S7        1.0  0.29430  0.24447  0.75795  1.0000
  S   S8        1.0  0.70570  0.75553  0.24205  1.0000
  N   N1        1.0  0.97415  0.45442  0.71716  1.0000
  N   N2        1.0  0.02585  0.54558  0.28284  1.0000
  N   N3        1.0  0.02866  0.58792  0.77071  1.0000
  N   N4        1.0  0.97134  0.41208  0.22929  1.0000
  N   N5        1.0  0.60443  0.34603  0.64471  1.0000
  N   N6        1.0  0.39557  0.65398  0.35529  1.0000
  N   N7        1.0  0.55037  0.23340  0.55207  1.0000
  N   N8        1.0  0.44963  0.76660  0.44793  1.0000
  N   N9        1.0  0.57244  0.32265  0.01130  1.0000
  N   N10       1.0  0.42756  0.67734  0.98870  1.0000
  N   N11       1.0  0.00336  0.24201  0.01267  1.0000
  N   N12       1.0  0.99665  0.75799  0.98733  1.0000
  N   N13       1.0  0.51112  0.01393  0.14859  1.0000
  N   N14       1.0  0.48889  0.98607  0.85141  1.0000
  N   N15       1.0  0.30707  0.99240  0.57772  1.0000
  N   N16       1.0  0.69293  0.00760  0.42228  1.0000
