data_image0
_chemical_formula_structural       Zn4H48C52N12O16
_chemical_formula_sum              "Zn4 H48 C52 N12 O16"
_cell_length_a       10.3181
_cell_length_b       10.6249
_cell_length_c       14.9506
_cell_angle_alpha    98.1234
_cell_angle_beta     90.0001
_cell_angle_gamma    119.049

_space_group_name_H-M_alt    "P 1"
_space_group_IT_number       1

loop_
  _space_group_symop_operation_xyz
  'x, y, z'

loop_
  _atom_site_type_symbol
  _atom_site_label
  _atom_site_symmetry_multiplicity
  _atom_site_fract_x
  _atom_site_fract_y
  _atom_site_fract_z
  _atom_site_occupancy
  Zn  Zn1       1.0  0.13741  0.74536  0.92774  1.0000
  Zn  Zn2       1.0  0.39205  0.25464  0.57226  1.0000
  Zn  Zn3       1.0  0.86259  0.25464  0.07226  1.0000
  Zn  Zn4       1.0  0.60795  0.74536  0.42774  1.0000
  H   H1        1.0  0.69451  0.48653  0.66506  1.0000
  H   H2        1.0  0.20798  0.51347  0.83494  1.0000
  H   H3        1.0  0.30549  0.51347  0.33494  1.0000
  H   H4        1.0  0.79202  0.48653  0.16506  1.0000
  H   H5        1.0  0.51641  0.09553  0.85008  1.0000
  H   H6        1.0  0.42088  0.90447  0.64992  1.0000
  H   H7        1.0  0.48360  0.90447  0.14992  1.0000
  H   H8        1.0  0.57912  0.09553  0.35008  1.0000
  H   H9        1.0  0.36164  0.08900  0.71783  1.0000
  H   H10       1.0  0.27263  0.91100  0.78217  1.0000
  H   H11       1.0  0.63837  0.91100  0.28217  1.0000
  H   H12       1.0  0.72737  0.08900  0.21782  1.0000
  H   H13       1.0  0.34632  0.33104  0.09356  1.0000
  H   H14       1.0  0.01528  0.66896  0.40644  1.0000
  H   H15       1.0  0.65367  0.66896  0.90644  1.0000
  H   H16       1.0  0.98471  0.33104  0.59356  1.0000
  H   H17       1.0  0.24244  0.37633  0.02331  1.0000
  H   H18       1.0  0.86611  0.62367  0.47669  1.0000
  H   H19       1.0  0.75755  0.62367  0.97669  1.0000
  H   H20       1.0  0.13389  0.37633  0.52331  1.0000
  H   H21       1.0  0.07920  0.19184  0.88760  1.0000
  H   H22       1.0  0.88736  0.80816  0.61240  1.0000
  H   H23       1.0  0.92079  0.80815  0.11240  1.0000
  H   H24       1.0  0.11264  0.19185  0.38760  1.0000
  H   H25       1.0  0.99549  0.89698  0.83374  1.0000
  H   H26       1.0  0.09850  0.10302  0.66626  1.0000
  H   H27       1.0  0.00451  0.10301  0.16626  1.0000
  H   H28       1.0  0.90149  0.89699  0.33374  1.0000
  H   H29       1.0  0.42595  0.41535  0.90467  1.0000
  H   H30       1.0  0.01060  0.58465  0.59533  1.0000
  H   H31       1.0  0.57404  0.58465  0.09533  1.0000
  H   H32       1.0  0.98940  0.41535  0.40467  1.0000
  H   H33       1.0  0.53177  0.37258  0.97577  1.0000
  H   H34       1.0  0.15919  0.62742  0.52423  1.0000
  H   H35       1.0  0.46822  0.62742  0.02423  1.0000
  H   H36       1.0  0.84081  0.37258  0.47577  1.0000
  H   H37       1.0  0.48757  0.17252  0.04805  1.0000
  H   H38       1.0  0.31506  0.82748  0.45196  1.0000
  H   H39       1.0  0.51242  0.82748  0.95196  1.0000
  H   H40       1.0  0.68494  0.17252  0.54805  1.0000
  H   H41       1.0  0.37833  0.98295  0.05295  1.0000
  H   H42       1.0  0.39539  0.01706  0.44705  1.0000
  H   H43       1.0  0.62167  0.01706  0.94705  1.0000
  H   H44       1.0  0.60461  0.98294  0.55295  1.0000
  H   H45       1.0  0.35329  0.11210  0.12961  1.0000
  H   H46       1.0  0.24119  0.88790  0.37040  1.0000
  H   H47       1.0  0.64670  0.88790  0.87040  1.0000
  H   H48       1.0  0.75881  0.11211  0.62961  1.0000
  C   C1        1.0  0.70252  0.30345  0.83223  1.0000
  C   C2        1.0  0.39907  0.69655  0.66777  1.0000
  C   C3        1.0  0.29749  0.69654  0.16776  1.0000
  C   C4        1.0  0.60094  0.30345  0.33223  1.0000
  C   C5        1.0  0.65903  0.40054  0.70664  1.0000
  C   C6        1.0  0.25849  0.59946  0.79336  1.0000
  C   C7        1.0  0.34097  0.59947  0.29336  1.0000
  C   C8        1.0  0.74151  0.40053  0.20664  1.0000
  C   C9        1.0  0.74949  0.41839  0.78205  1.0000
  C   C10       1.0  0.33110  0.58161  0.71795  1.0000
  C   C11       1.0  0.25052  0.58160  0.21794  1.0000
  C   C12       1.0  0.66890  0.41840  0.28206  1.0000
  C   C13       1.0  0.56012  0.18330  0.80984  1.0000
  C   C14       1.0  0.37682  0.81671  0.69016  1.0000
  C   C15       1.0  0.43989  0.81670  0.19016  1.0000
  C   C16       1.0  0.62318  0.18329  0.30984  1.0000
  C   C17       1.0  0.79754  0.29596  0.90543  1.0000
  C   C18       1.0  0.50158  0.70404  0.59458  1.0000
  C   C19       1.0  0.20247  0.70404  0.09457  1.0000
  C   C20       1.0  0.49843  0.29596  0.40543  1.0000
  C   C21       1.0  0.26091  0.06951  0.99259  1.0000
  C   C22       1.0  0.19140  0.93049  0.50741  1.0000
  C   C23       1.0  0.73909  0.93049  0.00741  1.0000
  C   C24       1.0  0.80860  0.06951  0.49260  1.0000
  C   C25       1.0  0.47488  0.17748  0.73636  1.0000
  C   C26       1.0  0.29740  0.82252  0.76364  1.0000
  C   C27       1.0  0.52512  0.82252  0.26364  1.0000
  C   C28       1.0  0.70260  0.17748  0.23636  1.0000
  C   C29       1.0  0.88718  0.56324  0.81019  1.0000
  C   C30       1.0  0.32394  0.43676  0.68981  1.0000
  C   C31       1.0  0.11283  0.43676  0.18981  1.0000
  C   C32       1.0  0.67606  0.56323  0.31019  1.0000
  C   C33       1.0  0.31809  0.33094  0.02259  1.0000
  C   C34       1.0  0.98715  0.66906  0.47741  1.0000
  C   C35       1.0  0.68190  0.66906  0.97741  1.0000
  C   C36       1.0  0.01285  0.33094  0.52259  1.0000
  C   C37       1.0  0.12054  0.12424  0.91016  1.0000
  C   C38       1.0  0.99630  0.87576  0.58984  1.0000
  C   C39       1.0  0.87945  0.87575  0.08984  1.0000
  C   C40       1.0  0.00370  0.12424  0.41016  1.0000
  C   C41       1.0  0.07877  0.97979  0.88512  1.0000
  C   C42       1.0  0.09898  0.02021  0.61488  1.0000
  C   C43       1.0  0.92122  0.02021  0.11488  1.0000
  C   C44       1.0  0.90101  0.97979  0.38512  1.0000
  C   C45       1.0  0.45838  0.42088  0.97599  1.0000
  C   C46       1.0  0.03750  0.57912  0.52401  1.0000
  C   C47       1.0  0.54162  0.57912  0.02401  1.0000
  C   C48       1.0  0.96250  0.42088  0.47600  1.0000
  C   C49       1.0  0.37654  0.08604  0.05962  1.0000
  C   C50       1.0  0.29050  0.91396  0.44038  1.0000
  C   C51       1.0  0.62346  0.91396  0.94038  1.0000
  C   C52       1.0  0.70951  0.08604  0.55962  1.0000
  N   N1        1.0  0.23468  0.17888  0.97776  1.0000
  N   N2        1.0  0.05580  0.82112  0.52224  1.0000
  N   N3        1.0  0.76532  0.82112  0.02224  1.0000
  N   N4        1.0  0.94419  0.17888  0.47776  1.0000
  N   N5        1.0  0.52583  0.28132  0.68336  1.0000
  N   N6        1.0  0.24452  0.71868  0.81664  1.0000
  N   N7        1.0  0.47417  0.71868  0.31664  1.0000
  N   N8        1.0  0.75549  0.28132  0.18336  1.0000
  N   N9        1.0  0.16642  0.94670  0.93695  1.0000
  N   N10       1.0  0.21972  0.05331  0.56305  1.0000
  N   N11       1.0  0.83358  0.05330  0.06305  1.0000
  N   N12       1.0  0.78028  0.94670  0.43695  1.0000
  O   O1        1.0  0.93545  0.58429  0.89426  1.0000
  O   O2        1.0  0.35116  0.41571  0.60574  1.0000
  O   O3        1.0  0.06455  0.41571  0.10574  1.0000
  O   O4        1.0  0.64884  0.58429  0.39426  1.0000
  O   O5        1.0  0.90528  0.27913  0.88410  1.0000
  O   O6        1.0  0.62615  0.72086  0.61590  1.0000
  O   O7        1.0  0.09473  0.72087  0.11589  1.0000
  O   O8        1.0  0.37386  0.27914  0.38411  1.0000
  O   O9        1.0  0.74594  0.29120  0.98472  1.0000
  O   O10       1.0  0.45474  0.70880  0.51528  1.0000
  O   O11       1.0  0.25407  0.70879  0.01527  1.0000
  O   O12       1.0  0.54527  0.29120  0.48473  1.0000
  O   O13       1.0  0.94018  0.65136  0.75584  1.0000
  O   O14       1.0  0.28881  0.34863  0.74416  1.0000
  O   O15       1.0  0.05982  0.34864  0.24416  1.0000
  O   O16       1.0  0.71117  0.65136  0.25583  1.0000
