data_image0
_chemical_formula_structural       Mn2H32C48N4O8
_chemical_formula_sum              "Mn2 H32 C48 N4 O8"
_cell_length_a       8.38996
_cell_length_b       11.9714
_cell_length_c       11.9728
_cell_angle_alpha    77.5004
_cell_angle_beta     75.5008
_cell_angle_gamma    75.5005

_space_group_name_H-M_alt    "P 1"
_space_group_IT_number       1

loop_
  _space_group_symop_operation_xyz
  'x, y, z'

loop_
  _atom_site_type_symbol
  _atom_site_label
  _atom_site_symmetry_multiplicity
  _atom_site_fract_x
  _atom_site_fract_y
  _atom_site_fract_z
  _atom_site_occupancy
  Mn  Mn1       1.0  0.25005  0.42252  0.57752  1.0000
  Mn  Mn2       1.0  0.75004  0.58847  0.41153  1.0000
  H   H1        1.0  0.76559  0.44829  0.13083  1.0000
  H   H2        1.0  0.73443  0.86911  0.55168  1.0000
  H   H3        1.0  0.23525  0.55534  0.86330  1.0000
  H   H4        1.0  0.26469  0.13680  0.44468  1.0000
  H   H5        1.0  0.54981  0.23707  0.98328  1.0000
  H   H6        1.0  0.95022  0.01673  0.76285  1.0000
  H   H7        1.0  0.43072  0.76095  0.03163  1.0000
  H   H8        1.0  0.06933  0.96837  0.23908  1.0000
  H   H9        1.0  0.32275  0.22748  0.16304  1.0000
  H   H10       1.0  0.17724  0.83694  0.77250  1.0000
  H   H11       1.0  0.66596  0.77613  0.85879  1.0000
  H   H12       1.0  0.83407  0.14125  0.22383  1.0000
  H   H13       1.0  0.31799  0.33095  0.32457  1.0000
  H   H14       1.0  0.18197  0.67535  0.66905  1.0000
  H   H15       1.0  0.68395  0.67995  0.68844  1.0000
  H   H16       1.0  0.81608  0.31168  0.32000  1.0000
  H   H17       1.0  0.22411  0.36443  0.85021  1.0000
  H   H18       1.0  0.27586  0.14978  0.63558  1.0000
  H   H19       1.0  0.75452  0.64665  0.15159  1.0000
  H   H20       1.0  0.74542  0.84844  0.35347  1.0000
  H   H21       1.0  0.00703  0.33311  0.03437  1.0000
  H   H22       1.0  0.49292  0.96561  0.66688  1.0000
  H   H23       1.0  0.97445  0.66711  0.97057  1.0000
  H   H24       1.0  0.52550  0.02950  0.33301  1.0000
  H   H25       1.0  0.64808  0.37653  0.81695  1.0000
  H   H26       1.0  0.85191  0.18305  0.62344  1.0000
  H   H27       1.0  0.33059  0.62312  0.18990  1.0000
  H   H28       1.0  0.16942  0.81010  0.37682  1.0000
  H   H29       1.0  0.87721  0.41112  0.64315  1.0000
  H   H30       1.0  0.62276  0.35689  0.58887  1.0000
  H   H31       1.0  0.10427  0.59393  0.36053  1.0000
  H   H32       1.0  0.39573  0.63948  0.40604  1.0000
  C   C1        1.0  0.53307  0.46022  0.33288  1.0000
  C   C2        1.0  0.96692  0.66707  0.53973  1.0000
  C   C3        1.0  0.47564  0.55008  0.66579  1.0000
  C   C4        1.0  0.02439  0.33425  0.44994  1.0000
  C   C5        1.0  0.54090  0.39587  0.23700  1.0000
  C   C6        1.0  0.95911  0.76296  0.60409  1.0000
  C   C7        1.0  0.46168  0.61188  0.76632  1.0000
  C   C8        1.0  0.03829  0.23374  0.38812  1.0000
  C   C9        1.0  0.66970  0.39908  0.13731  1.0000
  C   C10       1.0  0.83033  0.86266  0.60088  1.0000
  C   C11       1.0  0.32799  0.60474  0.86331  1.0000
  C   C12       1.0  0.17196  0.13673  0.39527  1.0000
  C   C13       1.0  0.67364  0.34282  0.04548  1.0000
  C   C14       1.0  0.82636  0.95450  0.65714  1.0000
  C   C15       1.0  0.31431  0.65784  0.95987  1.0000
  C   C16       1.0  0.18567  0.04017  0.34218  1.0000
  C   C17       1.0  0.54670  0.28183  0.05438  1.0000
  C   C18       1.0  0.95332  0.94560  0.71812  1.0000
  C   C19       1.0  0.43939  0.71861  0.95756  1.0000
  C   C20       1.0  0.06063  0.04247  0.28138  1.0000
  C   C21       1.0  0.41970  0.27648  0.15491  1.0000
  C   C22       1.0  0.08033  0.84506  0.72346  1.0000
  C   C23       1.0  0.57137  0.72731  0.86052  1.0000
  C   C24       1.0  0.92866  0.13954  0.27265  1.0000
  C   C25       1.0  0.41616  0.33355  0.24576  1.0000
  C   C26       1.0  0.08384  0.75420  0.66642  1.0000
  C   C27       1.0  0.58257  0.67434  0.76503  1.0000
  C   C28       1.0  0.91743  0.23506  0.32562  1.0000
  C   C29       1.0  0.09435  0.36617  0.84765  1.0000
  C   C30       1.0  0.40564  0.15234  0.63382  1.0000
  C   C31       1.0  0.88414  0.64168  0.15618  1.0000
  C   C32       1.0  0.61583  0.84385  0.35839  1.0000
  C   C33       1.0  0.97340  0.34934  0.94916  1.0000
  C   C34       1.0  0.52658  0.05081  0.65065  1.0000
  C   C35       1.0  0.00869  0.65269  0.05542  1.0000
  C   C36       1.0  0.49128  0.94463  0.34742  1.0000
  C   C37       1.0  0.80826  0.35255  0.94059  1.0000
  C   C38       1.0  0.69174  0.05939  0.64743  1.0000
  C   C39       1.0  0.17525  0.64804  0.06271  1.0000
  C   C40       1.0  0.32472  0.93731  0.35201  1.0000
  C   C41       1.0  0.77465  0.37125  0.82840  1.0000
  C   C42       1.0  0.72534  0.17160  0.62874  1.0000
  C   C43       1.0  0.20461  0.63068  0.17623  1.0000
  C   C44       1.0  0.29541  0.82377  0.36932  1.0000
  C   C45       1.0  0.90176  0.39019  0.73138  1.0000
  C   C46       1.0  0.59825  0.26862  0.60979  1.0000
  C   C47       1.0  0.07705  0.61569  0.27329  1.0000
  C   C48       1.0  0.42301  0.72671  0.38429  1.0000
  N   N1        1.0  0.05954  0.38759  0.74033  1.0000
  N   N2        1.0  0.44047  0.25966  0.61239  1.0000
  N   N3        1.0  0.91534  0.62202  0.26586  1.0000
  N   N4        1.0  0.58471  0.73414  0.37797  1.0000
  O   O1        1.0  0.40334  0.46785  0.41407  1.0000
  O   O2        1.0  0.09664  0.58586  0.53212  1.0000
  O   O3        1.0  0.59727  0.55686  0.57855  1.0000
  O   O4        1.0  0.90274  0.42151  0.44309  1.0000
  O   O5        1.0  0.65895  0.50744  0.32251  1.0000
  O   O6        1.0  0.84110  0.67744  0.49251  1.0000
  O   O7        1.0  0.36307  0.49097  0.67959  1.0000
  O   O8        1.0  0.13691  0.32045  0.50906  1.0000
