data_image0
_chemical_formula_structural       Hg2H20C28S4N12
_chemical_formula_sum              "Hg2 H20 C28 S4 N12"
_cell_length_a       7.64538
_cell_length_b       8.18175
_cell_length_c       15.2808
_cell_angle_alpha    92.4589
_cell_angle_beta     90.0285
_cell_angle_gamma    117.916

_space_group_name_H-M_alt    "P 1"
_space_group_IT_number       1

loop_
  _space_group_symop_operation_xyz
  'x, y, z'

loop_
  _atom_site_type_symbol
  _atom_site_label
  _atom_site_symmetry_multiplicity
  _atom_site_fract_x
  _atom_site_fract_y
  _atom_site_fract_z
  _atom_site_occupancy
  Hg  Hg1       1.0  0.43238  0.99975  0.25019  1.0000
  Hg  Hg2       1.0  0.56762  0.00025  0.74980  1.0000
  H   H1        1.0  0.38972  0.33471  0.38659  1.0000
  H   H2        1.0  0.05437  0.66514  0.11337  1.0000
  H   H3        1.0  0.61026  0.66527  0.61342  1.0000
  H   H4        1.0  0.94563  0.33489  0.88662  1.0000
  H   H5        1.0  0.12191  0.37991  0.46018  1.0000
  H   H6        1.0  0.74109  0.62010  0.03987  1.0000
  H   H7        1.0  0.87804  0.62004  0.53982  1.0000
  H   H8        1.0  0.25892  0.37996  0.96012  1.0000
  H   H9        1.0  0.71792  0.80822  0.38663  1.0000
  H   H10       1.0  0.91033  0.19174  0.11358  1.0000
  H   H11       1.0  0.28207  0.19173  0.61336  1.0000
  H   H12       1.0  0.08970  0.80830  0.88644  1.0000
  H   H13       1.0  0.00098  0.78555  0.31782  1.0000
  H   H14       1.0  0.21640  0.21434  0.18215  1.0000
  H   H15       1.0  0.99904  0.21442  0.68217  1.0000
  H   H16       1.0  0.78362  0.78567  0.81786  1.0000
  H   H17       1.0  0.77918  0.24754  0.51202  1.0000
  H   H18       1.0  0.53098  0.75244  0.98814  1.0000
  H   H19       1.0  0.22078  0.75241  0.48797  1.0000
  H   H20       1.0  0.46904  0.24763  0.01186  1.0000
  C   C1        1.0  0.23810  0.22275  0.38685  1.0000
  C   C2        1.0  0.01496  0.77712  0.11315  1.0000
  C   C3        1.0  0.76187  0.77723  0.61315  1.0000
  C   C4        1.0  0.98504  0.22291  0.88684  1.0000
  C   C5        1.0  0.08837  0.24785  0.42688  1.0000
  C   C6        1.0  0.83995  0.75207  0.07320  1.0000
  C   C7        1.0  0.91161  0.75210  0.57312  1.0000
  C   C8        1.0  0.16006  0.24797  0.92679  1.0000
  C   C9        1.0  0.89625  0.09845  0.42718  1.0000
  C   C10       1.0  0.79758  0.90151  0.07299  1.0000
  C   C11       1.0  0.10372  0.90150  0.57282  1.0000
  C   C12       1.0  0.20244  0.09854  0.92701  1.0000
  C   C13       1.0  0.86327  0.92893  0.38649  1.0000
  C   C14       1.0  0.93465  0.07099  0.11367  1.0000
  C   C15       1.0  0.13672  0.07102  0.61351  1.0000
  C   C16       1.0  0.06537  0.92905  0.88634  1.0000
  C   C17       1.0  0.02096  0.91620  0.34829  1.0000
  C   C18       1.0  0.10529  0.08368  0.15175  1.0000
  C   C19       1.0  0.97904  0.08377  0.65172  1.0000
  C   C20       1.0  0.89472  0.91634  0.84826  1.0000
  C   C21       1.0  0.74065  0.11748  0.47434  1.0000
  C   C22       1.0  0.62287  0.88252  0.02579  1.0000
  C   C23       1.0  0.25931  0.88245  0.52566  1.0000
  C   C24       1.0  0.37715  0.11755  0.97421  1.0000
  C   C25       1.0  0.73428  0.40622  0.31434  1.0000
  C   C26       1.0  0.32705  0.59329  0.18617  1.0000
  C   C27       1.0  0.26573  0.59375  0.68566  1.0000
  C   C28       1.0  0.67296  0.40673  0.81383  1.0000
  S   S1        1.0  0.67333  0.31565  0.21242  1.0000
  S   S2        1.0  0.35615  0.68374  0.28809  1.0000
  S   S3        1.0  0.32669  0.68435  0.78758  1.0000
  S   S4        1.0  0.64386  0.31626  0.71190  1.0000
  N   N1        1.0  0.20508  0.05967  0.34826  1.0000
  N   N2        1.0  0.14551  0.94012  0.15175  1.0000
  N   N3        1.0  0.79492  0.94031  0.65174  1.0000
  N   N4        1.0  0.85450  0.05990  0.84825  1.0000
  N   N5        1.0  0.56243  0.98085  0.47367  1.0000
  N   N6        1.0  0.58159  0.01916  0.02637  1.0000
  N   N7        1.0  0.43753  0.01908  0.52632  1.0000
  N   N8        1.0  0.41844  0.98092  0.97363  1.0000
  N   N9        1.0  0.78097  0.47453  0.38574  1.0000
  N   N10       1.0  0.30588  0.52514  0.11478  1.0000
  N   N11       1.0  0.21904  0.52544  0.61428  1.0000
  N   N12       1.0  0.69414  0.47489  0.88520  1.0000
