data_image0
_chemical_formula_structural       Hg4H40C48Br8N16
_chemical_formula_sum              "Hg4 H40 C48 Br8 N16"
_cell_length_a       8.34263
_cell_length_b       11.8211
_cell_length_c       14.8982
_cell_angle_alpha    89.9996
_cell_angle_beta     89.9996
_cell_angle_gamma    89.9997

_space_group_name_H-M_alt    "P 1"
_space_group_IT_number       1

loop_
  _space_group_symop_operation_xyz
  'x, y, z'

loop_
  _atom_site_type_symbol
  _atom_site_label
  _atom_site_symmetry_multiplicity
  _atom_site_fract_x
  _atom_site_fract_y
  _atom_site_fract_z
  _atom_site_occupancy
  Hg  Hg1       1.0  0.78260  0.94676  0.25000  1.0000
  Hg  Hg2       1.0  0.71740  0.44676  0.75000  1.0000
  Hg  Hg3       1.0  0.21740  0.05324  0.75000  1.0000
  Hg  Hg4       1.0  0.28260  0.55324  0.25000  1.0000
  H   H1        1.0  0.73478  0.17625  0.36978  1.0000
  H   H2        1.0  0.76522  0.67625  0.63022  1.0000
  H   H3        1.0  0.26522  0.82376  0.86978  1.0000
  H   H4        1.0  0.23477  0.32375  0.13023  1.0000
  H   H5        1.0  0.26522  0.82376  0.63023  1.0000
  H   H6        1.0  0.23478  0.32376  0.36978  1.0000
  H   H7        1.0  0.73478  0.17624  0.13022  1.0000
  H   H8        1.0  0.76522  0.67624  0.86977  1.0000
  H   H9        1.0  0.54742  0.27933  0.47544  1.0000
  H   H10       1.0  0.95258  0.77933  0.52455  1.0000
  H   H11       1.0  0.45257  0.72068  0.97545  1.0000
  H   H12       1.0  0.04743  0.22067  0.02456  1.0000
  H   H13       1.0  0.45258  0.72068  0.52456  1.0000
  H   H14       1.0  0.04742  0.22067  0.47544  1.0000
  H   H15       1.0  0.54742  0.27933  0.02456  1.0000
  H   H16       1.0  0.95257  0.77932  0.97544  1.0000
  H   H17       1.0  0.29059  0.18449  0.51895  1.0000
  H   H18       1.0  0.20942  0.68449  0.48105  1.0000
  H   H19       1.0  0.70940  0.81551  0.01896  1.0000
  H   H20       1.0  0.79060  0.31551  0.98104  1.0000
  H   H21       1.0  0.70941  0.81551  0.48105  1.0000
  H   H22       1.0  0.79059  0.31550  0.51895  1.0000
  H   H23       1.0  0.29059  0.18450  0.98105  1.0000
  H   H24       1.0  0.20940  0.68449  0.01895  1.0000
  H   H25       1.0  0.41700  0.90970  0.34136  1.0000
  H   H26       1.0  0.08300  0.40970  0.65864  1.0000
  H   H27       1.0  0.58301  0.09030  0.84136  1.0000
  H   H28       1.0  0.91699  0.59031  0.15864  1.0000
  H   H29       1.0  0.58300  0.09030  0.65864  1.0000
  H   H30       1.0  0.91699  0.59030  0.34136  1.0000
  H   H31       1.0  0.41699  0.90970  0.15864  1.0000
  H   H32       1.0  0.08301  0.40969  0.84136  1.0000
  H   H33       1.0  0.15202  0.90699  0.40981  1.0000
  H   H34       1.0  0.34798  0.40699  0.59019  1.0000
  H   H35       1.0  0.84798  0.09300  0.90981  1.0000
  H   H36       1.0  0.65202  0.59301  0.09018  1.0000
  H   H37       1.0  0.84798  0.09301  0.59019  1.0000
  H   H38       1.0  0.65202  0.59301  0.40981  1.0000
  H   H39       1.0  0.15202  0.90699  0.09019  1.0000
  H   H40       1.0  0.34799  0.40699  0.90981  1.0000
  C   C1        1.0  0.61911  0.14048  0.38925  1.0000
  C   C2        1.0  0.88089  0.64048  0.61074  1.0000
  C   C3        1.0  0.38089  0.85952  0.88926  1.0000
  C   C4        1.0  0.11911  0.35951  0.11075  1.0000
  C   C5        1.0  0.38089  0.85952  0.61075  1.0000
  C   C6        1.0  0.11911  0.35952  0.38925  1.0000
  C   C7        1.0  0.61911  0.14048  0.11075  1.0000
  C   C8        1.0  0.88089  0.64048  0.88925  1.0000
  C   C9        1.0  0.51578  0.19662  0.44799  1.0000
  C   C10       1.0  0.98422  0.69663  0.55201  1.0000
  C   C11       1.0  0.48421  0.80338  0.94799  1.0000
  C   C12       1.0  0.01579  0.30338  0.05201  1.0000
  C   C13       1.0  0.48422  0.80338  0.55202  1.0000
  C   C14       1.0  0.01578  0.30338  0.44799  1.0000
  C   C15       1.0  0.51578  0.19663  0.05202  1.0000
  C   C16       1.0  0.98421  0.69662  0.94798  1.0000
  C   C17       1.0  0.37150  0.14554  0.47055  1.0000
  C   C18       1.0  0.12850  0.64554  0.52944  1.0000
  C   C19       1.0  0.62849  0.85447  0.97056  1.0000
  C   C20       1.0  0.87151  0.35446  0.02944  1.0000
  C   C21       1.0  0.62850  0.85447  0.52945  1.0000
  C   C22       1.0  0.87150  0.35446  0.47055  1.0000
  C   C23       1.0  0.37150  0.14554  0.02944  1.0000
  C   C24       1.0  0.12849  0.64554  0.97055  1.0000
  C   C25       1.0  0.32976  0.04186  0.43054  1.0000
  C   C26       1.0  0.17024  0.54186  0.56946  1.0000
  C   C27       1.0  0.67024  0.95814  0.93054  1.0000
  C   C28       1.0  0.82976  0.45813  0.06946  1.0000
  C   C29       1.0  0.67024  0.95814  0.56946  1.0000
  C   C30       1.0  0.82976  0.45814  0.43054  1.0000
  C   C31       1.0  0.32976  0.04186  0.06946  1.0000
  C   C32       1.0  0.17024  0.54186  0.93054  1.0000
  C   C33       1.0  0.44215  0.99138  0.37292  1.0000
  C   C34       1.0  0.05786  0.49138  0.62708  1.0000
  C   C35       1.0  0.55786  0.00862  0.87292  1.0000
  C   C36       1.0  0.94215  0.50862  0.12707  1.0000
  C   C37       1.0  0.55785  0.00862  0.62708  1.0000
  C   C38       1.0  0.94215  0.50862  0.37292  1.0000
  C   C39       1.0  0.44214  0.99138  0.12708  1.0000
  C   C40       1.0  0.05786  0.49138  0.87292  1.0000
  C   C41       1.0  0.17647  0.98648  0.44560  1.0000
  C   C42       1.0  0.32353  0.48648  0.55440  1.0000
  C   C43       1.0  0.82353  0.01351  0.94560  1.0000
  C   C44       1.0  0.67647  0.51352  0.05439  1.0000
  C   C45       1.0  0.82353  0.01352  0.55440  1.0000
  C   C46       1.0  0.67647  0.51351  0.44560  1.0000
  C   C47       1.0  0.17647  0.98648  0.05440  1.0000
  C   C48       1.0  0.32353  0.48648  0.94560  1.0000
  Br  Br1       1.0  0.67181  0.74787  0.25000  1.0000
  Br  Br2       1.0  0.82819  0.24788  0.75000  1.0000
  Br  Br3       1.0  0.32819  0.25213  0.75000  1.0000
  Br  Br4       1.0  0.17180  0.75212  0.25001  1.0000
  Br  Br5       1.0  0.00006  0.09467  0.25000  1.0000
  Br  Br6       1.0  0.49994  0.59467  0.75000  1.0000
  Br  Br7       1.0  0.99994  0.90533  0.75000  1.0000
  Br  Br8       1.0  0.50006  0.40533  0.25000  1.0000
  N   N1        1.0  0.58394  0.03885  0.35434  1.0000
  N   N2        1.0  0.91606  0.53885  0.64566  1.0000
  N   N3        1.0  0.41606  0.96115  0.85435  1.0000
  N   N4        1.0  0.08394  0.46115  0.14566  1.0000
  N   N5        1.0  0.41606  0.96115  0.64566  1.0000
  N   N6        1.0  0.08394  0.46115  0.35434  1.0000
  N   N7        1.0  0.58394  0.03885  0.14566  1.0000
  N   N8        1.0  0.91606  0.53884  0.85434  1.0000
  N   N9        1.0  0.07020  0.03118  0.49816  1.0000
  N   N10       1.0  0.42981  0.53118  0.50184  1.0000
  N   N11       1.0  0.92981  0.96881  0.99815  1.0000
  N   N12       1.0  0.57019  0.46882  0.00184  1.0000
  N   N13       1.0  0.92981  0.96882  0.50185  1.0000
  N   N14       1.0  0.57019  0.46881  0.49815  1.0000
  N   N15       1.0  0.07019  0.03118  0.00184  1.0000
  N   N16       1.0  0.42981  0.53118  0.99815  1.0000
