data_image0
_chemical_formula_structural       Hg2H10C12Br4N4
_chemical_formula_sum              "Hg2 H10 C12 Br4 N4"
_cell_length_a       4.17427
_cell_length_b       9.21685
_cell_length_c       11.5751
_cell_angle_alpha    88.0847
_cell_angle_beta     88.9159
_cell_angle_gamma    86.0557

_space_group_name_H-M_alt    "P 1"
_space_group_IT_number       1

loop_
  _space_group_symop_operation_xyz
  'x, y, z'

loop_
  _atom_site_type_symbol
  _atom_site_label
  _atom_site_symmetry_multiplicity
  _atom_site_fract_x
  _atom_site_fract_y
  _atom_site_fract_z
  _atom_site_occupancy
  Hg  Hg1       1.0  0.10484  0.13517  0.22019  1.0000
  Hg  Hg2       1.0  0.89516  0.86483  0.77981  1.0000
  H   H1        1.0  0.85339  0.91065  0.40789  1.0000
  H   H2        1.0  0.14662  0.08936  0.59211  1.0000
  H   H3        1.0  0.90618  0.64909  0.46765  1.0000
  H   H4        1.0  0.09384  0.35092  0.53236  1.0000
  H   H5        1.0  0.23940  0.47282  0.34058  1.0000
  H   H6        1.0  0.76060  0.52718  0.65942  1.0000
  H   H7        1.0  0.49336  0.57181  0.16099  1.0000
  H   H8        1.0  0.50664  0.42818  0.83902  1.0000
  H   H9        1.0  0.59834  0.76818  0.03107  1.0000
  H   H10       1.0  0.40165  0.23181  0.96893  1.0000
  C   C1        1.0  0.99413  0.83213  0.35553  1.0000
  C   C2        1.0  0.00587  0.16787  0.64447  1.0000
  C   C3        1.0  0.02615  0.68449  0.38835  1.0000
  C   C4        1.0  0.97387  0.31552  0.61165  1.0000
  C   C5        1.0  0.20729  0.58883  0.31857  1.0000
  C   C6        1.0  0.79272  0.41117  0.68143  1.0000
  C   C7        1.0  0.35059  0.64373  0.21800  1.0000
  C   C8        1.0  0.64942  0.35627  0.78200  1.0000
  C   C9        1.0  0.30811  0.79243  0.18956  1.0000
  C   C10       1.0  0.69189  0.20757  0.81044  1.0000
  C   C11       1.0  0.45642  0.84719  0.08322  1.0000
  C   C12       1.0  0.54357  0.15281  0.91678  1.0000
  Br  Br1       1.0  0.55072  0.18211  0.38086  1.0000
  Br  Br2       1.0  0.44927  0.81790  0.61913  1.0000
  Br  Br3       1.0  0.93548  0.35605  0.09308  1.0000
  Br  Br4       1.0  0.06449  0.64394  0.90691  1.0000
  N   N1        1.0  0.12987  0.88432  0.25862  1.0000
  N   N2        1.0  0.87015  0.11568  0.74138  1.0000
  N   N3        1.0  0.42494  0.98348  0.05199  1.0000
  N   N4        1.0  0.57504  0.01651  0.94801  1.0000
