data_image0
_chemical_formula_structural       Hg4H40C48Br8N16
_chemical_formula_sum              "Hg4 H40 C48 Br8 N16"
_cell_length_a       4.94937
_cell_length_b       12.9204
_cell_length_c       23.3017
_cell_angle_alpha    90.0002
_cell_angle_beta     89.9997
_cell_angle_gamma    93.3117

_space_group_name_H-M_alt    "P 1"
_space_group_IT_number       1

loop_
  _space_group_symop_operation_xyz
  'x, y, z'

loop_
  _atom_site_type_symbol
  _atom_site_label
  _atom_site_symmetry_multiplicity
  _atom_site_fract_x
  _atom_site_fract_y
  _atom_site_fract_z
  _atom_site_occupancy
  Hg  Hg1       1.0  0.89572  0.75903  0.60590  1.0000
  Hg  Hg2       1.0  0.60428  0.74097  0.10591  1.0000
  Hg  Hg3       1.0  0.10428  0.24098  0.39409  1.0000
  Hg  Hg4       1.0  0.39572  0.25903  0.89410  1.0000
  H   H1        1.0  0.68734  0.94672  0.68888  1.0000
  H   H2        1.0  0.81266  0.55328  0.18889  1.0000
  H   H3        1.0  0.31266  0.05328  0.31111  1.0000
  H   H4        1.0  0.18734  0.44672  0.81111  1.0000
  H   H5        1.0  0.35190  0.98277  0.76661  1.0000
  H   H6        1.0  0.14809  0.51723  0.26661  1.0000
  H   H7        1.0  0.64809  0.01723  0.23340  1.0000
  H   H8        1.0  0.85191  0.48277  0.73339  1.0000
  H   H9        1.0  0.10303  0.65717  0.76387  1.0000
  H   H10       1.0  0.39697  0.84283  0.26387  1.0000
  H   H11       1.0  0.89698  0.34283  0.23613  1.0000
  H   H12       1.0  0.60303  0.15717  0.73613  1.0000
  H   H13       1.0  0.45925  0.63385  0.68873  1.0000
  H   H14       1.0  0.04075  0.86615  0.18873  1.0000
  H   H15       1.0  0.54075  0.36615  0.31127  1.0000
  H   H16       1.0  0.95925  0.13385  0.81127  1.0000
  H   H17       1.0  0.99082  0.91946  0.83323  1.0000
  H   H18       1.0  0.50918  0.58053  0.33323  1.0000
  H   H19       1.0  0.00917  0.08053  0.16677  1.0000
  H   H20       1.0  0.49083  0.41946  0.66677  1.0000
  H   H21       1.0  0.50752  0.64322  0.87133  1.0000
  H   H22       1.0  0.99247  0.85679  0.37133  1.0000
  H   H23       1.0  0.49248  0.35678  0.12867  1.0000
  H   H24       1.0  0.00752  0.14322  0.62867  1.0000
  H   H25       1.0  0.04882  0.89269  0.03639  1.0000
  H   H26       1.0  0.45118  0.60731  0.53638  1.0000
  H   H27       1.0  0.95119  0.10731  0.96362  1.0000
  H   H28       1.0  0.54883  0.39269  0.46362  1.0000
  H   H29       1.0  0.40376  0.89003  0.95960  1.0000
  H   H30       1.0  0.09624  0.60997  0.45960  1.0000
  H   H31       1.0  0.59624  0.10997  0.04040  1.0000
  H   H32       1.0  0.90376  0.39003  0.54040  1.0000
  H   H33       1.0  0.13456  0.57095  0.92690  1.0000
  H   H34       1.0  0.36543  0.92905  0.42690  1.0000
  H   H35       1.0  0.86543  0.42906  0.07310  1.0000
  H   H36       1.0  0.63457  0.07095  0.57310  1.0000
  H   H37       1.0  0.79506  0.58656  0.00561  1.0000
  H   H38       1.0  0.70492  0.91344  0.50561  1.0000
  H   H39       1.0  0.20493  0.41345  0.99439  1.0000
  H   H40       1.0  0.29508  0.08656  0.49439  1.0000
  C   C1        1.0  0.55512  0.88486  0.70741  1.0000
  C   C2        1.0  0.94487  0.61514  0.20741  1.0000
  C   C3        1.0  0.44488  0.11514  0.29259  1.0000
  C   C4        1.0  0.05513  0.38486  0.79259  1.0000
  C   C5        1.0  0.36699  0.90450  0.74988  1.0000
  C   C6        1.0  0.13300  0.59550  0.24988  1.0000
  C   C7        1.0  0.63300  0.09550  0.25012  1.0000
  C   C8        1.0  0.86699  0.40450  0.75012  1.0000
  C   C9        1.0  0.19891  0.82219  0.77120  1.0000
  C   C10       1.0  0.30108  0.67781  0.27121  1.0000
  C   C11       1.0  0.80108  0.17781  0.22879  1.0000
  C   C12       1.0  0.69892  0.32219  0.72879  1.0000
  C   C13       1.0  0.23154  0.72272  0.74875  1.0000
  C   C14       1.0  0.26846  0.77728  0.24875  1.0000
  C   C15       1.0  0.76846  0.27728  0.25125  1.0000
  C   C16       1.0  0.73155  0.22272  0.75125  1.0000
  C   C17       1.0  0.42757  0.70974  0.70729  1.0000
  C   C18       1.0  0.07242  0.79026  0.20729  1.0000
  C   C19       1.0  0.57243  0.29026  0.29271  1.0000
  C   C20       1.0  0.92758  0.20974  0.79271  1.0000
  C   C21       1.0  0.99944  0.84084  0.81559  1.0000
  C   C22       1.0  0.50058  0.65917  0.31559  1.0000
  C   C23       1.0  0.00057  0.15917  0.18441  1.0000
  C   C24       1.0  0.49944  0.34083  0.68441  1.0000
  C   C25       1.0  0.49924  0.71935  0.89215  1.0000
  C   C26       1.0  0.00075  0.78066  0.39215  1.0000
  C   C27       1.0  0.50076  0.28065  0.10785  1.0000
  C   C28       1.0  0.99924  0.21934  0.60786  1.0000
  C   C29       1.0  0.07611  0.82316  0.01095  1.0000
  C   C30       1.0  0.42389  0.67684  0.51094  1.0000
  C   C31       1.0  0.92390  0.17684  0.98906  1.0000
  C   C32       1.0  0.57611  0.32316  0.48906  1.0000
  C   C33       1.0  0.27270  0.82137  0.96853  1.0000
  C   C34       1.0  0.22729  0.67862  0.46852  1.0000
  C   C35       1.0  0.72730  0.17863  0.03148  1.0000
  C   C36       1.0  0.77272  0.32137  0.53148  1.0000
  C   C37       1.0  0.29877  0.72955  0.93719  1.0000
  C   C38       1.0  0.20122  0.77045  0.43719  1.0000
  C   C39       1.0  0.70122  0.27045  0.06281  1.0000
  C   C40       1.0  0.79877  0.22955  0.56281  1.0000
  C   C41       1.0  0.12300  0.64366  0.95023  1.0000
  C   C42       1.0  0.37699  0.85634  0.45023  1.0000
  C   C43       1.0  0.87699  0.35634  0.04977  1.0000
  C   C44       1.0  0.62301  0.14367  0.54977  1.0000
  C   C45       1.0  0.93419  0.65178  0.99391  1.0000
  C   C46       1.0  0.56580  0.84822  0.49391  1.0000
  C   C47       1.0  0.06580  0.34822  0.00609  1.0000
  C   C48       1.0  0.43420  0.15178  0.50609  1.0000
  Br  Br1       1.0  0.10785  0.94232  0.59800  1.0000
  Br  Br2       1.0  0.39217  0.55767  0.09802  1.0000
  Br  Br3       1.0  0.89216  0.05767  0.40199  1.0000
  Br  Br4       1.0  0.60784  0.44233  0.90199  1.0000
  Br  Br5       1.0  0.93456  0.56469  0.61731  1.0000
  Br  Br6       1.0  0.56544  0.93530  0.11730  1.0000
  Br  Br7       1.0  0.06544  0.43531  0.38270  1.0000
  Br  Br8       1.0  0.43456  0.06469  0.88269  1.0000
  N   N1        1.0  0.58576  0.78946  0.68673  1.0000
  N   N2        1.0  0.91424  0.71054  0.18673  1.0000
  N   N3        1.0  0.41424  0.21054  0.31327  1.0000
  N   N4        1.0  0.08577  0.28946  0.81327  1.0000
  N   N5        1.0  0.83978  0.76531  0.83415  1.0000
  N   N6        1.0  0.66022  0.73469  0.33415  1.0000
  N   N7        1.0  0.16023  0.23469  0.16585  1.0000
  N   N8        1.0  0.33976  0.26531  0.66585  1.0000
  N   N9        1.0  0.66533  0.79549  0.87687  1.0000
  N   N10       1.0  0.83467  0.70451  0.37687  1.0000
  N   N11       1.0  0.33468  0.20451  0.12313  1.0000
  N   N12       1.0  0.16532  0.29549  0.62313  1.0000
  N   N13       1.0  0.91181  0.73964  0.02372  1.0000
  N   N14       1.0  0.58817  0.76036  0.52372  1.0000
  N   N15       1.0  0.08818  0.26036  0.97628  1.0000
  N   N16       1.0  0.41182  0.23964  0.47628  1.0000
