data_image0
_chemical_formula_structural       Zn2H24C24N8O8
_chemical_formula_sum              "Zn2 H24 C24 N8 O8"
_cell_length_a       6.84898
_cell_length_b       7.14495
_cell_length_c       14.0689
_cell_angle_alpha    99.6501
_cell_angle_beta     92.5864
_cell_angle_gamma    93.1376

_space_group_name_H-M_alt    "P 1"
_space_group_IT_number       1

loop_
  _space_group_symop_operation_xyz
  'x, y, z'

loop_
  _atom_site_type_symbol
  _atom_site_label
  _atom_site_symmetry_multiplicity
  _atom_site_fract_x
  _atom_site_fract_y
  _atom_site_fract_z
  _atom_site_occupancy
  Zn  Zn1       1.0  0.28031  0.68552  0.74792  1.0000
  Zn  Zn2       1.0  0.71969  0.31448  0.25208  1.0000
  H   H1        1.0  0.90848  0.89048  0.74435  1.0000
  H   H2        1.0  0.09151  0.10952  0.25565  1.0000
  H   H3        1.0  0.76681  0.17419  0.83963  1.0000
  H   H4        1.0  0.23319  0.82581  0.16037  1.0000
  H   H5        1.0  0.29837  0.25486  0.02311  1.0000
  H   H6        1.0  0.70163  0.74514  0.97689  1.0000
  H   H7        1.0  0.41911  0.97267  0.91944  1.0000
  H   H8        1.0  0.58089  0.02733  0.08056  1.0000
  H   H9        1.0  0.93494  0.38298  0.07573  1.0000
  H   H10       1.0  0.06506  0.61702  0.92427  1.0000
  H   H11       1.0  0.78641  0.42018  0.97489  1.0000
  H   H12       1.0  0.21359  0.57982  0.02511  1.0000
  H   H13       1.0  0.54367  0.52193  0.59795  1.0000
  H   H14       1.0  0.45634  0.47807  0.40205  1.0000
  H   H15       1.0  0.78018  0.63389  0.48666  1.0000
  H   H16       1.0  0.21983  0.36611  0.51335  1.0000
  H   H17       1.0  0.68067  0.20967  0.61884  1.0000
  H   H18       1.0  0.31932  0.79033  0.38116  1.0000
  H   H19       1.0  0.44290  0.07622  0.72051  1.0000
  H   H20       1.0  0.55710  0.92378  0.27948  1.0000
  H   H21       1.0  0.87084  0.15451  0.47293  1.0000
  H   H22       1.0  0.12916  0.84549  0.52707  1.0000
  H   H23       1.0  0.87843  0.92063  0.40609  1.0000
  H   H24       1.0  0.12158  0.07937  0.59391  1.0000
  C   C1        1.0  0.98964  0.97593  0.80658  1.0000
  C   C2        1.0  0.01036  0.02407  0.19342  1.0000
  C   C3        1.0  0.91104  0.13214  0.86040  1.0000
  C   C4        1.0  0.08896  0.86786  0.13960  1.0000
  C   C5        1.0  0.01899  0.23783  0.94046  1.0000
  C   C6        1.0  0.98101  0.76217  0.05954  1.0000
  C   C7        1.0  0.20555  0.17901  0.96212  1.0000
  C   C8        1.0  0.79444  0.82099  0.03788  1.0000
  C   C9        1.0  0.27494  0.02223  0.90457  1.0000
  C   C10       1.0  0.72505  0.97777  0.09543  1.0000
  C   C11       1.0  0.93786  0.40670  0.00062  1.0000
  C   C12       1.0  0.06214  0.59330  0.99938  1.0000
  C   C13       1.0  0.57622  0.67302  0.59879  1.0000
  C   C14       1.0  0.42379  0.32698  0.40121  1.0000
  C   C15       1.0  0.70745  0.73683  0.53716  1.0000
  C   C16       1.0  0.29256  0.26318  0.46284  1.0000
  C   C17       1.0  0.74796  0.93273  0.54211  1.0000
  C   C18       1.0  0.25205  0.06726  0.45789  1.0000
  C   C19       1.0  0.65261  0.05595  0.61034  1.0000
  C   C20       1.0  0.34739  0.94405  0.38965  1.0000
  C   C21       1.0  0.52120  0.98148  0.66878  1.0000
  C   C22       1.0  0.47880  0.01852  0.33122  1.0000
  C   C23       1.0  0.89457  0.00611  0.47907  1.0000
  C   C24       1.0  0.10543  0.99390  0.52093  1.0000
  N   N1        1.0  0.49558  0.44765  0.82985  1.0000
  N   N2        1.0  0.50442  0.55235  0.17015  1.0000
  N   N3        1.0  0.94644  0.47665  0.67112  1.0000
  N   N4        1.0  0.05356  0.52335  0.32888  1.0000
  N   N5        1.0  0.48320  0.79285  0.66359  1.0000
  N   N6        1.0  0.51680  0.20715  0.33641  1.0000
  N   N7        1.0  0.16955  0.92100  0.82773  1.0000
  N   N8        1.0  0.83045  0.07900  0.17226  1.0000
  O   O1        1.0  0.41285  0.39280  0.74710  1.0000
  O   O2        1.0  0.58715  0.60720  0.25291  1.0000
  O   O3        1.0  0.46349  0.61942  0.86549  1.0000
  O   O4        1.0  0.53650  0.38058  0.13451  1.0000
  O   O5        1.0  0.96089  0.49484  0.76089  1.0000
  O   O6        1.0  0.03911  0.50516  0.23911  1.0000
  O   O7        1.0  0.08565  0.56730  0.63442  1.0000
  O   O8        1.0  0.91435  0.43270  0.36558  1.0000
