data_image0
_chemical_formula_structural       CuH30C40S2N2O8
_chemical_formula_sum              "Cu1 H30 C40 S2 N2 O8"
_cell_length_a       7.92971
_cell_length_b       9.94946
_cell_length_c       11.351
_cell_angle_alpha    92.8501
_cell_angle_beta     96.0939
_cell_angle_gamma    104.338

_space_group_name_H-M_alt    "P 1"
_space_group_IT_number       1

loop_
  _space_group_symop_operation_xyz
  'x, y, z'

loop_
  _atom_site_type_symbol
  _atom_site_label
  _atom_site_symmetry_multiplicity
  _atom_site_fract_x
  _atom_site_fract_y
  _atom_site_fract_z
  _atom_site_occupancy
  Cu  Cu1       1.0  0.50000  0.00000  0.00000  1.0000
  H   H1        1.0  0.29299  0.49541  0.07173  1.0000
  H   H2        1.0  0.70701  0.50459  0.92826  1.0000
  H   H3        1.0  0.88715  0.68481  0.92204  1.0000
  H   H4        1.0  0.11285  0.31519  0.07797  1.0000
  H   H5        1.0  0.11514  0.90131  0.92663  1.0000
  H   H6        1.0  0.88486  0.09870  0.07338  1.0000
  H   H7        1.0  0.73473  0.21193  0.37583  1.0000
  H   H8        1.0  0.26527  0.78807  0.62416  1.0000
  H   H9        1.0  0.05463  0.23610  0.41953  1.0000
  H   H10       1.0  0.94536  0.76390  0.58046  1.0000
  H   H11       1.0  0.26644  0.45603  0.38242  1.0000
  H   H12       1.0  0.73356  0.54397  0.61758  1.0000
  H   H13       1.0  0.15664  0.64774  0.29781  1.0000
  H   H14       1.0  0.84336  0.35226  0.70219  1.0000
  H   H15       1.0  0.50345  0.72035  0.06685  1.0000
  H   H16       1.0  0.49655  0.27966  0.93314  1.0000
  H   H17       1.0  0.51574  0.39241  0.53509  1.0000
  H   H18       1.0  0.48425  0.60759  0.46491  1.0000
  H   H19       1.0  0.38194  0.20915  0.65978  1.0000
  H   H20       1.0  0.61805  0.79085  0.34022  1.0000
  H   H21       1.0  0.22522  0.97215  0.56632  1.0000
  H   H22       1.0  0.77478  0.02785  0.43369  1.0000
  H   H23       1.0  0.22600  0.91620  0.35060  1.0000
  H   H24       1.0  0.77401  0.08380  0.64941  1.0000
  H   H25       1.0  0.83887  0.85203  0.08932  1.0000
  H   H26       1.0  0.16113  0.14798  0.91069  1.0000
  H   H27       1.0  0.00936  0.97030  0.18842  1.0000
  H   H28       1.0  0.99064  0.02970  0.81158  1.0000
  H   H29       1.0  0.78957  0.91718  0.22766  1.0000
  H   H30       1.0  0.21043  0.08282  0.77234  1.0000
  C   C1        1.0  0.24452  0.58108  0.03800  1.0000
  C   C2        1.0  0.75548  0.41892  0.96199  1.0000
  C   C3        1.0  0.06652  0.56653  0.99826  1.0000
  C   C4        1.0  0.93348  0.43347  0.00174  1.0000
  C   C5        1.0  0.02086  0.68462  0.95566  1.0000
  C   C6        1.0  0.97914  0.31538  0.04434  1.0000
  C   C7        1.0  0.14914  0.80825  0.95646  1.0000
  C   C8        1.0  0.85085  0.19175  0.04354  1.0000
  C   C9        1.0  0.88426  0.53892  0.28850  1.0000
  C   C10       1.0  0.11574  0.46108  0.71150  1.0000
  C   C11       1.0  0.76270  0.41516  0.31205  1.0000
  C   C12       1.0  0.23730  0.58484  0.68795  1.0000
  C   C13       1.0  0.82763  0.30759  0.35944  1.0000
  C   C14       1.0  0.17237  0.69241  0.64056  1.0000
  C   C15       1.0  0.00686  0.32170  0.38408  1.0000
  C   C16       1.0  0.99314  0.67830  0.61592  1.0000
  C   C17       1.0  0.12626  0.44479  0.36309  1.0000
  C   C18       1.0  0.87374  0.55521  0.63690  1.0000
  C   C19       1.0  0.06495  0.55206  0.31591  1.0000
  C   C20       1.0  0.93505  0.44794  0.68409  1.0000
  C   C21       1.0  0.82182  0.65073  0.23261  1.0000
  C   C22       1.0  0.17818  0.34927  0.76740  1.0000
  C   C23       1.0  0.36564  0.70798  0.03528  1.0000
  C   C24       1.0  0.63435  0.29202  0.96472  1.0000
  C   C25       1.0  0.45008  0.25870  0.37210  1.0000
  C   C26       1.0  0.54992  0.74130  0.62790  1.0000
  C   C27       1.0  0.45307  0.28800  0.49448  1.0000
  C   C28       1.0  0.54693  0.71200  0.50552  1.0000
  C   C29       1.0  0.37506  0.18489  0.56451  1.0000
  C   C30       1.0  0.62493  0.81511  0.43549  1.0000
  C   C31       1.0  0.28947  0.05209  0.51205  1.0000
  C   C32       1.0  0.71053  0.94791  0.48796  1.0000
  C   C33       1.0  0.28818  0.02097  0.39086  1.0000
  C   C34       1.0  0.71182  0.97903  0.60914  1.0000
  C   C35       1.0  0.36925  0.12387  0.32032  1.0000
  C   C36       1.0  0.63075  0.87613  0.67968  1.0000
  C   C37       1.0  0.37744  0.08821  0.19113  1.0000
  C   C38       1.0  0.62257  0.91179  0.80888  1.0000
  C   C39       1.0  0.89062  0.88505  0.18251  1.0000
  C   C40       1.0  0.10938  0.11495  0.81750  1.0000
  S   S1        1.0  0.53430  0.39579  0.28181  1.0000
  S   S2        1.0  0.46570  0.60421  0.71819  1.0000
  N   N1        1.0  0.31867  0.82042  0.99602  1.0000
  N   N2        1.0  0.68133  0.17958  0.00398  1.0000
  O   O1        1.0  0.50218  0.02936  0.17421  1.0000
  O   O2        1.0  0.49782  0.97063  0.82579  1.0000
  O   O3        1.0  0.27120  0.11389  0.11107  1.0000
  O   O4        1.0  0.72880  0.88611  0.88894  1.0000
  O   O5        1.0  0.67196  0.63492  0.18202  1.0000
  O   O6        1.0  0.32804  0.36509  0.81799  1.0000
  O   O7        1.0  0.94460  0.77374  0.24096  1.0000
  O   O8        1.0  0.05540  0.22626  0.75904  1.0000
