data_image0
_chemical_formula_structural       Ni4H24C32N16O16
_chemical_formula_sum              "Ni4 H24 C32 N16 O16"
_cell_length_a       7.21537
_cell_length_b       7.429
_cell_length_c       18.1061
_cell_angle_alpha    90.0001
_cell_angle_beta     90.0002
_cell_angle_gamma    89.9996

_space_group_name_H-M_alt    "P 1"
_space_group_IT_number       1

loop_
  _space_group_symop_operation_xyz
  'x, y, z'

loop_
  _atom_site_type_symbol
  _atom_site_label
  _atom_site_symmetry_multiplicity
  _atom_site_fract_x
  _atom_site_fract_y
  _atom_site_fract_z
  _atom_site_occupancy
  Ni  Ni1       1.0  1.00000  0.50000  0.50000  1.0000
  Ni  Ni2       1.0  1.00000  0.00000  1.00000  1.0000
  Ni  Ni3       1.0  0.50000  0.00000  1.00000  1.0000
  Ni  Ni4       1.0  0.50000  0.50000  0.50000  1.0000
  H   H1        1.0  0.04882  0.48436  0.27192  1.0000
  H   H2        1.0  0.95117  0.01564  0.77191  1.0000
  H   H3        1.0  0.45118  0.98437  0.22808  1.0000
  H   H4        1.0  0.54883  0.51564  0.72808  1.0000
  H   H5        1.0  0.95118  0.51563  0.72808  1.0000
  H   H6        1.0  0.04883  0.98436  0.22808  1.0000
  H   H7        1.0  0.54882  0.01563  0.77192  1.0000
  H   H8        1.0  0.45117  0.48436  0.27192  1.0000
  H   H9        1.0  0.03808  0.51737  0.13343  1.0000
  H   H10       1.0  0.96192  0.98263  0.63342  1.0000
  H   H11       1.0  0.46192  0.01737  0.36657  1.0000
  H   H12       1.0  0.53808  0.48263  0.86657  1.0000
  H   H13       1.0  0.96192  0.48263  0.86657  1.0000
  H   H14       1.0  0.03808  0.01737  0.36657  1.0000
  H   H15       1.0  0.53808  0.98263  0.63343  1.0000
  H   H16       1.0  0.46192  0.51737  0.13343  1.0000
  H   H17       1.0  0.62557  0.59821  0.03102  1.0000
  H   H18       1.0  0.37443  0.90179  0.53102  1.0000
  H   H19       1.0  0.87443  0.09821  0.46899  1.0000
  H   H20       1.0  0.12557  0.40179  0.96898  1.0000
  H   H21       1.0  0.37443  0.40179  0.96899  1.0000
  H   H22       1.0  0.62557  0.09821  0.46899  1.0000
  H   H23       1.0  0.12557  0.90179  0.53102  1.0000
  H   H24       1.0  0.87443  0.59821  0.03102  1.0000
  C   C1        1.0  0.74999  0.45711  0.36511  1.0000
  C   C2        1.0  0.24999  0.04289  0.86511  1.0000
  C   C3        1.0  0.75001  0.95712  0.13489  1.0000
  C   C4        1.0  0.25001  0.54289  0.63489  1.0000
  C   C5        1.0  0.74999  0.47913  0.28198  1.0000
  C   C6        1.0  0.24999  0.02087  0.78198  1.0000
  C   C7        1.0  0.75001  0.97913  0.21802  1.0000
  C   C8        1.0  0.25001  0.52087  0.71802  1.0000
  C   C9        1.0  0.91703  0.49058  0.24290  1.0000
  C   C10       1.0  0.08296  0.00942  0.74290  1.0000
  C   C11       1.0  0.58297  0.99058  0.25710  1.0000
  C   C12       1.0  0.41704  0.50943  0.75710  1.0000
  C   C13       1.0  0.08297  0.50942  0.75710  1.0000
  C   C14       1.0  0.91704  0.99057  0.25710  1.0000
  C   C15       1.0  0.41703  0.00943  0.74290  1.0000
  C   C16       1.0  0.58296  0.49058  0.24290  1.0000
  C   C17       1.0  0.91373  0.51086  0.16709  1.0000
  C   C18       1.0  0.08626  0.98914  0.66708  1.0000
  C   C19       1.0  0.58627  0.01085  0.33291  1.0000
  C   C20       1.0  0.41374  0.48915  0.83291  1.0000
  C   C21       1.0  0.08627  0.48915  0.83291  1.0000
  C   C22       1.0  0.91374  0.01085  0.33291  1.0000
  C   C23       1.0  0.41373  0.98915  0.66709  1.0000
  C   C24       1.0  0.58626  0.51086  0.16709  1.0000
  C   C25       1.0  0.75000  0.52657  0.04934  1.0000
  C   C26       1.0  0.25000  0.97343  0.54934  1.0000
  C   C27       1.0  0.75000  0.02656  0.45066  1.0000
  C   C28       1.0  0.25000  0.47344  0.95066  1.0000
  C   C29       1.0  0.75000  0.33042  0.02124  1.0000
  C   C30       1.0  0.25000  0.16958  0.52124  1.0000
  C   C31       1.0  0.75000  0.83042  0.47876  1.0000
  C   C32       1.0  0.25000  0.66958  0.97876  1.0000
  N   N1        1.0  0.75000  0.42172  0.54584  1.0000
  N   N2        1.0  0.25000  0.07828  0.04584  1.0000
  N   N3        1.0  0.75000  0.92172  0.95416  1.0000
  N   N4        1.0  0.25000  0.57828  0.45416  1.0000
  N   N5        1.0  0.75000  0.33557  0.60207  1.0000
  N   N6        1.0  0.25000  0.16443  0.10207  1.0000
  N   N7        1.0  0.75000  0.83557  0.89793  1.0000
  N   N8        1.0  0.25000  0.66443  0.39793  1.0000
  N   N9        1.0  0.75000  0.25111  0.65670  1.0000
  N   N10       1.0  0.25000  0.24889  0.15670  1.0000
  N   N11       1.0  0.75000  0.75111  0.84330  1.0000
  N   N12       1.0  0.25000  0.74889  0.34330  1.0000
  N   N13       1.0  0.75000  0.51994  0.13045  1.0000
  N   N14       1.0  0.25000  0.98006  0.63045  1.0000
  N   N15       1.0  0.75000  0.01993  0.36955  1.0000
  N   N16       1.0  0.25000  0.48007  0.86955  1.0000
  O   O1        1.0  0.90905  0.44876  0.39481  1.0000
  O   O2        1.0  0.09092  0.05127  0.89480  1.0000
  O   O3        1.0  0.59095  0.94876  0.10519  1.0000
  O   O4        1.0  0.40907  0.55128  0.60520  1.0000
  O   O5        1.0  0.09095  0.55123  0.60519  1.0000
  O   O6        1.0  0.90908  0.94873  0.10520  1.0000
  O   O7        1.0  0.40904  0.05125  0.89481  1.0000
  O   O8        1.0  0.59093  0.44871  0.39480  1.0000
  O   O9        1.0  0.90862  0.26075  0.01271  1.0000
  O   O10       1.0  0.09138  0.23924  0.51270  1.0000
  O   O11       1.0  0.59138  0.76074  0.48729  1.0000
  O   O12       1.0  0.40862  0.73925  0.98729  1.0000
  O   O13       1.0  0.09138  0.73926  0.98729  1.0000
  O   O14       1.0  0.90862  0.76075  0.48730  1.0000
  O   O15       1.0  0.40862  0.23926  0.51271  1.0000
  O   O16       1.0  0.59138  0.26075  0.01271  1.0000
