data_image0
_chemical_formula_structural       Hg2H36C44N8Cl4
_chemical_formula_sum              "Hg2 H36 C44 N8 Cl4"
_cell_length_a       11.1953
_cell_length_b       11.1952
_cell_length_c       14.5583
_cell_angle_alpha    105.366
_cell_angle_beta     105.367
_cell_angle_gamma    100.156

_space_group_name_H-M_alt    "P 1"
_space_group_IT_number       1

loop_
  _space_group_symop_operation_xyz
  'x, y, z'

loop_
  _atom_site_type_symbol
  _atom_site_label
  _atom_site_symmetry_multiplicity
  _atom_site_fract_x
  _atom_site_fract_y
  _atom_site_fract_z
  _atom_site_occupancy
  Hg  Hg1       1.0  0.62546  0.37454  0.75000  1.0000
  Hg  Hg2       1.0  0.37454  0.62546  0.25000  1.0000
  H   H1        1.0  0.30710  0.31803  0.74490  1.0000
  H   H2        1.0  0.68196  0.69290  0.75510  1.0000
  H   H3        1.0  0.69290  0.68197  0.25510  1.0000
  H   H4        1.0  0.31804  0.30710  0.24490  1.0000
  H   H5        1.0  0.10183  0.34460  0.77720  1.0000
  H   H6        1.0  0.65540  0.89817  0.72280  1.0000
  H   H7        1.0  0.89818  0.65540  0.22280  1.0000
  H   H8        1.0  0.34460  0.10182  0.27719  1.0000
  H   H9        1.0  0.10041  0.53135  0.91124  1.0000
  H   H10       1.0  0.46865  0.89959  0.58876  1.0000
  H   H11       1.0  0.89960  0.46865  0.08876  1.0000
  H   H12       1.0  0.53135  0.10040  0.41124  1.0000
  H   H13       1.0  0.30242  0.70295  0.01882  1.0000
  H   H14       1.0  0.29705  0.69758  0.48118  1.0000
  H   H15       1.0  0.69759  0.29705  0.98118  1.0000
  H   H16       1.0  0.70295  0.30242  0.51883  1.0000
  H   H17       1.0  0.71945  0.64813  0.96247  1.0000
  H   H18       1.0  0.35187  0.28055  0.53753  1.0000
  H   H19       1.0  0.28056  0.35188  0.03753  1.0000
  H   H20       1.0  0.64813  0.71945  0.46247  1.0000
  H   H21       1.0  0.69475  0.82148  0.09615  1.0000
  H   H22       1.0  0.17852  0.30526  0.40385  1.0000
  H   H23       1.0  0.30526  0.17853  0.90385  1.0000
  H   H24       1.0  0.82148  0.69474  0.59616  1.0000
  H   H25       1.0  0.55590  0.78855  0.13123  1.0000
  H   H26       1.0  0.21145  0.44410  0.36877  1.0000
  H   H27       1.0  0.44410  0.21145  0.86877  1.0000
  H   H28       1.0  0.78855  0.55590  0.63123  1.0000
  H   H29       1.0  0.46694  0.96404  0.15400  1.0000
  H   H30       1.0  0.03595  0.53307  0.34600  1.0000
  H   H31       1.0  0.53306  0.03596  0.84600  1.0000
  H   H32       1.0  0.96404  0.46693  0.65400  1.0000
  H   H33       1.0  0.60931  0.86499  0.90405  1.0000
  H   H34       1.0  0.13501  0.39069  0.59595  1.0000
  H   H35       1.0  0.39070  0.13501  0.09595  1.0000
  H   H36       1.0  0.86499  0.60931  0.40405  1.0000
  C   C1        1.0  0.41876  0.49685  0.86390  1.0000
  C   C2        1.0  0.50315  0.58124  0.63610  1.0000
  C   C3        1.0  0.58125  0.50315  0.13610  1.0000
  C   C4        1.0  0.49685  0.41876  0.36390  1.0000
  C   C5        1.0  0.30526  0.40155  0.80320  1.0000
  C   C6        1.0  0.59845  0.69474  0.69679  1.0000
  C   C7        1.0  0.69474  0.59846  0.19679  1.0000
  C   C8        1.0  0.40155  0.30526  0.30321  1.0000
  C   C9        1.0  0.19236  0.41701  0.82227  1.0000
  C   C10       1.0  0.58299  0.80764  0.67773  1.0000
  C   C11       1.0  0.80765  0.58299  0.17773  1.0000
  C   C12       1.0  0.41701  0.19236  0.32227  1.0000
  C   C13       1.0  0.19126  0.52435  0.89909  1.0000
  C   C14       1.0  0.47564  0.80874  0.60091  1.0000
  C   C15       1.0  0.80875  0.47565  0.10091  1.0000
  C   C16       1.0  0.52435  0.19126  0.39909  1.0000
  C   C17       1.0  0.30323  0.62053  0.95925  1.0000
  C   C18       1.0  0.37947  0.69678  0.54075  1.0000
  C   C19       1.0  0.69678  0.37947  0.04075  1.0000
  C   C20       1.0  0.62053  0.30322  0.45925  1.0000
  C   C21       1.0  0.41638  0.60460  0.94030  1.0000
  C   C22       1.0  0.39539  0.58362  0.55970  1.0000
  C   C23       1.0  0.58363  0.39540  0.05970  1.0000
  C   C24       1.0  0.60460  0.41638  0.44030  1.0000
  C   C25       1.0  0.61561  0.61363  0.94000  1.0000
  C   C26       1.0  0.38637  0.38439  0.56000  1.0000
  C   C27       1.0  0.38439  0.38638  0.06000  1.0000
  C   C28       1.0  0.61363  0.61561  0.44000  1.0000
  C   C29       1.0  0.58932  0.79938  0.06861  1.0000
  C   C30       1.0  0.20062  0.41068  0.43139  1.0000
  C   C31       1.0  0.41068  0.20063  0.93139  1.0000
  C   C32       1.0  0.79938  0.58932  0.56862  1.0000
  C   C33       1.0  0.54389  0.90400  0.03337  1.0000
  C   C34       1.0  0.09600  0.45610  0.46662  1.0000
  C   C35       1.0  0.45610  0.09600  0.96662  1.0000
  C   C36       1.0  0.90400  0.54389  0.53338  1.0000
  C   C37       1.0  0.48128  0.97991  0.08639  1.0000
  C   C38       1.0  0.02008  0.51872  0.41361  1.0000
  C   C39       1.0  0.51872  0.02008  0.91361  1.0000
  C   C40       1.0  0.97991  0.48128  0.58639  1.0000
  C   C41       1.0  0.56204  0.92466  0.94678  1.0000
  C   C42       1.0  0.07534  0.43795  0.55322  1.0000
  C   C43       1.0  0.43796  0.07534  0.05321  1.0000
  C   C44       1.0  0.92466  0.56204  0.44679  1.0000
  N   N1        1.0  0.54355  0.67650  0.98715  1.0000
  N   N2        1.0  0.32349  0.45645  0.51285  1.0000
  N   N3        1.0  0.45645  0.32350  0.01285  1.0000
  N   N4        1.0  0.67650  0.54355  0.48716  1.0000
  N   N5        1.0  0.54506  0.50590  0.86656  1.0000
  N   N6        1.0  0.49410  0.45494  0.63344  1.0000
  N   N7        1.0  0.45494  0.49410  0.13344  1.0000
  N   N8        1.0  0.50590  0.54506  0.36656  1.0000
  Cl  Cl1       1.0  0.84434  0.50543  0.80820  1.0000
  Cl  Cl2       1.0  0.49456  0.15567  0.69181  1.0000
  Cl  Cl3       1.0  0.15566  0.49456  0.19180  1.0000
  Cl  Cl4       1.0  0.50542  0.84434  0.30819  1.0000
