data_image0
_chemical_formula_structural       Mg2H8C8O12
_chemical_formula_sum              "Mg2 H8 C8 O12"
_cell_length_a       5.71219
_cell_length_b       5.70406
_cell_length_c       10.0448
_cell_angle_alpha    90.0001
_cell_angle_beta     90.0001
_cell_angle_gamma    87.737

_space_group_name_H-M_alt    "P 1"
_space_group_IT_number       1

loop_
  _space_group_symop_operation_xyz
  'x, y, z'

loop_
  _atom_site_type_symbol
  _atom_site_label
  _atom_site_symmetry_multiplicity
  _atom_site_fract_x
  _atom_site_fract_y
  _atom_site_fract_z
  _atom_site_occupancy
  Mg  Mg1       1.0  0.91052  0.91082  0.50005  1.0000
  Mg  Mg2       1.0  0.08945  0.08917  0.00005  1.0000
  H   H1        1.0  0.34478  0.48046  0.34359  1.0000
  H   H2        1.0  0.65522  0.51955  0.84359  1.0000
  H   H3        1.0  0.51858  0.65273  0.15667  1.0000
  H   H4        1.0  0.48143  0.34726  0.65667  1.0000
  H   H5        1.0  0.98053  0.52212  0.37301  1.0000
  H   H6        1.0  0.01946  0.47787  0.87301  1.0000
  H   H7        1.0  0.47922  0.01763  0.12609  1.0000
  H   H8        1.0  0.52078  0.98236  0.62609  1.0000
  C   C1        1.0  0.39975  0.82482  0.41882  1.0000
  C   C2        1.0  0.60026  0.17519  0.91881  1.0000
  C   C3        1.0  0.17432  0.59982  0.08140  1.0000
  C   C4        1.0  0.82568  0.40020  0.58139  1.0000
  C   C5        1.0  0.27844  0.66073  0.32232  1.0000
  C   C6        1.0  0.72155  0.33926  0.82233  1.0000
  C   C7        1.0  0.33895  0.72056  0.17781  1.0000
  C   C8        1.0  0.66104  0.27944  0.67782  1.0000
  O   O1        1.0  0.61209  0.85694  0.39594  1.0000
  O   O2        1.0  0.38794  0.14307  0.89593  1.0000
  O   O3        1.0  0.13969  0.38791  0.10488  1.0000
  O   O4        1.0  0.86031  0.61209  0.60487  1.0000
  O   O5        1.0  0.28035  0.91161  0.51652  1.0000
  O   O6        1.0  0.71965  0.08839  0.01652  1.0000
  O   O7        1.0  0.08960  0.71933  0.98313  1.0000
  O   O8        1.0  0.91040  0.28066  0.48313  1.0000
  O   O9        1.0  0.03144  0.67813  0.34228  1.0000
  O   O10       1.0  0.96856  0.32186  0.84228  1.0000
  O   O11       1.0  0.32331  0.96789  0.15750  1.0000
  O   O12       1.0  0.67668  0.03212  0.65750  1.0000
