data_image0
_chemical_formula_structural       Mg2H8C8O12
_chemical_formula_sum              "Mg2 H8 C8 O12"
_cell_length_a       4.95486
_cell_length_b       7.80978
_cell_length_c       7.80974
_cell_angle_alpha    73.0252
_cell_angle_beta     71.5135
_cell_angle_gamma    71.513

_space_group_name_H-M_alt    "P 1"
_space_group_IT_number       1

loop_
  _space_group_symop_operation_xyz
  'x, y, z'

loop_
  _atom_site_type_symbol
  _atom_site_label
  _atom_site_symmetry_multiplicity
  _atom_site_fract_x
  _atom_site_fract_y
  _atom_site_fract_z
  _atom_site_occupancy
  Mg  Mg1       1.0  0.28796  0.71201  0.71203  1.0000
  Mg  Mg2       1.0  0.71205  0.28797  0.28799  1.0000
  H   H1        1.0  0.60137  0.93808  0.21437  1.0000
  H   H2        1.0  0.24619  0.21426  0.93788  1.0000
  H   H3        1.0  0.39863  0.78563  0.06192  1.0000
  H   H4        1.0  0.75379  0.06212  0.78574  1.0000
  H   H5        1.0  0.75932  0.77748  0.46188  1.0000
  H   H6        1.0  0.00136  0.46182  0.77746  1.0000
  H   H7        1.0  0.24068  0.53812  0.22252  1.0000
  H   H8        1.0  0.99864  0.22254  0.53819  1.0000
  C   C1        1.0  0.16258  0.92068  0.36383  1.0000
  C   C2        1.0  0.55275  0.36388  0.92075  1.0000
  C   C3        1.0  0.83742  0.63616  0.07933  1.0000
  C   C4        1.0  0.44724  0.07925  0.63612  1.0000
  C   C5        1.0  0.48685  0.82996  0.29706  1.0000
  C   C6        1.0  0.38607  0.29707  0.82989  1.0000
  C   C7        1.0  0.51316  0.70294  0.17004  1.0000
  C   C8        1.0  0.61392  0.17011  0.70292  1.0000
  O   O1        1.0  0.02661  0.84751  0.52471  1.0000
  O   O2        1.0  0.60107  0.52475  0.84757  1.0000
  O   O3        1.0  0.97339  0.47529  0.15249  1.0000
  O   O4        1.0  0.39893  0.15244  0.47524  1.0000
  O   O5        1.0  0.04512  0.05454  0.25354  1.0000
  O   O6        1.0  0.64639  0.25363  0.05473  1.0000
  O   O7        1.0  0.95489  0.74646  0.94545  1.0000
  O   O8        1.0  0.35362  0.94528  0.74635  1.0000
  O   O9        1.0  0.60682  0.72554  0.45292  1.0000
  O   O10       1.0  0.21467  0.45292  0.72551  1.0000
  O   O11       1.0  0.39319  0.54708  0.27446  1.0000
  O   O12       1.0  0.78533  0.27449  0.54708  1.0000
