data_image0
_chemical_formula_structural       Mg4H32C16O32
_chemical_formula_sum              "Mg4 H32 C16 O32"
_cell_length_a       5.70108
_cell_length_b       9.49917
_cell_length_c       14.294
_cell_angle_alpha    90.0003
_cell_angle_beta     90.4445
_cell_angle_gamma    89.9992

_space_group_name_H-M_alt    "P 1"
_space_group_IT_number       1

loop_
  _space_group_symop_operation_xyz
  'x, y, z'

loop_
  _atom_site_type_symbol
  _atom_site_label
  _atom_site_symmetry_multiplicity
  _atom_site_fract_x
  _atom_site_fract_y
  _atom_site_fract_z
  _atom_site_occupancy
  Mg  Mg1       1.0  0.13752  0.69270  0.84300  1.0000
  Mg  Mg2       1.0  0.36249  0.19270  0.65700  1.0000
  Mg  Mg3       1.0  0.86249  0.30730  0.15700  1.0000
  Mg  Mg4       1.0  0.63751  0.80730  0.34300  1.0000
  H   H1        1.0  0.52669  0.74748  0.65329  1.0000
  H   H2        1.0  0.97331  0.24748  0.84671  1.0000
  H   H3        1.0  0.47330  0.25252  0.34670  1.0000
  H   H4        1.0  0.02668  0.75252  0.15330  1.0000
  H   H5        1.0  0.29635  0.85028  0.51847  1.0000
  H   H6        1.0  0.20366  0.35028  0.98154  1.0000
  H   H7        1.0  0.70364  0.14972  0.48153  1.0000
  H   H8        1.0  0.79635  0.64972  0.01846  1.0000
  H   H9        1.0  0.36974  0.92151  0.76638  1.0000
  H   H10       1.0  0.13027  0.42151  0.73363  1.0000
  H   H11       1.0  0.63026  0.07849  0.23362  1.0000
  H   H12       1.0  0.86973  0.57849  0.26637  1.0000
  H   H13       1.0  0.62601  0.96123  0.59491  1.0000
  H   H14       1.0  0.87400  0.46123  0.90509  1.0000
  H   H15       1.0  0.37397  0.03877  0.40509  1.0000
  H   H16       1.0  0.12601  0.53877  0.09491  1.0000
  H   H17       1.0  0.27958  0.91467  0.95564  1.0000
  H   H18       1.0  0.22043  0.41466  0.54436  1.0000
  H   H19       1.0  0.72042  0.08534  0.04436  1.0000
  H   H20       1.0  0.77957  0.58534  0.45564  1.0000
  H   H21       1.0  0.32331  0.76460  0.00747  1.0000
  H   H22       1.0  0.17669  0.26460  0.49253  1.0000
  H   H23       1.0  0.67670  0.23540  0.99253  1.0000
  H   H24       1.0  0.82331  0.73540  0.50747  1.0000
  H   H25       1.0  0.67204  0.70487  0.85802  1.0000
  H   H26       1.0  0.82797  0.20487  0.64198  1.0000
  H   H27       1.0  0.32797  0.29513  0.14198  1.0000
  H   H28       1.0  0.17203  0.79513  0.35802  1.0000
  H   H29       1.0  0.78210  0.82870  0.91868  1.0000
  H   H30       1.0  0.71791  0.32870  0.58133  1.0000
  H   H31       1.0  0.21792  0.17130  0.08133  1.0000
  H   H32       1.0  0.28209  0.67130  0.41868  1.0000
  C   C1        1.0  0.19839  0.64409  0.64109  1.0000
  C   C2        1.0  0.30163  0.14409  0.85892  1.0000
  C   C3        1.0  0.80160  0.35591  0.35892  1.0000
  C   C4        1.0  0.69836  0.85591  0.14109  1.0000
  C   C5        1.0  0.34075  0.77831  0.66010  1.0000
  C   C6        1.0  0.15926  0.27831  0.83991  1.0000
  C   C7        1.0  0.65924  0.22169  0.33990  1.0000
  C   C8        1.0  0.84074  0.72169  0.16010  1.0000
  C   C9        1.0  0.29167  0.89535  0.58920  1.0000
  C   C10       1.0  0.20834  0.39535  0.91080  1.0000
  C   C11       1.0  0.70833  0.10466  0.41080  1.0000
  C   C12       1.0  0.79166  0.60465  0.08920  1.0000
  C   C13       1.0  0.04933  0.95934  0.60597  1.0000
  C   C14       1.0  0.45069  0.45934  0.89403  1.0000
  C   C15       1.0  0.95066  0.04066  0.39403  1.0000
  C   C16       1.0  0.54933  0.54066  0.10597  1.0000
  O   O1        1.0  0.08926  0.59274  0.71151  1.0000
  O   O2        1.0  0.41076  0.09274  0.78849  1.0000
  O   O3        1.0  0.91076  0.40725  0.28848  1.0000
  O   O4        1.0  0.58925  0.90726  0.21151  1.0000
  O   O5        1.0  0.20837  0.59190  0.56036  1.0000
  O   O6        1.0  0.29165  0.09191  0.93964  1.0000
  O   O7        1.0  0.79161  0.40809  0.43963  1.0000
  O   O8        1.0  0.70836  0.90809  0.06035  1.0000
  O   O9        1.0  0.29713  0.82691  0.75293  1.0000
  O   O10       1.0  0.20288  0.32691  0.74708  1.0000
  O   O11       1.0  0.70288  0.17309  0.24707  1.0000
  O   O12       1.0  0.79712  0.67309  0.25292  1.0000
  O   O13       1.0  0.46220  0.00385  0.59930  1.0000
  O   O14       1.0  0.03780  0.50385  0.90070  1.0000
  O   O15       1.0  0.53779  0.99615  0.40070  1.0000
  O   O16       1.0  0.96221  0.49615  0.09930  1.0000
  O   O17       1.0  0.04371  0.08311  0.63960  1.0000
  O   O18       1.0  0.45628  0.58311  0.86040  1.0000
  O   O19       1.0  0.95628  0.91690  0.36040  1.0000
  O   O20       1.0  0.54372  0.41689  0.13959  1.0000
  O   O21       1.0  0.87154  0.88536  0.58545  1.0000
  O   O22       1.0  0.62847  0.38536  0.91456  1.0000
  O   O23       1.0  0.12845  0.11465  0.41456  1.0000
  O   O24       1.0  0.37154  0.61464  0.08544  1.0000
  O   O25       1.0  0.23847  0.81240  0.95630  1.0000
  O   O26       1.0  0.26152  0.31239  0.54371  1.0000
  O   O27       1.0  0.76153  0.18760  0.04371  1.0000
  O   O28       1.0  0.73847  0.68761  0.45630  1.0000
  O   O29       1.0  0.80542  0.77289  0.86174  1.0000
  O   O30       1.0  0.69459  0.27289  0.63826  1.0000
  O   O31       1.0  0.19459  0.22711  0.13826  1.0000
  O   O32       1.0  0.30541  0.72711  0.36174  1.0000
