data_image0
_chemical_formula_structural       La2H32C48S6N2O14
_chemical_formula_sum              "La2 H32 C48 S6 N2 O14"
_cell_length_a       8.25714
_cell_length_b       14.03
_cell_length_c       14.03
_cell_angle_alpha    71.3441
_cell_angle_beta     87.7665
_cell_angle_gamma    87.7659

_space_group_name_H-M_alt    "P 1"
_space_group_IT_number       1

loop_
  _space_group_symop_operation_xyz
  'x, y, z'

loop_
  _atom_site_type_symbol
  _atom_site_label
  _atom_site_symmetry_multiplicity
  _atom_site_fract_x
  _atom_site_fract_y
  _atom_site_fract_z
  _atom_site_occupancy
  La  La1       1.0  0.99886  0.22021  0.25139  1.0000
  La  La2       1.0  0.49886  0.25140  0.22021  1.0000
  H   H1        1.0  0.49518  0.60655  0.42890  1.0000
  H   H2        1.0  0.99518  0.42890  0.60655  1.0000
  H   H3        1.0  0.57089  0.39979  0.72581  1.0000
  H   H4        1.0  0.07089  0.72581  0.39979  1.0000
  H   H5        1.0  0.73191  0.70390  0.64810  1.0000
  H   H6        1.0  0.23191  0.64809  0.70390  1.0000
  H   H7        1.0  0.53468  0.95955  0.25074  1.0000
  H   H8        1.0  0.03468  0.25074  0.95955  1.0000
  H   H9        1.0  0.46216  0.76883  0.34197  1.0000
  H   H10       1.0  0.96216  0.34196  0.76883  1.0000
  H   H11       1.0  0.20934  0.20942  0.60547  1.0000
  H   H12       1.0  0.70933  0.60547  0.20942  1.0000
  H   H13       1.0  0.36931  0.31347  0.69789  1.0000
  H   H14       1.0  0.86930  0.69789  0.31346  1.0000
  H   H15       1.0  0.95994  0.57326  0.97066  1.0000
  H   H16       1.0  0.45993  0.97066  0.57327  1.0000
  H   H17       1.0  0.87561  0.65762  0.78151  1.0000
  H   H18       1.0  0.37560  0.78151  0.65763  1.0000
  H   H19       1.0  0.79975  0.12866  0.06293  1.0000
  H   H20       1.0  0.29977  0.06295  0.12866  1.0000
  H   H21       1.0  0.78164  0.91710  0.99834  1.0000
  H   H22       1.0  0.28165  0.99833  0.91711  1.0000
  H   H23       1.0  0.67127  0.02620  0.00812  1.0000
  H   H24       1.0  0.17128  0.00812  0.02621  1.0000
  H   H25       1.0  0.64245  0.90648  0.10169  1.0000
  H   H26       1.0  0.14245  0.10169  0.90648  1.0000
  H   H27       1.0  0.04254  0.91956  0.21130  1.0000
  H   H28       1.0  0.54256  0.21130  0.91955  1.0000
  H   H29       1.0  0.00783  0.84545  0.13040  1.0000
  H   H30       1.0  0.50784  0.13040  0.84545  1.0000
  H   H31       1.0  0.86661  0.84483  0.23058  1.0000
  H   H32       1.0  0.36661  0.23058  0.84482  1.0000
  C   C1        1.0  0.61942  0.66592  0.52947  1.0000
  C   C2        1.0  0.11942  0.52947  0.66592  1.0000
  C   C3        1.0  0.54107  0.59063  0.50434  1.0000
  C   C4        1.0  0.04106  0.50434  0.59062  1.0000
  C   C5        1.0  0.51951  0.49512  0.57508  1.0000
  C   C6        1.0  0.01951  0.57508  0.49512  1.0000
  C   C7        1.0  0.58164  0.47497  0.67162  1.0000
  C   C8        1.0  0.08164  0.67161  0.47497  1.0000
  C   C9        1.0  0.65898  0.54916  0.69931  1.0000
  C   C10       1.0  0.15898  0.69931  0.54916  1.0000
  C   C11       1.0  0.67564  0.64466  0.62732  1.0000
  C   C12       1.0  0.17565  0.62732  0.64466  1.0000
  C   C13       1.0  0.63662  0.76598  0.45578  1.0000
  C   C14       1.0  0.13662  0.45578  0.76598  1.0000
  C   C15       1.0  0.70542  0.94459  0.36813  1.0000
  C   C16       1.0  0.20542  0.36813  0.94459  1.0000
  C   C17       1.0  0.59038  0.91034  0.31861  1.0000
  C   C18       1.0  0.09038  0.31861  0.91034  1.0000
  C   C19       1.0  0.55281  0.80878  0.36741  1.0000
  C   C20       1.0  0.05281  0.36741  0.80878  1.0000
  C   C21       1.0  0.77478  0.04501  0.33885  1.0000
  C   C22       1.0  0.27477  0.33885  0.04501  1.0000
  C   C23       1.0  0.43124  0.41824  0.55032  1.0000
  C   C24       1.0  0.93123  0.55032  0.41824  1.0000
  C   C25       1.0  0.27907  0.32112  0.46482  1.0000
  C   C26       1.0  0.77906  0.46481  0.32113  1.0000
  C   C27       1.0  0.27440  0.27806  0.56850  1.0000
  C   C28       1.0  0.77440  0.56850  0.27806  1.0000
  C   C29       1.0  0.36205  0.33260  0.61679  1.0000
  C   C30       1.0  0.86205  0.61679  0.33260  1.0000
  C   C31       1.0  0.20210  0.28454  0.39106  1.0000
  C   C32       1.0  0.70210  0.39105  0.28455  1.0000
  C   C33       1.0  0.72340  0.52865  0.79968  1.0000
  C   C34       1.0  0.22340  0.79968  0.52865  1.0000
  C   C35       1.0  0.80391  0.45065  0.97782  1.0000
  C   C36       1.0  0.30392  0.97781  0.45065  1.0000
  C   C37       1.0  0.87438  0.54271  0.93178  1.0000
  C   C38       1.0  0.37438  0.93178  0.54271  1.0000
  C   C39       1.0  0.82841  0.58715  0.83131  1.0000
  C   C40       1.0  0.32840  0.83131  0.58716  1.0000
  C   C41       1.0  0.83823  0.37922  0.07774  1.0000
  C   C42       1.0  0.33824  0.07774  0.37922  1.0000
  C   C43       1.0  0.88662  0.07111  0.10701  1.0000
  C   C44       1.0  0.38665  0.10702  0.07111  1.0000
  C   C45       1.0  0.73191  0.95545  0.05078  1.0000
  C   C46       1.0  0.23192  0.05078  0.95546  1.0000
  C   C47       1.0  0.95068  0.89151  0.17349  1.0000
  C   C48       1.0  0.45068  0.17349  0.89150  1.0000
  S   S1        1.0  0.76727  0.85125  0.47453  1.0000
  S   S2        1.0  0.26727  0.47453  0.85125  1.0000
  S   S3        1.0  0.39036  0.42863  0.42772  1.0000
  S   S4        1.0  0.89036  0.42772  0.42864  1.0000
  S   S5        1.0  0.67908  0.42048  0.89699  1.0000
  S   S6        1.0  0.17908  0.89699  0.42047  1.0000
  N   N1        1.0  0.86062  0.97683  0.10778  1.0000
  N   N2        1.0  0.36063  0.10778  0.97683  1.0000
  O   O1        1.0  0.71188  0.11433  0.26438  1.0000
  O   O2        1.0  0.21188  0.26438  0.11433  1.0000
  O   O3        1.0  0.89815  0.05974  0.38273  1.0000
  O   O4        1.0  0.39814  0.38274  0.05975  1.0000
  O   O5        1.0  0.08857  0.22258  0.42046  1.0000
  O   O6        1.0  0.58857  0.42046  0.22258  1.0000
  O   O7        1.0  0.24892  0.31784  0.29725  1.0000
  O   O8        1.0  0.74893  0.29724  0.31784  1.0000
  O   O9        1.0  0.94469  0.40007  0.13029  1.0000
  O   O10       1.0  0.44468  0.13029  0.40007  1.0000
  O   O11       1.0  0.76536  0.29402  0.10736  1.0000
  O   O12       1.0  0.26537  0.10735  0.29402  1.0000
  O   O13       1.0  0.00006  0.09278  0.15215  1.0000
  O   O14       1.0  0.50007  0.15216  0.09277  1.0000
