data_image0
_chemical_formula_structural       Cd2H10C18N4O12
_chemical_formula_sum              "Cd2 H10 C18 N4 O12"
_cell_length_a       6.88782
_cell_length_b       6.88783
_cell_length_c       11.835
_cell_angle_alpha    76.4241
_cell_angle_beta     76.424
_cell_angle_gamma    68.483

_space_group_name_H-M_alt    "P 1"
_space_group_IT_number       1

loop_
  _space_group_symop_operation_xyz
  'x, y, z'

loop_
  _atom_site_type_symbol
  _atom_site_label
  _atom_site_symmetry_multiplicity
  _atom_site_fract_x
  _atom_site_fract_y
  _atom_site_fract_z
  _atom_site_occupancy
  Cd  Cd1       1.0  0.56326  0.56326  0.21556  1.0000
  Cd  Cd2       1.0  0.43673  0.43674  0.78444  1.0000
  H   H1        1.0  0.28357  0.47999  0.09874  1.0000
  H   H2        1.0  0.52001  0.71643  0.90127  1.0000
  H   H3        1.0  0.71643  0.52001  0.90126  1.0000
  H   H4        1.0  0.47999  0.28357  0.09873  1.0000
  H   H5        1.0  0.25598  0.25597  0.33170  1.0000
  H   H6        1.0  0.74402  0.74402  0.66830  1.0000
  H   H7        1.0  0.09390  0.09389  0.53324  1.0000
  H   H8        1.0  0.90610  0.90610  0.46676  1.0000
  H   H9        1.0  0.17316  0.17316  0.71258  1.0000
  H   H10       1.0  0.82683  0.82683  0.28742  1.0000
  C   C1        1.0  0.26727  0.96485  0.06759  1.0000
  C   C2        1.0  0.03515  0.73274  0.93241  1.0000
  C   C3        1.0  0.73274  0.03515  0.93241  1.0000
  C   C4        1.0  0.96486  0.26726  0.06759  1.0000
  C   C5        1.0  0.14775  0.14774  0.98953  1.0000
  C   C6        1.0  0.85225  0.85226  0.01047  1.0000
  C   C7        1.0  0.17433  0.98565  0.19099  1.0000
  C   C8        1.0  0.01436  0.82568  0.80901  1.0000
  C   C9        1.0  0.82568  0.01437  0.80901  1.0000
  C   C10       1.0  0.98566  0.17432  0.19099  1.0000
  C   C11       1.0  0.27921  0.27921  0.41483  1.0000
  C   C12       1.0  0.72078  0.72079  0.58517  1.0000
  C   C13       1.0  0.19167  0.19166  0.52408  1.0000
  C   C14       1.0  0.80833  0.80834  0.47592  1.0000
  C   C15       1.0  0.23424  0.23424  0.62331  1.0000
  C   C16       1.0  0.76577  0.76577  0.37669  1.0000
  C   C17       1.0  0.43294  0.43294  0.50556  1.0000
  C   C18       1.0  0.56705  0.56705  0.49444  1.0000
  N   N1        1.0  0.39946  0.39946  0.40586  1.0000
  N   N2        1.0  0.60054  0.60054  0.59413  1.0000
  N   N3        1.0  0.35437  0.35437  0.61436  1.0000
  N   N4        1.0  0.64563  0.64562  0.38564  1.0000
  O   O1        1.0  0.42486  0.80970  0.03877  1.0000
  O   O2        1.0  0.19028  0.57514  0.96123  1.0000
  O   O3        1.0  0.57513  0.19029  0.96123  1.0000
  O   O4        1.0  0.80970  0.42486  0.03877  1.0000
  O   O5        1.0  0.19201  0.19200  0.87985  1.0000
  O   O6        1.0  0.80799  0.80799  0.12015  1.0000
  O   O7        1.0  0.24744  0.85709  0.27775  1.0000
  O   O8        1.0  0.14291  0.75258  0.72225  1.0000
  O   O9        1.0  0.75257  0.14292  0.72225  1.0000
  O   O10       1.0  0.85709  0.24744  0.27774  1.0000
  O   O11       1.0  0.38095  0.38095  0.15274  1.0000
  O   O12       1.0  0.61905  0.61905  0.84726  1.0000
