data_image0
_chemical_formula_structural       Cd2H10C16N4O10
_chemical_formula_sum              "Cd2 H10 C16 N4 O10"
_cell_length_a       7.62983
_cell_length_b       7.78298
_cell_length_c       8.44066
_cell_angle_alpha    70.292
_cell_angle_beta     72.573
_cell_angle_gamma    74.0744

_space_group_name_H-M_alt    "P 1"
_space_group_IT_number       1

loop_
  _space_group_symop_operation_xyz
  'x, y, z'

loop_
  _atom_site_type_symbol
  _atom_site_label
  _atom_site_symmetry_multiplicity
  _atom_site_fract_x
  _atom_site_fract_y
  _atom_site_fract_z
  _atom_site_occupancy
  Cd  Cd1       1.0  0.41281  0.94350  0.24587  1.0000
  Cd  Cd2       1.0  0.58719  0.05650  0.75413  1.0000
  H   H1        1.0  0.75194  0.80126  0.38164  1.0000
  H   H2        1.0  0.24806  0.19874  0.61836  1.0000
  H   H3        1.0  0.57996  0.78354  0.55303  1.0000
  H   H4        1.0  0.42004  0.21646  0.44697  1.0000
  H   H5        1.0  0.83259  0.60108  0.88793  1.0000
  H   H6        1.0  0.16741  0.39892  0.11207  1.0000
  H   H7        1.0  0.15932  0.40879  0.81631  1.0000
  H   H8        1.0  0.84067  0.59121  0.18369  1.0000
  H   H9        1.0  0.39222  0.56580  0.56788  1.0000
  H   H10       1.0  0.60778  0.43420  0.43212  1.0000
  C   C1        1.0  0.13217  0.01632  0.99834  1.0000
  C   C2        1.0  0.86783  0.98368  0.00166  1.0000
  C   C3        1.0  0.01456  0.08011  0.87043  1.0000
  C   C4        1.0  0.98544  0.91989  0.12957  1.0000
  C   C5        1.0  0.49909  0.37454  0.09824  1.0000
  C   C6        1.0  0.50091  0.62546  0.90177  1.0000
  C   C7        1.0  0.47837  0.57153  0.09236  1.0000
  C   C8        1.0  0.52163  0.42847  0.90765  1.0000
  C   C9        1.0  0.02643  0.90318  0.55303  1.0000
  C   C10       1.0  0.97357  0.09682  0.44697  1.0000
  C   C11       1.0  0.94182  0.65687  0.78025  1.0000
  C   C12       1.0  0.05818  0.34313  0.21975  1.0000
  C   C13       1.0  0.12001  0.55198  0.74264  1.0000
  C   C14       1.0  0.87999  0.44802  0.25736  1.0000
  C   C15       1.0  0.24913  0.63796  0.60310  1.0000
  C   C16       1.0  0.75087  0.36204  0.39689  1.0000
  N   N1        1.0  0.20251  0.81293  0.50890  1.0000
  N   N2        1.0  0.79749  0.18707  0.49110  1.0000
  N   N3        1.0  0.89484  0.83273  0.68609  1.0000
  N   N4        1.0  0.10516  0.16727  0.31391  1.0000
  O   O1        1.0  0.29184  0.04087  0.99379  1.0000
  O   O2        1.0  0.70816  0.95913  0.00621  1.0000
  O   O3        1.0  0.03251  0.17725  0.71618  1.0000
  O   O4        1.0  0.96750  0.82275  0.28382  1.0000
  O   O5        1.0  0.49538  0.22649  0.22153  1.0000
  O   O6        1.0  0.50462  0.77351  0.77847  1.0000
  O   O7        1.0  0.45394  0.64804  0.20844  1.0000
  O   O8        1.0  0.54606  0.35196  0.79156  1.0000
  O   O9        1.0  0.61600  0.79235  0.42804  1.0000
  O   O10       1.0  0.38400  0.20765  0.57196  1.0000
