data_image0
_chemical_formula_structural       Sr2H28C12N4O24
_chemical_formula_sum              "Sr2 H28 C12 N4 O24"
_cell_length_a       7.73291
_cell_length_b       8.64053
_cell_length_c       10.3239
_cell_angle_alpha    110.084
_cell_angle_beta     90.0003
_cell_angle_gamma    89.9998

_space_group_name_H-M_alt    "P 1"
_space_group_IT_number       1

loop_
  _space_group_symop_operation_xyz
  'x, y, z'

loop_
  _atom_site_type_symbol
  _atom_site_label
  _atom_site_symmetry_multiplicity
  _atom_site_fract_x
  _atom_site_fract_y
  _atom_site_fract_z
  _atom_site_occupancy
  Sr  Sr1       1.0  0.00000  0.00000  0.00000  1.0000
  Sr  Sr2       1.0  0.50000  0.50000  0.50000  1.0000
  H   H1        1.0  0.43919  0.85526  0.87530  1.0000
  H   H2        1.0  0.93919  0.64474  0.62470  1.0000
  H   H3        1.0  0.56081  0.14474  0.12470  1.0000
  H   H4        1.0  0.06081  0.35526  0.37530  1.0000
  H   H5        1.0  0.49711  0.12528  0.83388  1.0000
  H   H6        1.0  0.99712  0.37472  0.66612  1.0000
  H   H7        1.0  0.50289  0.87472  0.16612  1.0000
  H   H8        1.0  0.00289  0.62528  0.33388  1.0000
  H   H9        1.0  0.70005  0.00194  0.63677  1.0000
  H   H10       1.0  0.20006  0.49806  0.86323  1.0000
  H   H11       1.0  0.29995  0.99806  0.36323  1.0000
  H   H12       1.0  0.79995  0.50194  0.13677  1.0000
  H   H13       1.0  0.75171  0.84159  0.70154  1.0000
  H   H14       1.0  0.25172  0.65841  0.79846  1.0000
  H   H15       1.0  0.24828  0.15841  0.29846  1.0000
  H   H16       1.0  0.74828  0.34159  0.20154  1.0000
  H   H17       1.0  0.67873  0.74454  0.89410  1.0000
  H   H18       1.0  0.17873  0.75546  0.60591  1.0000
  H   H19       1.0  0.32127  0.25546  0.10590  1.0000
  H   H20       1.0  0.82127  0.24454  0.39409  1.0000
  H   H21       1.0  0.75718  0.23585  0.88685  1.0000
  H   H22       1.0  0.25718  0.26415  0.61315  1.0000
  H   H23       1.0  0.24282  0.76415  0.11315  1.0000
  H   H24       1.0  0.74282  0.73585  0.38685  1.0000
  H   H25       1.0  0.42034  0.89902  0.60388  1.0000
  H   H26       1.0  0.92035  0.60098  0.89612  1.0000
  H   H27       1.0  0.57966  0.10098  0.39612  1.0000
  H   H28       1.0  0.07965  0.39902  0.10388  1.0000
  C   C1        1.0  0.53846  0.94427  0.93165  1.0000
  C   C2        1.0  0.03846  0.55573  0.56835  1.0000
  C   C3        1.0  0.46154  0.05573  0.06835  1.0000
  C   C4        1.0  0.96154  0.44427  0.43165  1.0000
  C   C5        1.0  0.59948  0.03980  0.84029  1.0000
  C   C6        1.0  0.09948  0.46020  0.65971  1.0000
  C   C7        1.0  0.40052  0.96020  0.15971  1.0000
  C   C8        1.0  0.90052  0.53980  0.34029  1.0000
  C   C9        1.0  0.64915  0.92651  0.69494  1.0000
  C   C10       1.0  0.14915  0.57348  0.80507  1.0000
  C   C11       1.0  0.35085  0.07349  0.30506  1.0000
  C   C12       1.0  0.85085  0.42652  0.19494  1.0000
  N   N1        1.0  0.15947  0.06451  0.72639  1.0000
  N   N2        1.0  0.65947  0.43549  0.77361  1.0000
  N   N3        1.0  0.84052  0.93549  0.27360  1.0000
  N   N4        1.0  0.34053  0.56451  0.22639  1.0000
  O   O1        1.0  0.68330  0.85808  0.96222  1.0000
  O   O2        1.0  0.18330  0.64192  0.53778  1.0000
  O   O3        1.0  0.31670  0.14192  0.03778  1.0000
  O   O4        1.0  0.81670  0.35808  0.46222  1.0000
  O   O5        1.0  0.75028  0.13066  0.90499  1.0000
  O   O6        1.0  0.25028  0.36933  0.59501  1.0000
  O   O7        1.0  0.24973  0.86934  0.09501  1.0000
  O   O8        1.0  0.74972  0.63067  0.40499  1.0000
  O   O9        1.0  0.50745  0.82622  0.62301  1.0000
  O   O10       1.0  0.00745  0.67378  0.87699  1.0000
  O   O11       1.0  0.49255  0.17378  0.37699  1.0000
  O   O12       1.0  0.99255  0.32622  0.12301  1.0000
  O   O13       1.0  0.12865  0.92854  0.74719  1.0000
  O   O14       1.0  0.62865  0.57146  0.75281  1.0000
  O   O15       1.0  0.87135  0.07146  0.25281  1.0000
  O   O16       1.0  0.37135  0.42854  0.24719  1.0000
  O   O17       1.0  0.10265  0.19647  0.80814  1.0000
  O   O18       1.0  0.60266  0.30353  0.69186  1.0000
  O   O19       1.0  0.89735  0.80353  0.19186  1.0000
  O   O20       1.0  0.39735  0.69647  0.30814  1.0000
  O   O21       1.0  0.25018  0.05922  0.62162  1.0000
  O   O22       1.0  0.75019  0.44078  0.87838  1.0000
  O   O23       1.0  0.74981  0.94078  0.37838  1.0000
  O   O24       1.0  0.24982  0.55922  0.12162  1.0000
