data_image0
_chemical_formula_structural       Zn4H52C56N8O28
_chemical_formula_sum              "Zn4 H52 C56 N8 O28"
_cell_length_a       9.53068
_cell_length_b       9.73801
_cell_length_c       19.0887
_cell_angle_alpha    95.0912
_cell_angle_beta     101.253
_cell_angle_gamma    111.116

_space_group_name_H-M_alt    "P 1"
_space_group_IT_number       1

loop_
  _space_group_symop_operation_xyz
  'x, y, z'

loop_
  _atom_site_type_symbol
  _atom_site_label
  _atom_site_symmetry_multiplicity
  _atom_site_fract_x
  _atom_site_fract_y
  _atom_site_fract_z
  _atom_site_occupancy
  Zn  Zn1       1.0  0.64309  0.21078  0.02299  1.0000
  Zn  Zn2       1.0  0.35691  0.78923  0.97701  1.0000
  Zn  Zn3       1.0  0.27005  0.16227  0.51857  1.0000
  Zn  Zn4       1.0  0.72996  0.83773  0.48143  1.0000
  H   H1        1.0  0.87537  0.29748  0.94216  1.0000
  H   H2        1.0  0.12463  0.70253  0.05784  1.0000
  H   H3        1.0  0.42983  0.46006  0.60197  1.0000
  H   H4        1.0  0.57018  0.53994  0.39803  1.0000
  H   H5        1.0  0.20314  0.16359  0.02839  1.0000
  H   H6        1.0  0.79685  0.83640  0.97161  1.0000
  H   H7        1.0  0.92771  0.10549  0.18515  1.0000
  H   H8        1.0  0.07229  0.89452  0.81485  1.0000
  H   H9        1.0  0.34494  0.01614  0.22599  1.0000
  H   H10       1.0  0.65506  0.98386  0.77401  1.0000
  H   H11       1.0  0.34564  0.16798  0.91818  1.0000
  H   H12       1.0  0.65436  0.83202  0.08182  1.0000
  H   H13       1.0  0.29310  0.11169  0.82248  1.0000
  H   H14       1.0  0.70690  0.88832  0.17752  1.0000
  H   H15       1.0  0.32866  0.29727  0.85894  1.0000
  H   H16       1.0  0.67134  0.70274  0.14106  1.0000
  H   H17       1.0  0.99352  0.35864  0.83056  1.0000
  H   H18       1.0  0.00648  0.64136  0.16944  1.0000
  H   H19       1.0  0.92711  0.49407  0.79652  1.0000
  H   H20       1.0  0.07289  0.50593  0.20348  1.0000
  H   H21       1.0  0.85790  0.31205  0.74495  1.0000
  H   H22       1.0  0.14210  0.68795  0.25505  1.0000
  H   H23       1.0  0.30672  0.96285  0.62128  1.0000
  H   H24       1.0  0.69328  0.03715  0.37872  1.0000
  H   H25       1.0  0.33727  0.98589  0.71736  1.0000
  H   H26       1.0  0.66273  0.01410  0.28264  1.0000
  H   H27       1.0  0.49159  0.99329  0.67695  1.0000
  H   H28       1.0  0.50840  0.00670  0.32305  1.0000
  H   H29       1.0  0.59130  0.67044  0.71161  1.0000
  H   H30       1.0  0.40871  0.32956  0.28839  1.0000
  H   H31       1.0  0.74606  0.62914  0.75996  1.0000
  H   H32       1.0  0.25395  0.37086  0.24004  1.0000
  H   H33       1.0  0.58517  0.61212  0.79691  1.0000
  H   H34       1.0  0.41483  0.38788  0.20309  1.0000
  H   H35       1.0  0.86985  0.67664  0.32874  1.0000
  H   H36       1.0  0.13016  0.32336  0.67126  1.0000
  H   H37       1.0  0.00242  0.30170  0.35730  1.0000
  H   H38       1.0  0.99758  0.69829  0.64270  1.0000
  H   H39       1.0  0.24098  0.71676  0.50838  1.0000
  H   H40       1.0  0.75902  0.28322  0.49162  1.0000
  H   H41       1.0  0.73411  0.50660  0.06799  1.0000
  H   H42       1.0  0.26589  0.49340  0.93201  1.0000
  H   H43       1.0  0.69616  0.43051  0.13692  1.0000
  H   H44       1.0  0.30384  0.56949  0.86308  1.0000
  H   H45       1.0  0.51742  0.29921  0.46158  1.0000
  H   H46       1.0  0.48259  0.70080  0.53842  1.0000
  H   H47       1.0  0.38752  0.14759  0.40966  1.0000
  H   H48       1.0  0.61249  0.85241  0.59034  1.0000
  H   H49       1.0  0.97527  0.96873  0.34875  1.0000
  H   H50       1.0  0.02474  0.03126  0.65126  1.0000
  H   H51       1.0  0.70779  0.20635  0.20314  1.0000
  H   H52       1.0  0.29220  0.79366  0.79686  1.0000
  C   C1        1.0  0.28558  0.08408  0.12382  1.0000
  C   C2        1.0  0.71442  0.91592  0.87618  1.0000
  C   C3        1.0  0.18173  0.12968  0.07936  1.0000
  C   C4        1.0  0.81826  0.87031  0.92064  1.0000
  C   C5        1.0  0.05332  0.13805  0.10153  1.0000
  C   C6        1.0  0.94667  0.86195  0.89847  1.0000
  C   C7        1.0  0.02609  0.09593  0.16744  1.0000
  C   C8        1.0  0.97391  0.90408  0.83256  1.0000
  C   C9        1.0  0.13046  0.05060  0.21211  1.0000
  C   C10       1.0  0.86954  0.94940  0.78789  1.0000
  C   C11       1.0  0.26039  0.04572  0.19029  1.0000
  C   C12       1.0  0.73960  0.95429  0.80971  1.0000
  C   C13       1.0  0.43446  0.09659  0.10557  1.0000
  C   C14       1.0  0.56554  0.90341  0.89443  1.0000
  C   C15       1.0  0.11674  0.02105  0.28617  1.0000
  C   C16       1.0  0.88326  0.97895  0.71383  1.0000
  C   C17       1.0  0.94934  0.19779  0.05568  1.0000
  C   C18       1.0  0.05065  0.80221  0.94432  1.0000
  C   C19       1.0  0.36628  0.20433  0.86708  1.0000
  C   C20       1.0  0.63372  0.79567  0.13292  1.0000
  C   C21       1.0  0.53236  0.24989  0.86603  1.0000
  C   C22       1.0  0.46764  0.75011  0.13397  1.0000
  C   C23       1.0  0.60281  0.29325  0.80859  1.0000
  C   C24       1.0  0.39719  0.70675  0.19141  1.0000
  C   C25       1.0  0.76103  0.32508  0.83583  1.0000
  C   C26       1.0  0.23898  0.67492  0.16417  1.0000
  C   C27       1.0  0.89197  0.37481  0.80032  1.0000
  C   C28       1.0  0.10803  0.62519  0.19968  1.0000
  C   C29       1.0  0.39001  0.02348  0.67281  1.0000
  C   C30       1.0  0.60999  0.97652  0.32719  1.0000
  C   C31       1.0  0.43701  0.18750  0.67681  1.0000
  C   C32       1.0  0.56299  0.81250  0.32319  1.0000
  C   C33       1.0  0.52931  0.30462  0.73575  1.0000
  C   C34       1.0  0.47069  0.69538  0.26425  1.0000
  C   C35       1.0  0.53971  0.43725  0.70973  1.0000
  C   C36       1.0  0.46029  0.56275  0.29027  1.0000
  C   C37       1.0  0.61954  0.59539  0.74626  1.0000
  C   C38       1.0  0.38046  0.40461  0.25374  1.0000
  C   C39       1.0  0.22744  0.43301  0.48296  1.0000
  C   C40       1.0  0.77256  0.56698  0.51704  1.0000
  C   C41       1.0  0.05536  0.71133  0.42228  1.0000
  C   C42       1.0  0.94464  0.28866  0.57773  1.0000
  C   C43       1.0  0.94357  0.62798  0.35925  1.0000
  C   C44       1.0  0.05643  0.37202  0.64075  1.0000
  C   C45       1.0  0.92730  0.48195  0.33443  1.0000
  C   C46       1.0  0.07270  0.51805  0.66557  1.0000
  C   C47       1.0  0.01842  0.41704  0.37477  1.0000
  C   C48       1.0  0.98158  0.58296  0.62523  1.0000
  C   C49       1.0  0.13156  0.50131  0.43780  1.0000
  C   C50       1.0  0.86844  0.49868  0.56220  1.0000
  C   C51       1.0  0.15171  0.64909  0.46031  1.0000
  C   C52       1.0  0.84828  0.35090  0.53969  1.0000
  C   C53       1.0  0.07584  0.86866  0.44778  1.0000
  C   C54       1.0  0.92416  0.13133  0.55222  1.0000
  C   C55       1.0  0.81506  0.40136  0.26417  1.0000
  C   C56       1.0  0.18494  0.59864  0.73582  1.0000
  N   N1        1.0  0.64223  0.25542  0.92405  1.0000
  N   N2        1.0  0.35777  0.74458  0.07595  1.0000
  N   N3        1.0  0.77981  0.30217  0.90490  1.0000
  N   N4        1.0  0.22019  0.69783  0.09510  1.0000
  N   N5        1.0  0.39495  0.24711  0.61931  1.0000
  N   N6        1.0  0.60505  0.75289  0.38069  1.0000
  N   N7        1.0  0.45843  0.39755  0.64004  1.0000
  N   N8        1.0  0.54157  0.60245  0.35995  1.0000
  O   O1        1.0  0.43875  0.10398  0.03856  1.0000
  O   O2        1.0  0.56124  0.89603  0.96144  1.0000
  O   O3        1.0  0.66839  0.41663  0.08214  1.0000
  O   O4        1.0  0.33161  0.58337  0.91786  1.0000
  O   O5        1.0  0.44245  0.19607  0.46012  1.0000
  O   O6        1.0  0.55756  0.80393  0.53988  1.0000
  O   O7        1.0  0.54640  0.10434  0.15515  1.0000
  O   O8        1.0  0.45360  0.89567  0.84485  1.0000
  O   O9        1.0  0.97690  0.99431  0.29742  1.0000
  O   O10       1.0  0.02310  0.00569  0.70258  1.0000
  O   O11       1.0  0.22859  0.02252  0.33259  1.0000
  O   O12       1.0  0.77141  0.97748  0.66741  1.0000
  O   O13       1.0  0.82212  0.17961  0.07484  1.0000
  O   O14       1.0  0.17787  0.82040  0.92516  1.0000
  O   O15       1.0  0.99215  0.26029  0.00417  1.0000
  O   O16       1.0  0.00784  0.73970  0.99583  1.0000
  O   O17       1.0  0.17482  0.28985  0.47050  1.0000
  O   O18       1.0  0.82518  0.71014  0.52950  1.0000
  O   O19       1.0  0.34910  0.51790  0.53042  1.0000
  O   O20       1.0  0.65090  0.48210  0.46958  1.0000
  O   O21       1.0  0.97306  0.91639  0.42116  1.0000
  O   O22       1.0  0.02695  0.08361  0.57884  1.0000
  O   O23       1.0  0.20118  0.94640  0.49563  1.0000
  O   O24       1.0  0.79883  0.05359  0.50437  1.0000
  O   O25       1.0  0.74343  0.46302  0.22526  1.0000
  O   O26       1.0  0.25658  0.53699  0.77474  1.0000
  O   O27       1.0  0.80060  0.26154  0.24634  1.0000
  O   O28       1.0  0.19940  0.73847  0.75365  1.0000
