data_image0
_chemical_formula_structural       Cd6H48C36N28
_chemical_formula_sum              "Cd6 H48 C36 N28"
_cell_length_a       8.81969
_cell_length_b       11.3493
_cell_length_c       13.1792
_cell_angle_alpha    90.0001
_cell_angle_beta     89.9999
_cell_angle_gamma    105.101

_space_group_name_H-M_alt    "P 1"
_space_group_IT_number       1

loop_
  _space_group_symop_operation_xyz
  'x, y, z'

loop_
  _atom_site_type_symbol
  _atom_site_label
  _atom_site_symmetry_multiplicity
  _atom_site_fract_x
  _atom_site_fract_y
  _atom_site_fract_z
  _atom_site_occupancy
  Cd  Cd1       1.0  0.52655  0.79435  0.21528  1.0000
  Cd  Cd2       1.0  0.47346  0.70565  0.71528  1.0000
  Cd  Cd3       1.0  0.47345  0.20565  0.78472  1.0000
  Cd  Cd4       1.0  0.52655  0.29435  0.28472  1.0000
  Cd  Cd5       1.0  0.00000  0.50000  1.00000  1.0000
  Cd  Cd6       1.0  0.00000  0.00000  0.50000  1.0000
  H   H1        1.0  0.81980  0.63148  0.81996  1.0000
  H   H2        1.0  0.18020  0.86851  0.31996  1.0000
  H   H3        1.0  0.18020  0.36851  0.18004  1.0000
  H   H4        1.0  0.81980  0.13149  0.68004  1.0000
  H   H5        1.0  0.66228  0.54896  0.89770  1.0000
  H   H6        1.0  0.33772  0.95104  0.39770  1.0000
  H   H7        1.0  0.33772  0.45104  0.10230  1.0000
  H   H8        1.0  0.66228  0.04896  0.60230  1.0000
  H   H9        1.0  0.83668  0.69219  0.13464  1.0000
  H   H10       1.0  0.16332  0.80782  0.63463  1.0000
  H   H11       1.0  0.16332  0.30781  0.86537  1.0000
  H   H12       1.0  0.83668  0.19218  0.36537  1.0000
  H   H13       1.0  0.67231  0.58479  0.08086  1.0000
  H   H14       1.0  0.32769  0.91521  0.58086  1.0000
  H   H15       1.0  0.32769  0.41521  0.91914  1.0000
  H   H16       1.0  0.67231  0.08479  0.41914  1.0000
  H   H17       1.0  0.73659  0.95938  0.02760  1.0000
  H   H18       1.0  0.26341  0.54062  0.52760  1.0000
  H   H19       1.0  0.26341  0.04061  0.97240  1.0000
  H   H20       1.0  0.73659  0.45938  0.47240  1.0000
  H   H21       1.0  0.87459  0.90939  0.10433  1.0000
  H   H22       1.0  0.12542  0.59061  0.60433  1.0000
  H   H23       1.0  0.12542  0.09061  0.89566  1.0000
  H   H24       1.0  0.87458  0.40939  0.39566  1.0000
  H   H25       1.0  0.85782  0.84591  0.79175  1.0000
  H   H26       1.0  0.14218  0.65409  0.29175  1.0000
  H   H27       1.0  0.14218  0.15409  0.20825  1.0000
  H   H28       1.0  0.85782  0.34591  0.70825  1.0000
  H   H29       1.0  0.72788  0.92398  0.84849  1.0000
  H   H30       1.0  0.27212  0.57601  0.34849  1.0000
  H   H31       1.0  0.27212  0.07601  0.15151  1.0000
  H   H32       1.0  0.72788  0.42399  0.65151  1.0000
  H   H33       1.0  0.48800  0.65444  0.97669  1.0000
  H   H34       1.0  0.51200  0.84556  0.47669  1.0000
  H   H35       1.0  0.51200  0.34556  0.02331  1.0000
  H   H36       1.0  0.48800  0.15444  0.52331  1.0000
  H   H37       1.0  0.51445  0.81345  0.95468  1.0000
  H   H38       1.0  0.48555  0.68655  0.45468  1.0000
  H   H39       1.0  0.48555  0.18655  0.04532  1.0000
  H   H40       1.0  0.51445  0.31345  0.54532  1.0000
  H   H41       1.0  0.04724  0.80251  0.02840  1.0000
  H   H42       1.0  0.95277  0.69749  0.52840  1.0000
  H   H43       1.0  0.95277  0.19749  0.97160  1.0000
  H   H44       1.0  0.04723  0.30251  0.47160  1.0000
  H   H45       1.0  0.04131  0.77646  0.89450  1.0000
  H   H46       1.0  0.95869  0.72354  0.39450  1.0000
  H   H47       1.0  0.95869  0.22354  0.10550  1.0000
  H   H48       1.0  0.04131  0.27646  0.60550  1.0000
  C   C1        1.0  0.74901  0.63716  0.88749  1.0000
  C   C2        1.0  0.25099  0.86284  0.38749  1.0000
  C   C3        1.0  0.25099  0.36284  0.11251  1.0000
  C   C4        1.0  0.74901  0.13716  0.61251  1.0000
  C   C5        1.0  0.75947  0.67220  0.06801  1.0000
  C   C6        1.0  0.24053  0.82781  0.56801  1.0000
  C   C7        1.0  0.24053  0.32780  0.93199  1.0000
  C   C8        1.0  0.75947  0.17220  0.43199  1.0000
  C   C9        1.0  0.79784  0.88729  0.03766  1.0000
  C   C10       1.0  0.20216  0.61271  0.53766  1.0000
  C   C11       1.0  0.20216  0.11271  0.96234  1.0000
  C   C12       1.0  0.79784  0.38729  0.46234  1.0000
  C   C13       1.0  0.78843  0.85200  0.85964  1.0000
  C   C14       1.0  0.21158  0.64801  0.35965  1.0000
  C   C15       1.0  0.21158  0.14800  0.14035  1.0000
  C   C16       1.0  0.78842  0.35200  0.64035  1.0000
  C   C17       1.0  0.57591  0.74179  0.96508  1.0000
  C   C18       1.0  0.42409  0.75821  0.46508  1.0000
  C   C19       1.0  0.42409  0.25821  0.03492  1.0000
  C   C20       1.0  0.57591  0.24179  0.53492  1.0000
  C   C21       1.0  0.97039  0.78310  0.96163  1.0000
  C   C22       1.0  0.02961  0.71690  0.46163  1.0000
  C   C23       1.0  0.02961  0.21690  0.03837  1.0000
  C   C24       1.0  0.97039  0.28309  0.53837  1.0000
  C   C25       1.0  0.52349  0.49488  0.29854  1.0000
  C   C26       1.0  0.47651  0.00512  0.79853  1.0000
  C   C27       1.0  0.47651  0.50512  0.70146  1.0000
  C   C28       1.0  0.52349  0.99488  0.20147  1.0000
  C   C29       1.0  0.23478  0.63150  0.80087  1.0000
  C   C30       1.0  0.76522  0.86850  0.30087  1.0000
  C   C31       1.0  0.76522  0.36850  0.19913  1.0000
  C   C32       1.0  0.23478  0.13150  0.69913  1.0000
  C   C33       1.0  0.69591  0.30296  0.87313  1.0000
  C   C34       1.0  0.30409  0.19704  0.37313  1.0000
  C   C35       1.0  0.30409  0.69705  0.12687  1.0000
  C   C36       1.0  0.69591  0.80296  0.62687  1.0000
  N   N1        1.0  0.67782  0.76977  0.05592  1.0000
  N   N2        1.0  0.32218  0.73023  0.55593  1.0000
  N   N3        1.0  0.32218  0.23023  0.94407  1.0000
  N   N4        1.0  0.67782  0.26977  0.44407  1.0000
  N   N5        1.0  0.85470  0.66190  0.97728  1.0000
  N   N6        1.0  0.14530  0.83810  0.47728  1.0000
  N   N7        1.0  0.14530  0.33810  0.02272  1.0000
  N   N8        1.0  0.85470  0.16190  0.52272  1.0000
  N   N9        1.0  0.66712  0.73378  0.87257  1.0000
  N   N10       1.0  0.33288  0.76622  0.37257  1.0000
  N   N11       1.0  0.33288  0.26622  0.12743  1.0000
  N   N12       1.0  0.66712  0.23378  0.62743  1.0000
  N   N13       1.0  0.89181  0.88028  0.94764  1.0000
  N   N14       1.0  0.10819  0.61972  0.44764  1.0000
  N   N15       1.0  0.10819  0.11972  0.05236  1.0000
  N   N16       1.0  0.89181  0.38028  0.55236  1.0000
  N   N17       1.0  0.81209  0.35819  0.91199  1.0000
  N   N18       1.0  0.18791  0.14181  0.41199  1.0000
  N   N19       1.0  0.18791  0.64181  0.08801  1.0000
  N   N20       1.0  0.81210  0.85819  0.58801  1.0000
  N   N21       1.0  0.53559  0.59752  0.27861  1.0000
  N   N22       1.0  0.46441  0.90248  0.77861  1.0000
  N   N23       1.0  0.46441  0.40248  0.72139  1.0000
  N   N24       1.0  0.53559  0.09752  0.22139  1.0000
  N   N25       1.0  0.13149  0.57628  0.85182  1.0000
  N   N26       1.0  0.86851  0.92372  0.35182  1.0000
  N   N27       1.0  0.86852  0.42372  0.14818  1.0000
  N   N28       1.0  0.13149  0.07628  0.64818  1.0000
