data_image0
_chemical_formula_structural       Cd4H12C8N36O4
_chemical_formula_sum              "Cd4 H12 C8 N36 O4"
_cell_length_a       6.60495
_cell_length_b       9.87813
_cell_length_c       10.6396
_cell_angle_alpha    90
_cell_angle_beta     97.1001
_cell_angle_gamma    90

_space_group_name_H-M_alt    "P 1"
_space_group_IT_number       1

loop_
  _space_group_symop_operation_xyz
  'x, y, z'

loop_
  _atom_site_type_symbol
  _atom_site_label
  _atom_site_symmetry_multiplicity
  _atom_site_fract_x
  _atom_site_fract_y
  _atom_site_fract_z
  _atom_site_occupancy
  Cd  Cd1       1.0  0.53449  0.16357  0.87338  1.0000
  Cd  Cd2       1.0  0.96551  0.66357  0.62662  1.0000
  Cd  Cd3       1.0  0.46551  0.83643  0.12662  1.0000
  Cd  Cd4       1.0  0.03449  0.33643  0.37338  1.0000
  H   H1        1.0  0.24204  0.48095  0.13104  1.0000
  H   H2        1.0  0.25796  0.98095  0.36896  1.0000
  H   H3        1.0  0.75796  0.51905  0.86896  1.0000
  H   H4        1.0  0.74204  0.01905  0.63104  1.0000
  H   H5        1.0  0.83920  0.27845  0.04242  1.0000
  H   H6        1.0  0.66080  0.77845  0.45758  1.0000
  H   H7        1.0  0.16080  0.72155  0.95758  1.0000
  H   H8        1.0  0.33920  0.22155  0.54242  1.0000
  H   H9        1.0  0.83496  0.12733  0.08994  1.0000
  H   H10       1.0  0.66504  0.62733  0.41006  1.0000
  H   H11       1.0  0.16504  0.87267  0.91006  1.0000
  H   H12       1.0  0.33496  0.37267  0.58994  1.0000
  C   C1        1.0  0.29461  0.27674  0.11419  1.0000
  C   C2        1.0  0.20539  0.77674  0.38581  1.0000
  C   C3        1.0  0.70539  0.72326  0.88581  1.0000
  C   C4        1.0  0.79461  0.22326  0.61419  1.0000
  C   C5        1.0  0.27694  0.44244  0.94461  1.0000
  C   C6        1.0  0.22306  0.94244  0.55539  1.0000
  C   C7        1.0  0.72306  0.55756  0.05539  1.0000
  C   C8        1.0  0.77694  0.05756  0.44461  1.0000
  N   N1        1.0  0.36890  0.16878  0.05749  1.0000
  N   N2        1.0  0.13110  0.66879  0.44251  1.0000
  N   N3        1.0  0.63109  0.83122  0.94251  1.0000
  N   N4        1.0  0.86891  0.33122  0.55749  1.0000
  N   N5        1.0  0.31660  0.44552  0.74747  1.0000
  N   N6        1.0  0.18340  0.94552  0.75253  1.0000
  N   N7        1.0  0.68340  0.55448  0.25253  1.0000
  N   N8        1.0  0.81660  0.05448  0.24747  1.0000
  N   N9        1.0  0.23862  0.24112  0.22740  1.0000
  N   N10       1.0  0.26138  0.74112  0.27260  1.0000
  N   N11       1.0  0.76138  0.75888  0.77260  1.0000
  N   N12       1.0  0.73862  0.25888  0.72740  1.0000
  N   N13       1.0  0.35774  0.06601  0.13984  1.0000
  N   N14       1.0  0.14226  0.56601  0.36016  1.0000
  N   N15       1.0  0.64226  0.93399  0.86016  1.0000
  N   N16       1.0  0.85774  0.43399  0.63984  1.0000
  N   N17       1.0  0.28293  0.10845  0.24054  1.0000
  N   N18       1.0  0.21708  0.60845  0.25946  1.0000
  N   N19       1.0  0.71707  0.89155  0.75946  1.0000
  N   N20       1.0  0.78293  0.39155  0.74054  1.0000
  N   N21       1.0  0.22913  0.55885  0.77493  1.0000
  N   N22       1.0  0.27087  0.05885  0.72507  1.0000
  N   N23       1.0  0.77087  0.44115  0.22507  1.0000
  N   N24       1.0  0.72913  0.94115  0.27493  1.0000
  N   N25       1.0  0.35148  0.36966  0.85335  1.0000
  N   N26       1.0  0.14852  0.86966  0.64665  1.0000
  N   N27       1.0  0.64852  0.63034  0.14664  1.0000
  N   N28       1.0  0.85148  0.13035  0.35335  1.0000
  N   N29       1.0  0.20066  0.56102  0.89838  1.0000
  N   N30       1.0  0.29934  0.06102  0.60162  1.0000
  N   N31       1.0  0.79934  0.43898  0.10162  1.0000
  N   N32       1.0  0.70066  0.93898  0.39838  1.0000
  N   N33       1.0  0.27636  0.40582  0.06859  1.0000
  N   N34       1.0  0.22364  0.90582  0.43141  1.0000
  N   N35       1.0  0.72364  0.59418  0.93141  1.0000
  N   N36       1.0  0.77636  0.09418  0.56859  1.0000
  O   O1        1.0  0.83806  0.18248  0.01180  1.0000
  O   O2        1.0  0.66194  0.68248  0.48820  1.0000
  O   O3        1.0  0.16194  0.81752  0.98820  1.0000
  O   O4        1.0  0.33806  0.31752  0.51180  1.0000
