data_image0
_chemical_formula_structural       K2H54C38N4O2
_chemical_formula_sum              "K2 H54 C38 N4 O2"
_cell_length_a       7.25501
_cell_length_b       11.1671
_cell_length_c       11.7908
_cell_angle_alpha    86.0765
_cell_angle_beta     72.5917
_cell_angle_gamma    74.789

_space_group_name_H-M_alt    "P 1"
_space_group_IT_number       1

loop_
  _space_group_symop_operation_xyz
  'x, y, z'

loop_
  _atom_site_type_symbol
  _atom_site_label
  _atom_site_symmetry_multiplicity
  _atom_site_fract_x
  _atom_site_fract_y
  _atom_site_fract_z
  _atom_site_occupancy
  K   K1        1.0  0.49999  0.50001  0.50000  1.0000
  K   K2        1.0  0.00002  0.49999  0.49999  1.0000
  H   H1        1.0  0.39348  0.51156  0.16134  1.0000
  H   H2        1.0  0.60655  0.48846  0.83864  1.0000
  H   H3        1.0  0.37677  0.74607  0.07644  1.0000
  H   H4        1.0  0.62322  0.25395  0.92358  1.0000
  H   H5        1.0  0.24864  0.89658  0.27100  1.0000
  H   H6        1.0  0.75135  0.10343  0.72900  1.0000
  H   H7        1.0  0.97218  0.93130  0.67223  1.0000
  H   H8        1.0  0.02780  0.06870  0.32776  1.0000
  H   H9        1.0  0.21276  0.87540  0.69182  1.0000
  H   H10       1.0  0.78722  0.12460  0.30818  1.0000
  H   H11       1.0  0.33408  0.65109  0.74623  1.0000
  H   H12       1.0  0.66591  0.34890  0.25378  1.0000
  H   H13       1.0  0.17691  0.54938  0.76441  1.0000
  H   H14       1.0  0.82308  0.45061  0.23559  1.0000
  H   H15       1.0  0.74773  0.78502  0.69934  1.0000
  H   H16       1.0  0.25225  0.21497  0.30066  1.0000
  H   H17       1.0  0.83046  0.62729  0.73671  1.0000
  H   H18       1.0  0.16954  0.37270  0.26329  1.0000
  H   H19       1.0  0.59317  0.74898  0.91383  1.0000
  H   H20       1.0  0.40683  0.25102  0.08616  1.0000
  H   H21       1.0  0.86919  0.57233  0.94226  1.0000
  H   H22       1.0  0.13080  0.42767  0.05775  1.0000
  H   H23       1.0  0.80769  0.69039  0.04972  1.0000
  H   H24       1.0  0.19230  0.30961  0.95027  1.0000
  H   H25       1.0  0.17948  0.61711  0.96187  1.0000
  H   H26       1.0  0.82051  0.38288  0.03814  1.0000
  H   H27       1.0  0.68806  0.91837  0.99574  1.0000
  H   H28       1.0  0.31194  0.08162  0.00426  1.0000
  H   H29       1.0  0.66000  0.95564  0.85256  1.0000
  H   H30       1.0  0.33998  0.04436  0.14744  1.0000
  H   H31       1.0  0.97279  0.99846  0.86829  1.0000
  H   H32       1.0  0.02720  0.00154  0.13171  1.0000
  H   H33       1.0  0.03501  0.84038  0.02320  1.0000
  H   H34       1.0  0.96498  0.15961  0.97680  1.0000
  H   H35       1.0  0.24915  0.82283  0.89809  1.0000
  H   H36       1.0  0.75083  0.17716  0.10191  1.0000
  H   H37       1.0  0.08044  0.36585  0.75010  1.0000
  H   H38       1.0  0.91957  0.63417  0.24987  1.0000
  H   H39       1.0  0.34105  0.33250  0.74206  1.0000
  H   H40       1.0  0.65895  0.66751  0.25796  1.0000
  H   H41       1.0  0.28654  0.13387  0.80976  1.0000
  H   H42       1.0  0.71344  0.86614  0.19024  1.0000
  H   H43       1.0  0.08568  0.15450  0.74629  1.0000
  H   H44       1.0  0.91432  0.84552  0.25369  1.0000
  H   H45       1.0  0.53438  0.08667  0.61698  1.0000
  H   H46       1.0  0.46562  0.91333  0.38303  1.0000
  H   H47       1.0  0.34956  0.01718  0.59936  1.0000
  H   H48       1.0  0.65043  0.98283  0.40063  1.0000
  H   H49       1.0  0.46498  0.19976  0.44497  1.0000
  H   H50       1.0  0.53505  0.80024  0.55502  1.0000
  H   H51       1.0  0.21010  0.19143  0.49448  1.0000
  H   H52       1.0  0.78991  0.80860  0.50552  1.0000
  H   H53       1.0  0.14370  0.85953  0.50358  1.0000
  H   H54       1.0  0.85628  0.14047  0.49642  1.0000
  C   C1        1.0  0.34667  0.59730  0.21315  1.0000
  C   C2        1.0  0.65336  0.40272  0.78686  1.0000
  C   C3        1.0  0.33867  0.71890  0.16905  1.0000
  C   C4        1.0  0.66133  0.28111  0.83095  1.0000
  C   C5        1.0  0.27204  0.79647  0.26940  1.0000
  C   C6        1.0  0.72795  0.20353  0.73061  1.0000
  C   C7        1.0  0.24124  0.71835  0.36957  1.0000
  C   C8        1.0  0.75878  0.28164  0.63041  1.0000
  C   C9        1.0  0.16969  0.75856  0.49160  1.0000
  C   C10       1.0  0.83031  0.24144  0.50842  1.0000
  C   C11       1.0  0.05513  0.73226  0.70432  1.0000
  C   C12       1.0  0.94484  0.26774  0.29570  1.0000
  C   C13       1.0  0.05782  0.86636  0.72402  1.0000
  C   C14       1.0  0.94216  0.13363  0.27598  1.0000
  C   C15       1.0  0.17728  0.64555  0.77862  1.0000
  C   C16       1.0  0.82271  0.35444  0.22138  1.0000
  C   C17       1.0  0.83620  0.72252  0.75109  1.0000
  C   C18       1.0  0.16381  0.27747  0.24890  1.0000
  C   C19       1.0  0.74843  0.75712  0.88354  1.0000
  C   C20       1.0  0.25157  0.24288  0.11646  1.0000
  C   C21       1.0  0.87292  0.66856  0.95429  1.0000
  C   C22       1.0  0.12708  0.33143  0.04571  1.0000
  C   C23       1.0  0.08951  0.68024  0.91116  1.0000
  C   C24       1.0  0.91048  0.31975  0.08884  1.0000
  C   C25       1.0  0.75260  0.89128  0.90114  1.0000
  C   C26       1.0  0.24737  0.10871  0.09886  1.0000
  C   C27       1.0  0.96952  0.90213  0.85674  1.0000
  C   C28       1.0  0.03046  0.09786  0.14326  1.0000
  C   C29       1.0  0.09371  0.81453  0.92831  1.0000
  C   C30       1.0  0.90627  0.18547  0.07169  1.0000
  C   C31       1.0  0.22999  0.30513  0.71011  1.0000
  C   C32       1.0  0.77004  0.69487  0.28988  1.0000
  C   C33       1.0  0.23542  0.16810  0.73208  1.0000
  C   C34       1.0  0.76458  0.83191  0.26792  1.0000
  C   C35       1.0  0.37866  0.10476  0.61613  1.0000
  C   C36       1.0  0.62134  0.89524  0.38387  1.0000
  C   C37       1.0  0.33609  0.20157  0.52373  1.0000
  C   C38       1.0  0.66394  0.79843  0.47627  1.0000
  N   N1        1.0  0.28850  0.59530  0.33365  1.0000
  N   N2        1.0  0.71155  0.40470  0.66635  1.0000
  N   N3        1.0  0.13576  0.68518  0.58178  1.0000
  N   N4        1.0  0.86424  0.31481  0.41823  1.0000
  O   O1        1.0  0.28184  0.32137  0.58138  1.0000
  O   O2        1.0  0.71823  0.67863  0.41861  1.0000
