data_image0
_chemical_formula_structural       Ni2H52C32N8O8
_chemical_formula_sum              "Ni2 H52 C32 N8 O8"
_cell_length_a       9.25588
_cell_length_b       9.97951
_cell_length_c       10.699
_cell_angle_alpha    92.3873
_cell_angle_beta     99.6916
_cell_angle_gamma    106.939

_space_group_name_H-M_alt    "P 1"
_space_group_IT_number       1

loop_
  _space_group_symop_operation_xyz
  'x, y, z'

loop_
  _atom_site_type_symbol
  _atom_site_label
  _atom_site_symmetry_multiplicity
  _atom_site_fract_x
  _atom_site_fract_y
  _atom_site_fract_z
  _atom_site_occupancy
  Ni  Ni1       1.0  0.57231  0.24379  0.23142  1.0000
  Ni  Ni2       1.0  0.42770  0.75621  0.76858  1.0000
  H   H1        1.0  0.64930  0.02962  0.17248  1.0000
  H   H2        1.0  0.35069  0.97038  0.82751  1.0000
  H   H3        1.0  0.69635  0.13876  0.06743  1.0000
  H   H4        1.0  0.30364  0.86124  0.93256  1.0000
  H   H5        1.0  0.92879  0.27612  0.20045  1.0000
  H   H6        1.0  0.07121  0.72387  0.79954  1.0000
  H   H7        1.0  0.92892  0.09823  0.18300  1.0000
  H   H8        1.0  0.07108  0.90176  0.81699  1.0000
  H   H9        1.0  0.63674  0.14365  0.43915  1.0000
  H   H10       1.0  0.36327  0.85635  0.56085  1.0000
  H   H11       1.0  0.02257  0.18497  0.40337  1.0000
  H   H12       1.0  0.97743  0.81501  0.59662  1.0000
  H   H13       1.0  0.83976  0.06218  0.39373  1.0000
  H   H14       1.0  0.16023  0.93782  0.60626  1.0000
  H   H15       1.0  0.51536  0.35356  0.03030  1.0000
  H   H16       1.0  0.48465  0.64644  0.96970  1.0000
  H   H17       1.0  0.47958  0.18697  0.98502  1.0000
  H   H18       1.0  0.52043  0.81303  0.01498  1.0000
  H   H19       1.0  0.90171  0.28849  0.54139  1.0000
  H   H20       1.0  0.09830  0.71150  0.45860  1.0000
  H   H21       1.0  0.89637  0.38172  0.40352  1.0000
  H   H22       1.0  0.10364  0.61828  0.59649  1.0000
  H   H23       1.0  0.50824  0.45432  0.31026  1.0000
  H   H24       1.0  0.49175  0.54568  0.68974  1.0000
  H   H25       1.0  0.69990  0.44731  0.49331  1.0000
  H   H26       1.0  0.30010  0.55268  0.50668  1.0000
  H   H27       1.0  0.65059  0.31875  0.60196  1.0000
  H   H28       1.0  0.34941  0.68125  0.39804  1.0000
  H   H29       1.0  0.39429  0.20916  0.45278  1.0000
  H   H30       1.0  0.60572  0.79084  0.54721  1.0000
  H   H31       1.0  0.41791  0.38402  0.51161  1.0000
  H   H32       1.0  0.58210  0.61597  0.48839  1.0000
  H   H33       1.0  0.23141  0.39746  0.30788  1.0000
  H   H34       1.0  0.76858  0.60252  0.69212  1.0000
  H   H35       1.0  0.21806  0.21875  0.26960  1.0000
  H   H36       1.0  0.78195  0.78124  0.73040  1.0000
  H   H37       1.0  0.33123  0.45486  0.10195  1.0000
  H   H38       1.0  0.66878  0.54514  0.89805  1.0000
  H   H39       1.0  0.13966  0.34669  0.08355  1.0000
  H   H40       1.0  0.86034  0.65331  0.91645  1.0000
  H   H41       1.0  0.23369  0.13241  0.05590  1.0000
  H   H42       1.0  0.76632  0.86759  0.94410  1.0000
  H   H43       1.0  0.24529  0.24492  0.93186  1.0000
  H   H44       1.0  0.75472  0.75509  0.06814  1.0000
  H   H45       1.0  0.23386  0.66935  0.10296  1.0000
  H   H46       1.0  0.76614  0.33065  0.89706  1.0000
  H   H47       1.0  0.97911  0.50185  0.12479  1.0000
  H   H48       1.0  0.02090  0.49815  0.87523  1.0000
  H   H49       1.0  0.87783  0.83201  0.32749  1.0000
  H   H50       1.0  0.12217  0.16801  0.67251  1.0000
  H   H51       1.0  0.13731  0.99840  0.31294  1.0000
  H   H52       1.0  0.86269  0.00161  0.68707  1.0000
  C   C1        1.0  0.87287  0.16923  0.22338  1.0000
  C   C2        1.0  0.12712  0.83077  0.77662  1.0000
  C   C3        1.0  0.89906  0.16760  0.36814  1.0000
  C   C4        1.0  0.10093  0.83240  0.63186  1.0000
  C   C5        1.0  0.85172  0.27880  0.43928  1.0000
  C   C6        1.0  0.14829  0.72119  0.56072  1.0000
  C   C7        1.0  0.63103  0.33859  0.50076  1.0000
  C   C8        1.0  0.36897  0.66141  0.49924  1.0000
  C   C9        1.0  0.46191  0.31960  0.45058  1.0000
  C   C10       1.0  0.53810  0.68039  0.54942  1.0000
  C   C11       1.0  0.28159  0.32784  0.25779  1.0000
  C   C12       1.0  0.71841  0.67215  0.74220  1.0000
  C   C13       1.0  0.25960  0.34893  0.11627  1.0000
  C   C14       1.0  0.74040  0.65107  0.88373  1.0000
  C   C15       1.0  0.29241  0.23835  0.03204  1.0000
  C   C16       1.0  0.70760  0.76165  0.96796  1.0000
  C   C17       1.0  0.35562  0.94208  0.19591  1.0000
  C   C18       1.0  0.64437  0.05792  0.80408  1.0000
  C   C19       1.0  0.20110  0.84383  0.20727  1.0000
  C   C20       1.0  0.79891  0.15618  0.79274  1.0000
  C   C21       1.0  0.15592  0.70388  0.15330  1.0000
  C   C22       1.0  0.84408  0.29613  0.84672  1.0000
  C   C23       1.0  0.01480  0.61121  0.16496  1.0000
  C   C24       1.0  0.98519  0.38880  0.83506  1.0000
  C   C25       1.0  0.91435  0.65728  0.22806  1.0000
  C   C26       1.0  0.08564  0.34273  0.77195  1.0000
  C   C27       1.0  0.95794  0.79797  0.27948  1.0000
  C   C28       1.0  0.04205  0.20205  0.72052  1.0000
  C   C29       1.0  0.10063  0.88986  0.27045  1.0000
  C   C30       1.0  0.89937  0.11015  0.72956  1.0000
  C   C31       1.0  0.76142  0.55663  0.24160  1.0000
  C   C32       1.0  0.23856  0.44338  0.75838  1.0000
  N   N1        1.0  0.70934  0.13202  0.16413  1.0000
  N   N2        1.0  0.29065  0.86798  0.83587  1.0000
  N   N3        1.0  0.68346  0.24547  0.42044  1.0000
  N   N4        1.0  0.31655  0.75452  0.57956  1.0000
  N   N5        1.0  0.45794  0.25457  0.04949  1.0000
  N   N6        1.0  0.54207  0.74543  0.95051  1.0000
  N   N7        1.0  0.44291  0.35144  0.31691  1.0000
  N   N8        1.0  0.55709  0.64856  0.68309  1.0000
  O   O1        1.0  0.40463  0.05733  0.26863  1.0000
  O   O2        1.0  0.59538  0.94267  0.73136  1.0000
  O   O3        1.0  0.74005  0.42764  0.20263  1.0000
  O   O4        1.0  0.25995  0.57237  0.79738  1.0000
  O   O5        1.0  0.42517  0.90471  0.11505  1.0000
  O   O6        1.0  0.57482  0.09528  0.88495  1.0000
  O   O7        1.0  0.66912  0.60515  0.28977  1.0000
  O   O8        1.0  0.33084  0.39487  0.71019  1.0000
