data_image0
_chemical_formula_structural       Zn4H12C20Br4N16
_chemical_formula_sum              "Zn4 H12 C20 Br4 N16"
_cell_length_a       7.63829
_cell_length_b       10.0746
_cell_length_c       10.0428
_cell_angle_alpha    90
_cell_angle_beta     90
_cell_angle_gamma    90

_space_group_name_H-M_alt    "P 1"
_space_group_IT_number       1

loop_
  _space_group_symop_operation_xyz
  'x, y, z'

loop_
  _atom_site_type_symbol
  _atom_site_label
  _atom_site_symmetry_multiplicity
  _atom_site_fract_x
  _atom_site_fract_y
  _atom_site_fract_z
  _atom_site_occupancy
  Zn  Zn1       1.0  0.11968  0.52990  0.38839  1.0000
  Zn  Zn2       1.0  0.38032  0.47010  0.88839  1.0000
  Zn  Zn3       1.0  0.61968  0.97010  0.61161  1.0000
  Zn  Zn4       1.0  0.88032  0.02990  0.11161  1.0000
  H   H1        1.0  0.97928  0.36372  0.60763  1.0000
  H   H2        1.0  0.52072  0.63628  0.10763  1.0000
  H   H3        1.0  0.47928  0.13628  0.39237  1.0000
  H   H4        1.0  0.02072  0.86372  0.89237  1.0000
  H   H5        1.0  0.93590  0.76757  0.51703  1.0000
  H   H6        1.0  0.56410  0.23243  0.01703  1.0000
  H   H7        1.0  0.43590  0.73243  0.48297  1.0000
  H   H8        1.0  0.06411  0.26757  0.98297  1.0000
  H   H9        1.0  0.39229  0.77749  0.80625  1.0000
  H   H10       1.0  0.10771  0.22251  0.30625  1.0000
  H   H11       1.0  0.89229  0.72251  0.19375  1.0000
  H   H12       1.0  0.60771  0.27749  0.69375  1.0000
  C   C1        1.0  0.68883  0.56888  0.71929  1.0000
  C   C2        1.0  0.81117  0.43112  0.21929  1.0000
  C   C3        1.0  0.18883  0.93112  0.28071  1.0000
  C   C4        1.0  0.31117  0.06888  0.78071  1.0000
  C   C5        1.0  0.90853  0.45643  0.62433  1.0000
  C   C6        1.0  0.59147  0.54357  0.12433  1.0000
  C   C7        1.0  0.40853  0.04357  0.37567  1.0000
  C   C8        1.0  0.09147  0.95643  0.87567  1.0000
  C   C9        1.0  0.88700  0.68234  0.57278  1.0000
  C   C10       1.0  0.61299  0.31766  0.07278  1.0000
  C   C11       1.0  0.38700  0.81766  0.42722  1.0000
  C   C12       1.0  0.11299  0.18234  0.92722  1.0000
  C   C13       1.0  0.74435  0.68859  0.65741  1.0000
  C   C14       1.0  0.75565  0.31141  0.15741  1.0000
  C   C15       1.0  0.24435  0.81141  0.34259  1.0000
  C   C16       1.0  0.25565  0.18859  0.84259  1.0000
  C   C17       1.0  0.50679  0.72591  0.76765  1.0000
  C   C18       1.0  0.99321  0.27409  0.26765  1.0000
  C   C19       1.0  0.00679  0.77409  0.23235  1.0000
  C   C20       1.0  0.49321  0.22591  0.73235  1.0000
  Br  Br1       1.0  0.39058  0.43194  0.44393  1.0000
  Br  Br2       1.0  0.10942  0.56806  0.94393  1.0000
  Br  Br3       1.0  0.89058  0.06806  0.55607  1.0000
  Br  Br4       1.0  0.60942  0.93194  0.05607  1.0000
  N   N1        1.0  0.77164  0.45272  0.70595  1.0000
  N   N2        1.0  0.72836  0.54727  0.20595  1.0000
  N   N3        1.0  0.27164  0.04728  0.29405  1.0000
  N   N4        1.0  0.22836  0.95272  0.79405  1.0000
  N   N5        1.0  0.62669  0.78722  0.69069  1.0000
  N   N6        1.0  0.87331  0.21278  0.19068  1.0000
  N   N7        1.0  0.12669  0.71278  0.30931  1.0000
  N   N8        1.0  0.37331  0.28722  0.80931  1.0000
  N   N9        1.0  0.53760  0.59511  0.78795  1.0000
  N   N10       1.0  0.96240  0.40489  0.28795  1.0000
  N   N11       1.0  0.03760  0.90489  0.21205  1.0000
  N   N12       1.0  0.46240  0.09511  0.71205  1.0000
  N   N13       1.0  0.96630  0.56392  0.55572  1.0000
  N   N14       1.0  0.53370  0.43608  0.05572  1.0000
  N   N15       1.0  0.46630  0.93608  0.44428  1.0000
  N   N16       1.0  0.03370  0.06392  0.94428  1.0000
