data_image0
_chemical_formula_structural       Na2H34C36O18
_chemical_formula_sum              "Na2 H34 C36 O18"
_cell_length_a       7.67249
_cell_length_b       10.6693
_cell_length_c       13.0005
_cell_angle_alpha    107.597
_cell_angle_beta     107.211
_cell_angle_gamma    89.9142

_space_group_name_H-M_alt    "P 1"
_space_group_IT_number       1

loop_
  _space_group_symop_operation_xyz
  'x, y, z'

loop_
  _atom_site_type_symbol
  _atom_site_label
  _atom_site_symmetry_multiplicity
  _atom_site_fract_x
  _atom_site_fract_y
  _atom_site_fract_z
  _atom_site_occupancy
  Na  Na1       1.0  0.92602  0.25020  0.00027  1.0000
  Na  Na2       1.0  0.07399  0.74981  0.99974  1.0000
  H   H1        1.0  0.00000  0.50000  0.00000  1.0000
  H   H2        1.0  0.99999  1.00000  0.99999  1.0000
  H   H3        1.0  0.47429  0.85070  0.83838  1.0000
  H   H4        1.0  0.63519  0.64930  0.16165  1.0000
  H   H5        1.0  0.52571  0.14930  0.16162  1.0000
  H   H6        1.0  0.36479  0.35070  0.83834  1.0000
  H   H7        1.0  0.48563  0.81359  0.69655  1.0000
  H   H8        1.0  0.78900  0.68620  0.30336  1.0000
  H   H9        1.0  0.51436  0.18641  0.30345  1.0000
  H   H10       1.0  0.21098  0.31380  0.69662  1.0000
  H   H11       1.0  0.68819  0.82299  0.81024  1.0000
  H   H12       1.0  0.87722  0.67690  0.18952  1.0000
  H   H13       1.0  0.31180  0.17700  0.18975  1.0000
  H   H14       1.0  0.12276  0.32309  0.81046  1.0000
  H   H15       1.0  0.53214  0.19665  0.93808  1.0000
  H   H16       1.0  0.59343  0.30258  0.06212  1.0000
  H   H17       1.0  0.46785  0.80335  0.06192  1.0000
  H   H18       1.0  0.40657  0.69742  0.93788  1.0000
  H   H19       1.0  0.77871  0.20909  0.76364  1.0000
  H   H20       1.0  0.01421  0.29043  0.23626  1.0000
  H   H21       1.0  0.22130  0.79091  0.23637  1.0000
  H   H22       1.0  0.98580  0.70957  0.76374  1.0000
  H   H23       1.0  0.33732  0.39794  0.49933  1.0000
  H   H24       1.0  0.83849  0.10180  0.50060  1.0000
  H   H25       1.0  0.66269  0.60207  0.50067  1.0000
  H   H26       1.0  0.16150  0.89820  0.49939  1.0000
  H   H27       1.0  0.54778  0.06022  0.59494  1.0000
  H   H28       1.0  0.95263  0.43937  0.40514  1.0000
  H   H29       1.0  0.45223  0.93977  0.40507  1.0000
  H   H30       1.0  0.04738  0.56063  0.59486  1.0000
  H   H31       1.0  0.32546  0.15416  0.45888  1.0000
  H   H32       1.0  0.86722  0.34559  0.54134  1.0000
  H   H33       1.0  0.67455  0.84583  0.54112  1.0000
  H   H34       1.0  0.13279  0.65441  0.45866  1.0000
  C   C1        1.0  0.68811  0.38852  0.73086  1.0000
  C   C2        1.0  0.95679  0.11100  0.26898  1.0000
  C   C3        1.0  0.31191  0.61149  0.26916  1.0000
  C   C4        1.0  0.04321  0.88900  0.73102  1.0000
  C   C5        1.0  0.56054  0.43833  0.65364  1.0000
  C   C6        1.0  0.90671  0.06125  0.34617  1.0000
  C   C7        1.0  0.43948  0.56167  0.34637  1.0000
  C   C8        1.0  0.09327  0.93875  0.65383  1.0000
  C   C9        1.0  0.43294  0.35498  0.55652  1.0000
  C   C10       1.0  0.87671  0.14470  0.44343  1.0000
  C   C11       1.0  0.56707  0.64503  0.44349  1.0000
  C   C12       1.0  0.12328  0.85531  0.55657  1.0000
  C   C13       1.0  0.42813  0.21846  0.53433  1.0000
  C   C14       1.0  0.89404  0.28123  0.46574  1.0000
  C   C15       1.0  0.57189  0.78154  0.46567  1.0000
  C   C16       1.0  0.10596  0.71877  0.53426  1.0000
  C   C17       1.0  0.55204  0.16651  0.60985  1.0000
  C   C18       1.0  0.94205  0.33309  0.39019  1.0000
  C   C19       1.0  0.44797  0.83349  0.39017  1.0000
  C   C20       1.0  0.05795  0.66691  0.60981  1.0000
  C   C21       1.0  0.68078  0.25069  0.70627  1.0000
  C   C22       1.0  0.97399  0.24884  0.29365  1.0000
  C   C23       1.0  0.31924  0.74932  0.29375  1.0000
  C   C24       1.0  0.02601  0.75116  0.70635  1.0000
  C   C25       1.0  0.82666  0.47604  0.83656  1.0000
  C   C26       1.0  0.98929  0.02349  0.16312  1.0000
  C   C27       1.0  0.17337  0.52398  0.16345  1.0000
  C   C28       1.0  0.01071  0.97653  0.83688  1.0000
  C   C29       1.0  0.51139  0.64969  0.76071  1.0000
  C   C30       1.0  0.74971  0.85027  0.23948  1.0000
  C   C31       1.0  0.48863  0.35032  0.23929  1.0000
  C   C32       1.0  0.25027  0.14973  0.76052  1.0000
  C   C33       1.0  0.53983  0.79349  0.77743  1.0000
  C   C34       1.0  0.76180  0.70639  0.22249  1.0000
  C   C35       1.0  0.46016  0.20651  0.22257  1.0000
  C   C36       1.0  0.23818  0.29361  0.77750  1.0000
  O   O1        1.0  0.90585  0.41919  0.91209  1.0000
  O   O2        1.0  0.99456  0.08075  0.08819  1.0000
  O   O3        1.0  0.09416  0.58080  0.08792  1.0000
  O   O4        1.0  0.00542  0.91924  0.91180  1.0000
  O   O5        1.0  0.86315  0.59504  0.84974  1.0000
  O   O6        1.0  0.01092  0.90406  0.14924  1.0000
  O   O7        1.0  0.13687  0.40495  0.15026  1.0000
  O   O8        1.0  0.98908  0.09593  0.85076  1.0000
  O   O9        1.0  0.55713  0.57371  0.66847  1.0000
  O   O10       1.0  0.88863  0.92588  0.33122  1.0000
  O   O11       1.0  0.44287  0.42629  0.33154  1.0000
  O   O12       1.0  0.11135  0.07411  0.66877  1.0000
  O   O13       1.0  0.45338  0.59919  0.81858  1.0000
  O   O14       1.0  0.63296  0.90109  0.18227  1.0000
  O   O15       1.0  0.54662  0.40080  0.18143  1.0000
  O   O16       1.0  0.36703  0.09891  0.81771  1.0000
  O   O17       1.0  0.63826  0.24927  0.00046  1.0000
  O   O18       1.0  0.36174  0.75073  0.99954  1.0000
