data_image0
_chemical_formula_structural       Na4H44C36O24
_chemical_formula_sum              "Na4 H44 C36 O24"
_cell_length_a       6.77669
_cell_length_b       10.4367
_cell_length_c       15.1393
_cell_angle_alpha    104.624
_cell_angle_beta     90
_cell_angle_gamma    90

_space_group_name_H-M_alt    "P 1"
_space_group_IT_number       1

loop_
  _space_group_symop_operation_xyz
  'x, y, z'

loop_
  _atom_site_type_symbol
  _atom_site_label
  _atom_site_symmetry_multiplicity
  _atom_site_fract_x
  _atom_site_fract_y
  _atom_site_fract_z
  _atom_site_occupancy
  Na  Na1       1.0  0.48496  0.61759  0.38590  1.0000
  Na  Na2       1.0  0.98496  0.88241  0.61410  1.0000
  Na  Na3       1.0  0.51504  0.38241  0.61410  1.0000
  Na  Na4       1.0  0.01504  0.11759  0.38590  1.0000
  H   H1        1.0  0.27257  0.87746  0.29531  1.0000
  H   H2        1.0  0.77257  0.62254  0.70469  1.0000
  H   H3        1.0  0.72743  0.12253  0.70469  1.0000
  H   H4        1.0  0.22743  0.37746  0.29531  1.0000
  H   H5        1.0  0.52670  0.92066  0.31199  1.0000
  H   H6        1.0  0.02670  0.57934  0.68801  1.0000
  H   H7        1.0  0.47330  0.07934  0.68801  1.0000
  H   H8        1.0  0.97330  0.42066  0.31199  1.0000
  H   H9        1.0  0.44512  0.82697  0.20314  1.0000
  H   H10       1.0  0.94512  0.67303  0.79686  1.0000
  H   H11       1.0  0.55488  0.17303  0.79686  1.0000
  H   H12       1.0  0.05488  0.32697  0.20314  1.0000
  H   H13       1.0  0.35825  0.08026  0.01916  1.0000
  H   H14       1.0  0.85826  0.41974  0.98084  1.0000
  H   H15       1.0  0.64174  0.91974  0.98084  1.0000
  H   H16       1.0  0.14174  0.58026  0.01916  1.0000
  H   H17       1.0  0.36806  0.28751  0.96626  1.0000
  H   H18       1.0  0.86806  0.21249  0.03374  1.0000
  H   H19       1.0  0.63194  0.71249  0.03374  1.0000
  H   H20       1.0  0.13194  0.78751  0.96626  1.0000
  H   H21       1.0  0.51853  0.49279  0.06833  1.0000
  H   H22       1.0  0.01853  0.00721  0.93167  1.0000
  H   H23       1.0  0.48147  0.50721  0.93167  1.0000
  H   H24       1.0  0.98147  0.99279  0.06833  1.0000
  H   H25       1.0  0.65061  0.48658  0.21905  1.0000
  H   H26       1.0  0.15061  0.01342  0.78095  1.0000
  H   H27       1.0  0.34939  0.51341  0.78095  1.0000
  H   H28       1.0  0.84939  0.98658  0.21905  1.0000
  H   H29       1.0  0.55503  0.86825  0.51725  1.0000
  H   H30       1.0  0.05503  0.63175  0.48275  1.0000
  H   H31       1.0  0.44497  0.13174  0.48275  1.0000
  H   H32       1.0  0.94497  0.36826  0.51725  1.0000
  H   H33       1.0  0.37929  0.80551  0.56255  1.0000
  H   H34       1.0  0.87928  0.69449  0.43745  1.0000
  H   H35       1.0  0.62072  0.19449  0.43745  1.0000
  H   H36       1.0  0.12072  0.30551  0.56255  1.0000
  H   H37       1.0  0.30135  0.56694  0.53830  1.0000
  H   H38       1.0  0.80135  0.93306  0.46170  1.0000
  H   H39       1.0  0.69865  0.43306  0.46170  1.0000
  H   H40       1.0  0.19865  0.06694  0.53830  1.0000
  H   H41       1.0  0.19643  0.44519  0.47316  1.0000
  H   H42       1.0  0.69643  0.05481  0.52684  1.0000
  H   H43       1.0  0.80357  0.55481  0.52684  1.0000
  H   H44       1.0  0.30357  0.94519  0.47316  1.0000
  C   C1        1.0  0.57961  0.28206  0.20613  1.0000
  C   C2        1.0  0.07961  0.21794  0.79387  1.0000
  C   C3        1.0  0.42038  0.71794  0.79387  1.0000
  C   C4        1.0  0.92039  0.78206  0.20613  1.0000
  C   C5        1.0  0.49881  0.16847  0.14699  1.0000
  C   C6        1.0  0.99881  0.33154  0.85301  1.0000
  C   C7        1.0  0.50118  0.83153  0.85301  1.0000
  C   C8        1.0  0.00119  0.66847  0.14700  1.0000
  C   C9        1.0  0.42333  0.17016  0.06172  1.0000
  C   C10       1.0  0.92333  0.32984  0.93828  1.0000
  C   C11       1.0  0.57666  0.82984  0.93827  1.0000
  C   C12       1.0  0.07667  0.67016  0.06172  1.0000
  C   C13       1.0  0.42958  0.28667  0.03267  1.0000
  C   C14       1.0  0.92958  0.21332  0.96733  1.0000
  C   C15       1.0  0.57041  0.71333  0.96733  1.0000
  C   C16       1.0  0.07042  0.78667  0.03267  1.0000
  C   C17       1.0  0.51285  0.40043  0.08940  1.0000
  C   C18       1.0  0.01285  0.09957  0.91060  1.0000
  C   C19       1.0  0.48715  0.59957  0.91060  1.0000
  C   C20       1.0  0.98715  0.90043  0.08940  1.0000
  C   C21       1.0  0.58643  0.39764  0.17474  1.0000
  C   C22       1.0  0.08643  0.10236  0.82526  1.0000
  C   C23       1.0  0.41357  0.60235  0.82526  1.0000
  C   C24       1.0  0.91357  0.89765  0.17474  1.0000
  C   C25       1.0  0.64506  0.29090  0.30297  1.0000
  C   C26       1.0  0.14506  0.20910  0.69703  1.0000
  C   C27       1.0  0.35494  0.70910  0.69703  1.0000
  C   C28       1.0  0.85494  0.79090  0.30297  1.0000
  C   C29       1.0  0.37117  0.03377  0.23880  1.0000
  C   C30       1.0  0.87119  0.46624  0.76120  1.0000
  C   C31       1.0  0.62881  0.96624  0.76120  1.0000
  C   C32       1.0  0.12882  0.53377  0.23880  1.0000
  C   C33       1.0  0.40380  0.90575  0.26295  1.0000
  C   C34       1.0  0.90380  0.59425  0.73705  1.0000
  C   C35       1.0  0.59620  0.09424  0.73705  1.0000
  C   C36       1.0  0.09620  0.40575  0.26295  1.0000
  O   O1        1.0  0.62298  0.40457  0.35785  1.0000
  O   O2        1.0  0.12298  0.09544  0.64215  1.0000
  O   O3        1.0  0.37702  0.59543  0.64215  1.0000
  O   O4        1.0  0.87702  0.90456  0.35785  1.0000
  O   O5        1.0  0.71506  0.19018  0.32493  1.0000
  O   O6        1.0  0.21505  0.30982  0.67507  1.0000
  O   O7        1.0  0.28495  0.80982  0.67506  1.0000
  O   O8        1.0  0.78495  0.69018  0.32493  1.0000
  O   O9        1.0  0.49336  0.04651  0.16975  1.0000
  O   O10       1.0  0.99336  0.45350  0.83025  1.0000
  O   O11       1.0  0.50663  0.95349  0.83025  1.0000
  O   O12       1.0  0.00664  0.54650  0.16975  1.0000
  O   O13       1.0  0.25324  0.12008  0.27468  1.0000
  O   O14       1.0  0.75325  0.37991  0.72532  1.0000
  O   O15       1.0  0.74676  0.87991  0.72532  1.0000
  O   O16       1.0  0.24676  0.62008  0.27468  1.0000
  O   O17       1.0  0.24989  0.53433  0.47379  1.0000
  O   O18       1.0  0.74989  0.96567  0.52621  1.0000
  O   O19       1.0  0.75011  0.46567  0.52621  1.0000
  O   O20       1.0  0.25011  0.03433  0.47379  1.0000
  O   O21       1.0  0.43170  0.81264  0.50264  1.0000
  O   O22       1.0  0.93170  0.68736  0.49736  1.0000
  O   O23       1.0  0.56830  0.18736  0.49736  1.0000
  O   O24       1.0  0.06830  0.31264  0.50264  1.0000
