data_image0
_chemical_formula_structural       Cd5H32C34N18O12
_chemical_formula_sum              "Cd5 H32 C34 N18 O12"
_cell_length_a       8.6922
_cell_length_b       9.15955
_cell_length_c       16.0016
_cell_angle_alpha    73.577
_cell_angle_beta     87.4859
_cell_angle_gamma    70.2508

_space_group_name_H-M_alt    "P 1"
_space_group_IT_number       1

loop_
  _space_group_symop_operation_xyz
  'x, y, z'

loop_
  _atom_site_type_symbol
  _atom_site_label
  _atom_site_symmetry_multiplicity
  _atom_site_fract_x
  _atom_site_fract_y
  _atom_site_fract_z
  _atom_site_occupancy
  Cd  Cd1       1.0  0.82612  0.33280  0.16926  1.0000
  Cd  Cd2       1.0  0.17388  0.66719  0.83073  1.0000
  Cd  Cd3       1.0  0.50001  0.50000  1.00000  1.0000
  Cd  Cd4       1.0  0.61470  0.08945  0.14711  1.0000
  Cd  Cd5       1.0  0.38531  0.91055  0.85288  1.0000
  H   H1        1.0  0.25260  0.90320  0.32297  1.0000
  H   H2        1.0  0.74740  0.09679  0.67703  1.0000
  H   H3        1.0  0.47514  0.65247  0.39904  1.0000
  H   H4        1.0  0.52486  0.34751  0.60096  1.0000
  H   H5        1.0  0.27826  0.37823  0.28115  1.0000
  H   H6        1.0  0.72173  0.62176  0.71884  1.0000
  H   H7        1.0  0.05470  0.62724  0.20914  1.0000
  H   H8        1.0  0.94530  0.37276  0.79086  1.0000
  H   H9        1.0  0.40425  0.19306  0.41737  1.0000
  H   H10       1.0  0.59575  0.80692  0.58263  1.0000
  H   H11       1.0  0.63063  0.10993  0.52956  1.0000
  H   H12       1.0  0.36937  0.89007  0.47044  1.0000
  H   H13       1.0  0.77492  0.11503  0.44649  1.0000
  H   H14       1.0  0.22508  0.88497  0.55351  1.0000
  H   H15       1.0  0.67924  0.96670  0.46818  1.0000
  H   H16       1.0  0.32077  0.03329  0.53183  1.0000
  H   H17       1.0  0.13030  0.13212  0.33502  1.0000
  H   H18       1.0  0.86968  0.86789  0.66498  1.0000
  H   H19       1.0  0.73854  0.55099  0.33867  1.0000
  H   H20       1.0  0.26145  0.44902  0.66133  1.0000
  H   H21       1.0  0.93015  0.37730  0.56195  1.0000
  H   H22       1.0  0.06985  0.62271  0.43805  1.0000
  H   H23       1.0  0.81132  0.56740  0.49023  1.0000
  H   H24       1.0  0.18867  0.43262  0.50977  1.0000
  H   H25       1.0  0.80433  0.70956  0.19443  1.0000
  H   H26       1.0  0.19567  0.29045  0.80556  1.0000
  H   H27       1.0  0.35200  0.90612  0.05229  1.0000
  H   H28       1.0  0.64800  0.09387  0.94770  1.0000
  H   H29       1.0  0.07417  0.60133  0.05155  1.0000
  H   H30       1.0  0.92584  0.39868  0.94844  1.0000
  H   H31       1.0  0.20491  0.09888  0.16494  1.0000
  H   H32       1.0  0.79510  0.90113  0.83507  1.0000
  C   C1        1.0  0.13341  0.78281  0.26271  1.0000
  C   C2        1.0  0.86658  0.21718  0.73729  1.0000
  C   C3        1.0  0.25631  0.78805  0.31492  1.0000
  C   C4        1.0  0.74368  0.21195  0.68508  1.0000
  C   C5        1.0  0.38274  0.64815  0.35672  1.0000
  C   C6        1.0  0.61725  0.35184  0.64328  1.0000
  C   C7        1.0  0.39057  0.49783  0.34705  1.0000
  C   C8        1.0  0.60942  0.50216  0.65295  1.0000
  C   C9        1.0  0.27182  0.49146  0.29270  1.0000
  C   C10       1.0  0.72817  0.50853  0.70730  1.0000
  C   C11       1.0  0.14541  0.63283  0.25173  1.0000
  C   C12       1.0  0.85458  0.36717  0.74828  1.0000
  C   C13       1.0  0.99126  0.93268  0.22163  1.0000
  C   C14       1.0  0.00875  0.06732  0.77837  1.0000
  C   C15       1.0  0.52298  0.20588  0.39726  1.0000
  C   C16       1.0  0.47702  0.79411  0.60273  1.0000
  C   C17       1.0  0.65998  0.09259  0.46486  1.0000
  C   C18       1.0  0.34003  0.90741  0.53514  1.0000
  C   C19       1.0  0.55778  0.16575  0.30965  1.0000
  C   C20       1.0  0.44222  0.83423  0.69035  1.0000
  C   C21       1.0  0.04959  0.23317  0.35567  1.0000
  C   C22       1.0  0.95039  0.76684  0.64434  1.0000
  C   C23       1.0  0.84947  0.44605  0.35478  1.0000
  C   C24       1.0  0.15052  0.55397  0.64522  1.0000
  C   C25       1.0  0.92895  0.46818  0.49990  1.0000
  C   C26       1.0  0.07105  0.53183  0.50010  1.0000
  C   C27       1.0  0.69576  0.72072  0.15898  1.0000
  C   C28       1.0  0.30423  0.27929  0.84102  1.0000
  C   C29       1.0  0.46692  0.82239  0.08635  1.0000
  C   C30       1.0  0.53309  0.17762  0.91364  1.0000
  C   C31       1.0  0.14162  0.47287  0.07608  1.0000
  C   C32       1.0  0.85839  0.52713  0.92393  1.0000
  C   C33       1.0  0.20969  0.21788  0.13197  1.0000
  C   C34       1.0  0.79032  0.78213  0.86804  1.0000
  N   N1        1.0  0.94271  0.39516  0.42939  1.0000
  N   N2        1.0  0.05729  0.60485  0.57061  1.0000
  N   N3        1.0  0.07188  0.25912  0.43102  1.0000
  N   N4        1.0  0.92811  0.74089  0.56899  1.0000
  N   N5        1.0  0.91424  0.34527  0.30657  1.0000
  N   N6        1.0  0.08574  0.65473  0.69343  1.0000
  N   N7        1.0  0.66723  0.59987  0.13982  1.0000
  N   N8        1.0  0.33277  0.40013  0.86018  1.0000
  N   N9        1.0  0.52058  0.66426  0.09323  1.0000
  N   N10       1.0  0.47942  0.33574  0.90676  1.0000
  N   N11       1.0  0.57362  0.86363  0.12686  1.0000
  N   N12       1.0  0.42638  0.13638  0.87314  1.0000
  N   N13       1.0  0.30292  0.40888  0.07018  1.0000
  N   N14       1.0  0.69708  0.59112  0.92982  1.0000
  N   N15       1.0  0.34616  0.24677  0.10517  1.0000
  N   N16       1.0  0.65385  0.75324  0.89483  1.0000
  N   N17       1.0  0.07770  0.35591  0.11517  1.0000
  N   N18       1.0  0.92231  0.64410  0.88483  1.0000
  O   O1        1.0  0.98836  0.06361  0.23537  1.0000
  O   O2        1.0  0.01166  0.93639  0.76463  1.0000
  O   O3        1.0  0.88287  0.91709  0.17690  1.0000
  O   O4        1.0  0.11714  0.08292  0.82308  1.0000
  O   O5        1.0  0.51600  0.36772  0.39335  1.0000
  O   O6        1.0  0.48399  0.63227  0.60664  1.0000
  O   O7        1.0  0.53688  0.03842  0.30370  1.0000
  O   O8        1.0  0.46313  0.96156  0.69631  1.0000
  O   O9        1.0  0.60493  0.26128  0.24886  1.0000
  O   O10       1.0  0.39508  0.73869  0.75114  1.0000
  O   O11       1.0  0.69271  0.29197  0.06679  1.0000
  O   O12       1.0  0.30729  0.70804  0.93322  1.0000
