data_image0
_chemical_formula_structural       Hg4H12C12S8N8Cl4
_chemical_formula_sum              "Hg4 H12 C12 S8 N8 Cl4"
_cell_length_a       4.07288
_cell_length_b       10.1849
_cell_length_c       17.7984
_cell_angle_alpha    90.001
_cell_angle_beta     90.0007
_cell_angle_gamma    90

_space_group_name_H-M_alt    "P 1"
_space_group_IT_number       1

loop_
  _space_group_symop_operation_xyz
  'x, y, z'

loop_
  _atom_site_type_symbol
  _atom_site_label
  _atom_site_symmetry_multiplicity
  _atom_site_fract_x
  _atom_site_fract_y
  _atom_site_fract_z
  _atom_site_occupancy
  Hg  Hg1       1.0  0.19512  0.00502  0.05539  1.0000
  Hg  Hg2       1.0  0.80487  0.50502  0.94461  1.0000
  Hg  Hg3       1.0  0.30487  0.00502  0.55539  1.0000
  Hg  Hg4       1.0  0.69512  0.50502  0.44461  1.0000
  H   H1        1.0  0.17599  0.31073  0.76655  1.0000
  H   H2        1.0  0.82400  0.81072  0.23344  1.0000
  H   H3        1.0  0.32397  0.31074  0.26656  1.0000
  H   H4        1.0  0.67603  0.81074  0.73344  1.0000
  H   H5        1.0  0.52376  0.27901  0.70987  1.0000
  H   H6        1.0  0.47624  0.77901  0.29013  1.0000
  H   H7        1.0  0.97627  0.27902  0.20987  1.0000
  H   H8        1.0  0.02375  0.77902  0.79012  1.0000
  H   H9        1.0  0.52503  0.41475  0.77416  1.0000
  H   H10       1.0  0.47496  0.91475  0.22585  1.0000
  H   H11       1.0  0.97495  0.41477  0.27417  1.0000
  H   H12       1.0  0.02507  0.91475  0.72583  1.0000
  C   C1        1.0  0.76313  0.06136  0.91248  1.0000
  C   C2        1.0  0.23685  0.56135  0.08752  1.0000
  C   C3        1.0  0.73681  0.06137  0.41248  1.0000
  C   C4        1.0  0.26319  0.56136  0.58752  1.0000
  C   C5        1.0  0.58194  0.22980  0.82617  1.0000
  C   C6        1.0  0.41806  0.72981  0.17383  1.0000
  C   C7        1.0  0.91805  0.22980  0.32617  1.0000
  C   C8        1.0  0.08196  0.72981  0.67382  1.0000
  C   C9        1.0  0.44512  0.31323  0.76553  1.0000
  C   C10       1.0  0.55488  0.81324  0.23447  1.0000
  C   C11       1.0  0.05485  0.31325  0.26553  1.0000
  C   C12       1.0  0.94513  0.81325  0.73447  1.0000
  S   S1        1.0  0.53588  0.06089  0.82958  1.0000
  S   S2        1.0  0.46412  0.56089  0.17042  1.0000
  S   S3        1.0  0.96413  0.06090  0.32959  1.0000
  S   S4        1.0  0.03588  0.56090  0.67042  1.0000
  S   S5        1.0  0.84732  0.91584  0.95904  1.0000
  S   S6        1.0  0.15269  0.41585  0.04096  1.0000
  S   S7        1.0  0.65265  0.91585  0.45904  1.0000
  S   S8        1.0  0.34731  0.41584  0.54096  1.0000
  N   N1        1.0  0.85833  0.18040  0.93244  1.0000
  N   N2        1.0  0.14169  0.68038  0.06757  1.0000
  N   N3        1.0  0.64165  0.18040  0.43244  1.0000
  N   N4        1.0  0.35835  0.68038  0.56756  1.0000
  N   N5        1.0  0.75364  0.27416  0.88338  1.0000
  N   N6        1.0  0.24636  0.77417  0.11662  1.0000
  N   N7        1.0  0.74637  0.27418  0.38339  1.0000
  N   N8        1.0  0.25366  0.77418  0.61661  1.0000
  Cl  Cl1       1.0  0.55567  0.12382  0.13554  1.0000
  Cl  Cl2       1.0  0.44435  0.62382  0.86447  1.0000
  Cl  Cl3       1.0  0.94434  0.12382  0.63552  1.0000
  Cl  Cl4       1.0  0.05564  0.62382  0.36447  1.0000
