data_image0
_chemical_formula_structural       Cu2H36C48N4O12
_chemical_formula_sum              "Cu2 H36 C48 N4 O12"
_cell_length_a       10.2082
_cell_length_b       10.5389
_cell_length_c       11.1092
_cell_angle_alpha    93.2054
_cell_angle_beta     117.358
_cell_angle_gamma    89.9561

_space_group_name_H-M_alt    "P 1"
_space_group_IT_number       1

loop_
  _space_group_symop_operation_xyz
  'x, y, z'

loop_
  _atom_site_type_symbol
  _atom_site_label
  _atom_site_symmetry_multiplicity
  _atom_site_fract_x
  _atom_site_fract_y
  _atom_site_fract_z
  _atom_site_occupancy
  Cu  Cu1       1.0  0.00000  0.50000  1.00000  1.0000
  Cu  Cu2       1.0  0.00000  0.00000  0.00000  1.0000
  H   H1        1.0  0.56298  0.17203  0.69258  1.0000
  H   H2        1.0  0.87057  0.32805  0.30715  1.0000
  H   H3        1.0  0.43702  0.82797  0.30741  1.0000
  H   H4        1.0  0.12943  0.67195  0.69286  1.0000
  H   H5        1.0  0.34228  0.67183  0.47719  1.0000
  H   H6        1.0  0.86512  0.82832  0.52270  1.0000
  H   H7        1.0  0.65772  0.32817  0.52281  1.0000
  H   H8        1.0  0.13486  0.17169  0.47730  1.0000
  H   H9        1.0  0.10756  0.47885  0.57265  1.0000
  H   H10       1.0  0.53570  0.02106  0.42717  1.0000
  H   H11       1.0  0.89244  0.52114  0.42734  1.0000
  H   H12       1.0  0.46430  0.97895  0.57284  1.0000
  H   H13       1.0  0.12372  0.66549  0.25289  1.0000
  H   H14       1.0  0.87076  0.83465  0.74687  1.0000
  H   H15       1.0  0.87629  0.33451  0.74711  1.0000
  H   H16       1.0  0.12923  0.16535  0.25313  1.0000
  H   H17       1.0  0.47872  0.32447  0.34473  1.0000
  H   H18       1.0  0.13420  0.17524  0.65548  1.0000
  H   H19       1.0  0.52128  0.67553  0.65528  1.0000
  H   H20       1.0  0.86580  0.82476  0.34452  1.0000
  H   H21       1.0  0.54033  0.23986  0.88444  1.0000
  H   H22       1.0  0.65547  0.26058  0.11523  1.0000
  H   H23       1.0  0.45966  0.76014  0.11555  1.0000
  H   H24       1.0  0.34455  0.73943  0.88478  1.0000
  H   H25       1.0  0.25214  0.35399  0.48281  1.0000
  H   H26       1.0  0.76981  0.14611  0.51680  1.0000
  H   H27       1.0  0.74787  0.64601  0.51718  1.0000
  H   H28       1.0  0.23019  0.85390  0.48320  1.0000
  H   H29       1.0  0.25550  0.33343  0.12611  1.0000
  H   H30       1.0  0.12948  0.16641  0.87404  1.0000
  H   H31       1.0  0.74450  0.66657  0.87390  1.0000
  H   H32       1.0  0.87052  0.83359  0.12596  1.0000
  H   H33       1.0  0.38943  0.36055  0.97348  1.0000
  H   H34       1.0  0.41579  0.13985  0.02641  1.0000
  H   H35       1.0  0.61056  0.63945  0.02651  1.0000
  H   H36       1.0  0.58422  0.86015  0.97358  1.0000
  C   C1        1.0  0.43368  0.49938  0.43319  1.0000
  C   C2        1.0  0.00054  0.00060  0.56683  1.0000
  C   C3        1.0  0.56632  0.50062  0.56682  1.0000
  C   C4        1.0  0.99945  0.99940  0.43317  1.0000
  C   C5        1.0  0.32897  0.59448  0.40341  1.0000
  C   C6        1.0  0.92562  0.90560  0.59654  1.0000
  C   C7        1.0  0.67103  0.40552  0.59659  1.0000
  C   C8        1.0  0.07437  0.09441  0.40346  1.0000
  C   C9        1.0  0.20158  0.42638  0.64133  1.0000
  C   C10       1.0  0.56081  0.07362  0.35846  1.0000
  C   C11       1.0  0.79841  0.57362  0.35866  1.0000
  C   C12       1.0  0.43920  0.92638  0.64154  1.0000
  C   C13       1.0  0.20562  0.59206  0.27759  1.0000
  C   C14       1.0  0.92810  0.90800  0.72236  1.0000
  C   C15       1.0  0.79439  0.40795  0.72241  1.0000
  C   C16       1.0  0.07189  0.09200  0.27764  1.0000
  C   C17       1.0  0.23758  0.42708  0.77927  1.0000
  C   C18       1.0  0.45857  0.07307  0.22058  1.0000
  C   C19       1.0  0.76241  0.57291  0.22071  1.0000
  C   C20       1.0  0.54144  0.92694  0.77942  1.0000
  C   C21       1.0  0.40527  0.40337  0.33059  1.0000
  C   C22       1.0  0.07477  0.09649  0.66954  1.0000
  C   C23       1.0  0.59473  0.59664  0.66942  1.0000
  C   C24       1.0  0.92522  0.90350  0.33047  1.0000
  C   C25       1.0  0.14276  0.49320  0.83089  1.0000
  C   C26       1.0  0.31222  0.00686  0.16902  1.0000
  C   C27       1.0  0.85724  0.50679  0.16910  1.0000
  C   C28       1.0  0.68779  0.99315  0.83098  1.0000
  C   C29       1.0  0.40415  0.28698  0.67694  1.0000
  C   C30       1.0  0.72723  0.21331  0.32272  1.0000
  C   C31       1.0  0.59584  0.71301  0.32305  1.0000
  C   C32       1.0  0.27277  0.78669  0.67728  1.0000
  C   C33       1.0  0.28240  0.35637  0.59045  1.0000
  C   C34       1.0  0.69228  0.14377  0.40921  1.0000
  C   C35       1.0  0.71760  0.64362  0.40954  1.0000
  C   C36       1.0  0.30772  0.85624  0.59080  1.0000
  C   C37       1.0  0.27919  0.40681  0.20681  1.0000
  C   C38       1.0  0.07248  0.09306  0.79332  1.0000
  C   C39       1.0  0.72081  0.59319  0.79319  1.0000
  C   C40       1.0  0.92752  0.90693  0.20669  1.0000
  C   C41       1.0  0.36001  0.35899  0.86587  1.0000
  C   C42       1.0  0.49408  0.14138  0.13400  1.0000
  C   C43       1.0  0.63998  0.64101  0.13412  1.0000
  C   C44       1.0  0.50592  0.85862  0.86600  1.0000
  C   C45       1.0  0.44423  0.29135  0.81672  1.0000
  C   C46       1.0  0.62732  0.20906  0.18301  1.0000
  C   C47       1.0  0.55576  0.70864  0.18327  1.0000
  C   C48       1.0  0.37269  0.79094  0.81699  1.0000
  N   N1        1.0  0.18072  0.50001  0.17986  1.0000
  N   N2        1.0  0.00092  0.99995  0.82019  1.0000
  N   N3        1.0  0.81929  0.50000  0.82014  1.0000
  N   N4        1.0  0.99908  0.00005  0.17982  1.0000
  O   O1        1.0  0.47630  0.21884  0.62143  1.0000
  O   O2        1.0  0.85483  0.28138  0.37822  1.0000
  O   O3        1.0  0.52371  0.78116  0.37857  1.0000
  O   O4        1.0  0.14517  0.71863  0.62178  1.0000
  O   O5        1.0  0.08726  0.59925  0.78992  1.0000
  O   O6        1.0  0.29797  0.90072  0.20989  1.0000
  O   O7        1.0  0.91274  0.40074  0.21007  1.0000
  O   O8        1.0  0.70204  0.09928  0.79011  1.0000
  O   O9        1.0  0.12061  0.43121  0.91771  1.0000
  O   O10       1.0  0.20298  0.06885  0.08235  1.0000
  O   O11       1.0  0.87939  0.56879  0.08229  1.0000
  O   O12       1.0  0.79703  0.93115  0.91766  1.0000
