data_image0
_chemical_formula_structural       Ni2H40C42N12O12
_chemical_formula_sum              "Ni2 H40 C42 N12 O12"
_cell_length_a       10.2741
_cell_length_b       10.9584
_cell_length_c       10.8504
_cell_angle_alpha    71.4243
_cell_angle_beta     69.1844
_cell_angle_gamma    70.2422

_space_group_name_H-M_alt    "P 1"
_space_group_IT_number       1

loop_
  _space_group_symop_operation_xyz
  'x, y, z'

loop_
  _atom_site_type_symbol
  _atom_site_label
  _atom_site_symmetry_multiplicity
  _atom_site_fract_x
  _atom_site_fract_y
  _atom_site_fract_z
  _atom_site_occupancy
  Ni  Ni1       1.0  0.46991  0.30399  0.43832  1.0000
  Ni  Ni2       1.0  0.53009  0.69601  0.56168  1.0000
  H   H1        1.0  0.22417  0.45065  0.48552  1.0000
  H   H2        1.0  0.77583  0.54935  0.51448  1.0000
  H   H3        1.0  0.30357  0.53563  0.52265  1.0000
  H   H4        1.0  0.69643  0.46437  0.47734  1.0000
  H   H5        1.0  0.90707  0.00234  0.33759  1.0000
  H   H6        1.0  0.09293  0.99766  0.66241  1.0000
  H   H7        1.0  0.31599  0.05300  0.31085  1.0000
  H   H8        1.0  0.68401  0.94700  0.68915  1.0000
  H   H9        1.0  0.92750  0.35745  0.41167  1.0000
  H   H10       1.0  0.07249  0.64255  0.58833  1.0000
  H   H11       1.0  0.05630  0.77521  0.37396  1.0000
  H   H12       1.0  0.94370  0.22479  0.62604  1.0000
  H   H13       1.0  0.04565  0.87022  0.20735  1.0000
  H   H14       1.0  0.95435  0.12978  0.79265  1.0000
  H   H15       1.0  0.19869  0.73500  0.22747  1.0000
  H   H16       1.0  0.80132  0.26500  0.77253  1.0000
  H   H17       1.0  0.29223  0.52663  0.23601  1.0000
  H   H18       1.0  0.70777  0.47337  0.76399  1.0000
  H   H19       1.0  0.73342  0.41564  0.20533  1.0000
  H   H20       1.0  0.26658  0.58436  0.79467  1.0000
  H   H21       1.0  0.69681  0.64497  0.88085  1.0000
  H   H22       1.0  0.30319  0.35503  0.11915  1.0000
  H   H23       1.0  0.67606  0.74076  0.99477  1.0000
  H   H24       1.0  0.32394  0.25924  0.00524  1.0000
  H   H25       1.0  0.83299  0.63504  0.16621  1.0000
  H   H26       1.0  0.16702  0.36496  0.83380  1.0000
  H   H27       1.0  0.92270  0.48571  0.81326  1.0000
  H   H28       1.0  0.07730  0.51429  0.18675  1.0000
  H   H29       1.0  0.50523  0.28065  0.72262  1.0000
  H   H30       1.0  0.49477  0.71935  0.27738  1.0000
  H   H31       1.0  0.36296  0.02549  0.60901  1.0000
  H   H32       1.0  0.63703  0.97451  0.39099  1.0000
  H   H33       1.0  0.34910  0.84421  0.84487  1.0000
  H   H34       1.0  0.65089  0.15579  0.15513  1.0000
  H   H35       1.0  0.36320  0.89360  0.97994  1.0000
  H   H36       1.0  0.63679  0.10640  0.02006  1.0000
  H   H37       1.0  0.12446  0.79221  0.91696  1.0000
  H   H38       1.0  0.87554  0.20780  0.08304  1.0000
  H   H39       1.0  0.14024  0.14872  0.99218  1.0000
  H   H40       1.0  0.85976  0.85128  0.00781  1.0000
  C   C1        1.0  0.74197  0.22689  0.40693  1.0000
  C   C2        1.0  0.25803  0.77311  0.59307  1.0000
  C   C3        1.0  0.90156  0.18321  0.37789  1.0000
  C   C4        1.0  0.09844  0.81679  0.62211  1.0000
  C   C5        1.0  0.97190  0.06038  0.34183  1.0000
  C   C6        1.0  0.02810  0.93962  0.65817  1.0000
  C   C7        1.0  0.12144  0.01488  0.31412  1.0000
  C   C8        1.0  0.87856  0.98512  0.68588  1.0000
  C   C9        1.0  0.20014  0.09052  0.32677  1.0000
  C   C10       1.0  0.79986  0.90948  0.67323  1.0000
  C   C11       1.0  0.12963  0.21276  0.36272  1.0000
  C   C12       1.0  0.87037  0.78724  0.63727  1.0000
  C   C13       1.0  0.98004  0.26096  0.38596  1.0000
  C   C14       1.0  0.01996  0.73904  0.61404  1.0000
  C   C15       1.0  0.21212  0.29095  0.38410  1.0000
  C   C16       1.0  0.78788  0.70905  0.61589  1.0000
  C   C17       1.0  0.11808  0.81561  0.27171  1.0000
  C   C18       1.0  0.88192  0.18439  0.72829  1.0000
  C   C19       1.0  0.40576  0.52492  0.19868  1.0000
  C   C20       1.0  0.59425  0.47508  0.80132  1.0000
  C   C21       1.0  0.62930  0.46395  0.18697  1.0000
  C   C22       1.0  0.37071  0.53605  0.81302  1.0000
  C   C23       1.0  0.70876  0.63898  0.97919  1.0000
  C   C24       1.0  0.29124  0.36102  0.02081  1.0000
  C   C25       1.0  0.90630  0.57718  0.09184  1.0000
  C   C26       1.0  0.09370  0.42282  0.90816  1.0000
  C   C27       1.0  0.86017  0.56881  0.98834  1.0000
  C   C28       1.0  0.13983  0.43119  0.01166  1.0000
  C   C29       1.0  0.95525  0.49086  0.89656  1.0000
  C   C30       1.0  0.04475  0.50914  0.10345  1.0000
  C   C31       1.0  0.45943  0.20271  0.72847  1.0000
  C   C32       1.0  0.54057  0.79729  0.27153  1.0000
  C   C33       1.0  0.38929  0.07495  0.66581  1.0000
  C   C34       1.0  0.61070  0.92505  0.33419  1.0000
  C   C35       1.0  0.31411  0.92611  0.89610  1.0000
  C   C36       1.0  0.68589  0.07390  0.10390  1.0000
  C   C37       1.0  0.07029  0.88337  0.95385  1.0000
  C   C38       1.0  0.92971  0.11664  0.04615  1.0000
  C   C39       1.0  0.15152  0.96654  0.94713  1.0000
  C   C40       1.0  0.84848  0.03346  0.05287  1.0000
  C   C41       1.0  0.07919  0.08365  0.99400  1.0000
  C   C42       1.0  0.92080  0.91635  0.00600  1.0000
  N   N1        1.0  0.50411  0.43465  0.26282  1.0000
  N   N2        1.0  0.49589  0.56535  0.73719  1.0000
  N   N3        1.0  0.60545  0.56758  0.08370  1.0000
  N   N4        1.0  0.39456  0.43242  0.91630  1.0000
  N   N5        1.0  0.46305  0.60843  0.08930  1.0000
  N   N6        1.0  0.53696  0.39157  0.91071  1.0000
  N   N7        1.0  0.44264  0.18195  0.61807  1.0000
  N   N8        1.0  0.55736  0.81805  0.38193  1.0000
  N   N9        1.0  0.37445  0.03469  0.79990  1.0000
  N   N10       1.0  0.62555  0.96531  0.20010  1.0000
  N   N11       1.0  0.41807  0.11558  0.84192  1.0000
  N   N12       1.0  0.58193  0.88442  0.15808  1.0000
  O   O1        1.0  0.66831  0.32365  0.46565  1.0000
  O   O2        1.0  0.33169  0.67635  0.53436  1.0000
  O   O3        1.0  0.67905  0.16898  0.36855  1.0000
  O   O4        1.0  0.32094  0.83102  0.63145  1.0000
  O   O5        1.0  0.14852  0.40924  0.39800  1.0000
  O   O6        1.0  0.85148  0.59076  0.60200  1.0000
  O   O7        1.0  0.34201  0.22984  0.38795  1.0000
  O   O8        1.0  0.65799  0.77016  0.61204  1.0000
  O   O9        1.0  0.29257  0.44531  0.53546  1.0000
  O   O10       1.0  0.70744  0.55468  0.46454  1.0000
  O   O11       1.0  0.19840  0.89796  0.27600  1.0000
  O   O12       1.0  0.80160  0.10204  0.72400  1.0000
