data_image0
_chemical_formula_structural       Na4H40C40S4N4O16
_chemical_formula_sum              "Na4 H40 C40 S4 N4 O16"
_cell_length_a       6.51927
_cell_length_b       10.3598
_cell_length_c       16.6632
_cell_angle_alpha    97.4459
_cell_angle_beta     90.0002
_cell_angle_gamma    90.0001

_space_group_name_H-M_alt    "P 1"
_space_group_IT_number       1

loop_
  _space_group_symop_operation_xyz
  'x, y, z'

loop_
  _atom_site_type_symbol
  _atom_site_label
  _atom_site_symmetry_multiplicity
  _atom_site_fract_x
  _atom_site_fract_y
  _atom_site_fract_z
  _atom_site_occupancy
  Na  Na1       1.0  0.29211  0.10014  0.47468  1.0000
  Na  Na2       1.0  0.79211  0.39986  0.52532  1.0000
  Na  Na3       1.0  0.70789  0.89986  0.52532  1.0000
  Na  Na4       1.0  0.20789  0.60014  0.47468  1.0000
  H   H1        1.0  0.77475  0.16142  0.38500  1.0000
  H   H2        1.0  0.27475  0.33858  0.61500  1.0000
  H   H3        1.0  0.22525  0.83858  0.61501  1.0000
  H   H4        1.0  0.72525  0.66141  0.38500  1.0000
  H   H5        1.0  0.94266  0.08904  0.31431  1.0000
  H   H6        1.0  0.44267  0.41096  0.68569  1.0000
  H   H7        1.0  0.05733  0.91096  0.68570  1.0000
  H   H8        1.0  0.55733  0.58903  0.31430  1.0000
  H   H9        1.0  0.93430  0.11141  0.18002  1.0000
  H   H10       1.0  0.43431  0.38859  0.81998  1.0000
  H   H11       1.0  0.06570  0.88859  0.81998  1.0000
  H   H12       1.0  0.56570  0.61140  0.18002  1.0000
  H   H13       1.0  0.78894  0.21746  0.06810  1.0000
  H   H14       1.0  0.28893  0.28254  0.93191  1.0000
  H   H15       1.0  0.21108  0.78253  0.93191  1.0000
  H   H16       1.0  0.71107  0.71746  0.06809  1.0000
  H   H17       1.0  0.53549  0.35356  0.01614  1.0000
  H   H18       1.0  0.03547  0.14645  0.98385  1.0000
  H   H19       1.0  0.46454  0.64644  0.98385  1.0000
  H   H20       1.0  0.96452  0.85356  0.01615  1.0000
  H   H21       1.0  0.22624  0.49680  0.03536  1.0000
  H   H22       1.0  0.72623  0.00320  0.96464  1.0000
  H   H23       1.0  0.77378  0.50319  0.96464  1.0000
  H   H24       1.0  0.27376  0.99681  0.03536  1.0000
  H   H25       1.0  0.07168  0.54454  0.17331  1.0000
  H   H26       1.0  0.57167  0.95546  0.82669  1.0000
  H   H27       1.0  0.92834  0.45546  0.82669  1.0000
  H   H28       1.0  0.42832  0.04454  0.17331  1.0000
  H   H29       1.0  0.21679  0.45332  0.28806  1.0000
  H   H30       1.0  0.71678  0.04669  0.71194  1.0000
  H   H31       1.0  0.78322  0.54669  0.71194  1.0000
  H   H32       1.0  0.28322  0.95331  0.28806  1.0000
  H   H33       1.0  0.36861  0.01720  0.63579  1.0000
  H   H34       1.0  0.86861  0.48281  0.36421  1.0000
  H   H35       1.0  0.63139  0.98280  0.36421  1.0000
  H   H36       1.0  0.13139  0.51720  0.63579  1.0000
  H   H37       1.0  0.53177  0.12584  0.61645  1.0000
  H   H38       1.0  0.03177  0.37415  0.38355  1.0000
  H   H39       1.0  0.46823  0.87415  0.38355  1.0000
  H   H40       1.0  0.96823  0.62585  0.61645  1.0000
  C   C1        1.0  0.55057  0.28318  0.28461  1.0000
  C   C2        1.0  0.05057  0.21682  0.71539  1.0000
  C   C3        1.0  0.44943  0.71682  0.71539  1.0000
  C   C4        1.0  0.94943  0.78318  0.28461  1.0000
  C   C5        1.0  0.71660  0.19677  0.26975  1.0000
  C   C6        1.0  0.21660  0.30323  0.73025  1.0000
  C   C7        1.0  0.28340  0.80322  0.73026  1.0000
  C   C8        1.0  0.78340  0.69677  0.26974  1.0000
  C   C9        1.0  0.80212  0.17593  0.19011  1.0000
  C   C10       1.0  0.30211  0.32407  0.80990  1.0000
  C   C11       1.0  0.19789  0.82407  0.80990  1.0000
  C   C12       1.0  0.69789  0.67593  0.19010  1.0000
  C   C13       1.0  0.72146  0.23451  0.12837  1.0000
  C   C14       1.0  0.22146  0.26550  0.87163  1.0000
  C   C15       1.0  0.27855  0.76549  0.87163  1.0000
  C   C16       1.0  0.77854  0.73450  0.12837  1.0000
  C   C17       1.0  0.54806  0.31779  0.14053  1.0000
  C   C18       1.0  0.04805  0.18222  0.85947  1.0000
  C   C19       1.0  0.45195  0.68221  0.85947  1.0000
  C   C20       1.0  0.95194  0.81779  0.14053  1.0000
  C   C21       1.0  0.46234  0.37448  0.07533  1.0000
  C   C22       1.0  0.96234  0.12552  0.92467  1.0000
  C   C23       1.0  0.53767  0.62551  0.92466  1.0000
  C   C24       1.0  0.03766  0.87448  0.07534  1.0000
  C   C25       1.0  0.29204  0.45420  0.08607  1.0000
  C   C26       1.0  0.79203  0.04581  0.91393  1.0000
  C   C27       1.0  0.70798  0.54580  0.91393  1.0000
  C   C28       1.0  0.20796  0.95420  0.08608  1.0000
  C   C29       1.0  0.20487  0.48075  0.16389  1.0000
  C   C30       1.0  0.70486  0.01926  0.83611  1.0000
  C   C31       1.0  0.79515  0.51926  0.83611  1.0000
  C   C32       1.0  0.29513  0.98075  0.16389  1.0000
  C   C33       1.0  0.28688  0.42803  0.22899  1.0000
  C   C34       1.0  0.78687  0.07198  0.77101  1.0000
  C   C35       1.0  0.71313  0.57198  0.77100  1.0000
  C   C36       1.0  0.21312  0.92802  0.22900  1.0000
  C   C37       1.0  0.46017  0.34371  0.22005  1.0000
  C   C38       1.0  0.96017  0.15629  0.77995  1.0000
  C   C39       1.0  0.53984  0.65629  0.77995  1.0000
  C   C40       1.0  0.03983  0.84371  0.22005  1.0000
  S   S1        1.0  0.43737  0.31630  0.38224  1.0000
  S   S2        1.0  0.93737  0.18370  0.61776  1.0000
  S   S3        1.0  0.56262  0.68369  0.61775  1.0000
  S   S4        1.0  0.06262  0.81630  0.38225  1.0000
  N   N1        1.0  0.79930  0.12525  0.32595  1.0000
  N   N2        1.0  0.29929  0.37474  0.67405  1.0000
  N   N3        1.0  0.20071  0.87474  0.67405  1.0000
  N   N4        1.0  0.70071  0.62525  0.32595  1.0000
  O   O1        1.0  0.23098  0.25617  0.37536  1.0000
  O   O2        1.0  0.73098  0.24382  0.62464  1.0000
  O   O3        1.0  0.76901  0.74382  0.62464  1.0000
  O   O4        1.0  0.26901  0.75617  0.37536  1.0000
  O   O5        1.0  0.44957  0.05008  0.59284  1.0000
  O   O6        1.0  0.94957  0.44992  0.40716  1.0000
  O   O7        1.0  0.55043  0.94992  0.40716  1.0000
  O   O8        1.0  0.05043  0.55008  0.59285  1.0000
  O   O9        1.0  0.43119  0.45821  0.40273  1.0000
  O   O10       1.0  0.93119  0.04179  0.59727  1.0000
  O   O11       1.0  0.56880  0.54179  0.59727  1.0000
  O   O12       1.0  0.06881  0.95821  0.40273  1.0000
  O   O13       1.0  0.56284  0.25524  0.44117  1.0000
  O   O14       1.0  0.06284  0.24476  0.55883  1.0000
  O   O15       1.0  0.43715  0.74476  0.55883  1.0000
  O   O16       1.0  0.93716  0.75524  0.44117  1.0000
