data_image0
_chemical_formula_structural       Y2H10C12O16
_chemical_formula_sum              "Y2 H10 C12 O16"
_cell_length_a       6.24189
_cell_length_b       8.64275
_cell_length_c       8.7671
_cell_angle_alpha    111.348
_cell_angle_beta     109.783
_cell_angle_gamma    91.4944

_space_group_name_H-M_alt    "P 1"
_space_group_IT_number       1

loop_
  _space_group_symop_operation_xyz
  'x, y, z'

loop_
  _atom_site_type_symbol
  _atom_site_label
  _atom_site_symmetry_multiplicity
  _atom_site_fract_x
  _atom_site_fract_y
  _atom_site_fract_z
  _atom_site_occupancy
  Y   Y1        1.0  0.82019  0.35024  0.18065  1.0000
  Y   Y2        1.0  0.17981  0.64976  0.81935  1.0000
  H   H1        1.0  0.75826  0.96750  0.33260  1.0000
  H   H2        1.0  0.24173  0.03249  0.66741  1.0000
  H   H3        1.0  0.98796  0.33059  0.89073  1.0000
  H   H4        1.0  0.01205  0.66941  0.10928  1.0000
  H   H5        1.0  0.18212  0.27282  0.02644  1.0000
  H   H6        1.0  0.81789  0.72717  0.97355  1.0000
  H   H7        1.0  0.27166  0.35594  0.46710  1.0000
  H   H8        1.0  0.72835  0.64406  0.53290  1.0000
  H   H9        1.0  0.30992  0.28319  0.28203  1.0000
  H   H10       1.0  0.69009  0.71682  0.71798  1.0000
  C   C1        1.0  0.64250  0.98110  0.40441  1.0000
  C   C2        1.0  0.35750  0.01890  0.59560  1.0000
  C   C3        1.0  0.49480  0.83995  0.37478  1.0000
  C   C4        1.0  0.50520  0.16005  0.62522  1.0000
  C   C5        1.0  0.35042  0.85935  0.47148  1.0000
  C   C6        1.0  0.64957  0.14065  0.52853  1.0000
  C   C7        1.0  0.18528  0.71189  0.44184  1.0000
  C   C8        1.0  0.81471  0.28811  0.55816  1.0000
  C   C9        1.0  0.50202  0.67036  0.24305  1.0000
  C   C10       1.0  0.49798  0.32964  0.75695  1.0000
  C   C11       1.0  0.60601  0.96038  0.99004  1.0000
  C   C12       1.0  0.39401  0.03961  0.00995  1.0000
  O   O1        1.0  0.18301  0.68463  0.57318  1.0000
  O   O2        1.0  0.81697  0.31535  0.42682  1.0000
  O   O3        1.0  0.05381  0.62035  0.28291  1.0000
  O   O4        1.0  0.94618  0.37965  0.71708  1.0000
  O   O5        1.0  0.40842  0.64095  0.08163  1.0000
  O   O6        1.0  0.59160  0.35906  0.91838  1.0000
  O   O7        1.0  0.61200  0.57007  0.30501  1.0000
  O   O8        1.0  0.38799  0.42993  0.69499  1.0000
  O   O9        1.0  0.79654  0.05646  0.05847  1.0000
  O   O10       1.0  0.20344  0.94353  0.94152  1.0000
  O   O11       1.0  0.56817  0.80019  0.90544  1.0000
  O   O12       1.0  0.43183  0.19983  0.09456  1.0000
  O   O13       1.0  0.19481  0.31319  0.33620  1.0000
  O   O14       1.0  0.80519  0.68682  0.66381  1.0000
  O   O15       1.0  0.03038  0.31084  0.00121  1.0000
  O   O16       1.0  0.96962  0.68917  0.99879  1.0000
