data_image0
_chemical_formula_structural       Cd2H34C40N10O10
_chemical_formula_sum              "Cd2 H34 C40 N10 O10"
_cell_length_a       8.49833
_cell_length_b       10.5929
_cell_length_c       11.8387
_cell_angle_alpha    64.6722
_cell_angle_beta     84.1823
_cell_angle_gamma    76.0581

_space_group_name_H-M_alt    "P 1"
_space_group_IT_number       1

loop_
  _space_group_symop_operation_xyz
  'x, y, z'

loop_
  _atom_site_type_symbol
  _atom_site_label
  _atom_site_symmetry_multiplicity
  _atom_site_fract_x
  _atom_site_fract_y
  _atom_site_fract_z
  _atom_site_occupancy
  Cd  Cd1       1.0  0.05546  0.85578  0.23297  1.0000
  Cd  Cd2       1.0  0.94453  0.14423  0.76703  1.0000
  H   H1        1.0  0.97510  0.36972  0.21135  1.0000
  H   H2        1.0  0.02489  0.63028  0.78866  1.0000
  H   H3        1.0  0.86768  0.27563  0.08281  1.0000
  H   H4        1.0  0.13234  0.72436  0.91719  1.0000
  H   H5        1.0  0.65821  0.43918  0.91973  1.0000
  H   H6        1.0  0.34181  0.56080  0.08027  1.0000
  H   H7        1.0  0.55996  0.69175  0.88826  1.0000
  H   H8        1.0  0.44005  0.30823  0.11174  1.0000
  H   H9        1.0  0.65426  0.84786  0.08740  1.0000
  H   H10       1.0  0.34574  0.15214  0.91259  1.0000
  H   H11       1.0  0.53936  0.87414  0.96021  1.0000
  H   H12       1.0  0.46064  0.12585  0.03979  1.0000
  H   H13       1.0  0.44315  0.74485  0.17888  1.0000
  H   H14       1.0  0.55682  0.25517  0.82112  1.0000
  H   H15       1.0  0.63905  0.47432  0.29173  1.0000
  H   H16       1.0  0.36095  0.52571  0.70826  1.0000
  H   H17       1.0  0.18266  0.49285  0.47755  1.0000
  H   H18       1.0  0.81734  0.50715  0.52245  1.0000
  H   H19       1.0  0.68639  0.24821  0.38503  1.0000
  H   H20       1.0  0.31362  0.75179  0.61496  1.0000
  H   H21       1.0  0.57869  0.89561  0.71818  1.0000
  H   H22       1.0  0.42132  0.10440  0.28183  1.0000
  H   H23       1.0  0.28019  0.29728  0.62667  1.0000
  H   H24       1.0  0.71982  0.70273  0.37332  1.0000
  H   H25       1.0  0.83030  0.08478  0.32731  1.0000
  H   H26       1.0  0.16971  0.91522  0.67269  1.0000
  H   H27       1.0  0.81221  0.78146  0.70382  1.0000
  H   H28       1.0  0.18779  0.21853  0.29618  1.0000
  H   H29       1.0  0.02730  0.65594  0.57068  1.0000
  H   H30       1.0  0.97270  0.34405  0.42932  1.0000
  H   H31       1.0  0.71646  0.98580  0.20501  1.0000
  H   H32       1.0  0.28355  0.01421  0.79499  1.0000
  H   H33       1.0  0.78890  0.03911  0.06692  1.0000
  H   H34       1.0  0.21111  0.96088  0.93308  1.0000
  C   C1        1.0  0.83724  0.58504  0.11745  1.0000
  C   C2        1.0  0.16275  0.41495  0.88256  1.0000
  C   C3        1.0  0.88507  0.44039  0.13946  1.0000
  C   C4        1.0  0.11493  0.55960  0.86055  1.0000
  C   C5        1.0  0.82437  0.38717  0.06775  1.0000
  C   C6        1.0  0.17565  0.61282  0.93225  1.0000
  C   C7        1.0  0.70927  0.47926  0.97532  1.0000
  C   C8        1.0  0.29073  0.52072  0.02468  1.0000
  C   C9        1.0  0.65685  0.62246  0.95576  1.0000
  C   C10       1.0  0.34316  0.37752  0.04423  1.0000
  C   C11       1.0  0.72126  0.67850  0.02403  1.0000
  C   C12       1.0  0.27874  0.32148  0.97597  1.0000
  C   C13       1.0  0.90986  0.63904  0.19449  1.0000
  C   C14       1.0  0.09011  0.36095  0.80553  1.0000
  C   C15       1.0  0.66279  0.83380  0.00020  1.0000
  C   C16       1.0  0.33721  0.16620  0.99979  1.0000
  C   C17       1.0  0.76638  0.93348  0.90955  1.0000
  C   C18       1.0  0.23362  0.06652  0.09045  1.0000
  C   C19       1.0  0.41968  0.65112  0.25845  1.0000
  C   C20       1.0  0.58030  0.34890  0.74154  1.0000
  C   C21       1.0  0.51630  0.51692  0.31286  1.0000
  C   C22       1.0  0.48369  0.48309  0.68713  1.0000
  C   C23       1.0  0.27901  0.52683  0.41205  1.0000
  C   C24       1.0  0.72098  0.47317  0.58794  1.0000
  C   C25       1.0  0.47536  0.29155  0.49282  1.0000
  C   C26       1.0  0.52464  0.70846  0.50717  1.0000
  C   C27       1.0  0.61251  0.20460  0.46711  1.0000
  C   C28       1.0  0.38750  0.79540  0.53288  1.0000
  C   C29       1.0  0.65168  0.05979  0.54883  1.0000
  C   C30       1.0  0.34833  0.94022  0.45117  1.0000
  C   C31       1.0  0.55379  0.00817  0.65343  1.0000
  C   C32       1.0  0.44622  0.99184  0.34657  1.0000
  C   C33       1.0  0.38569  0.23233  0.60119  1.0000
  C   C34       1.0  0.61432  0.76768  0.39881  1.0000
  C   C35       1.0  0.85712  0.98641  0.41137  1.0000
  C   C36       1.0  0.14289  0.01359  0.58863  1.0000
  C   C37       1.0  0.84465  0.82260  0.60589  1.0000
  C   C38       1.0  0.15534  0.17740  0.39411  1.0000
  C   C39       1.0  0.95471  0.76472  0.53853  1.0000
  C   C40       1.0  0.04528  0.23527  0.46147  1.0000
  N   N1        1.0  0.27311  0.65585  0.32092  1.0000
  N   N2        1.0  0.72688  0.34415  0.67908  1.0000
  N   N3        1.0  0.42645  0.43760  0.41120  1.0000
  N   N4        1.0  0.57355  0.56241  0.58879  1.0000
  N   N5        1.0  0.42555  0.09349  0.67871  1.0000
  N   N6        1.0  0.57446  0.90652  0.32129  1.0000
  N   N7        1.0  0.78256  0.96396  0.52430  1.0000
  N   N8        1.0  0.21744  0.03604  0.47570  1.0000
  N   N9        1.0  0.96056  0.86809  0.41750  1.0000
  N   N10       1.0  0.03944  0.13191  0.58251  1.0000
  O   O1        1.0  0.96534  0.75156  0.13098  1.0000
  O   O2        1.0  0.03464  0.24843  0.86903  1.0000
  O   O3        1.0  0.90978  0.57461  0.31257  1.0000
  O   O4        1.0  0.09019  0.42539  0.68744  1.0000
  O   O5        1.0  0.83815  0.91066  0.81974  1.0000
  O   O6        1.0  0.16186  0.08934  0.18026  1.0000
  O   O7        1.0  0.76862  0.04628  0.92591  1.0000
  O   O8        1.0  0.23138  0.95371  0.07409  1.0000
  O   O9        1.0  0.80434  0.03121  0.15269  1.0000
  O   O10       1.0  0.19566  0.96880  0.84731  1.0000
