data_image0
_chemical_formula_structural       Na2CdH24C20O24
_chemical_formula_sum              "Na2 Cd1 H24 C20 O24"
_cell_length_a       7.07625
_cell_length_b       10.8938
_cell_length_c       10.5703
_cell_angle_alpha    84.4645
_cell_angle_beta     70.476
_cell_angle_gamma    73.4989

_space_group_name_H-M_alt    "P 1"
_space_group_IT_number       1

loop_
  _space_group_symop_operation_xyz
  'x, y, z'

loop_
  _atom_site_type_symbol
  _atom_site_label
  _atom_site_symmetry_multiplicity
  _atom_site_fract_x
  _atom_site_fract_y
  _atom_site_fract_z
  _atom_site_occupancy
  Na  Na1       1.0  0.31844  0.65648  0.99992  1.0000
  Na  Na2       1.0  0.68181  0.34375  0.00009  1.0000
  Cd  Cd1       1.0  0.00008  0.99993  1.00000  1.0000
  H   H1        1.0  0.36387  0.50019  0.27162  1.0000
  H   H2        1.0  0.63603  0.49980  0.72839  1.0000
  H   H3        1.0  0.11948  0.49990  0.76173  1.0000
  H   H4        1.0  0.88054  0.50009  0.23828  1.0000
  H   H5        1.0  0.93026  0.92818  0.28001  1.0000
  H   H6        1.0  0.78791  0.07189  0.27986  1.0000
  H   H7        1.0  0.06985  0.07182  0.72001  1.0000
  H   H8        1.0  0.21221  0.92811  0.72012  1.0000
  H   H9        1.0  0.76035  0.60155  0.92198  1.0000
  H   H10       1.0  0.31772  0.39854  0.92198  1.0000
  H   H11       1.0  0.23969  0.39851  0.07802  1.0000
  H   H12       1.0  0.68232  0.60151  0.07802  1.0000
  H   H13       1.0  0.40691  0.87945  0.07914  1.0000
  H   H14       1.0  0.51433  0.12038  0.07912  1.0000
  H   H15       1.0  0.59303  0.12132  0.92078  1.0000
  H   H16       1.0  0.48555  0.88038  0.92086  1.0000
  H   H17       1.0  0.95252  0.76861  0.92028  1.0000
  H   H18       1.0  0.12698  0.23138  0.92072  1.0000
  H   H19       1.0  0.04745  0.23137  0.07973  1.0000
  H   H20       1.0  0.87300  0.76860  0.07928  1.0000
  H   H21       1.0  0.90730  0.82799  0.52637  1.0000
  H   H22       1.0  0.56698  0.17225  0.52667  1.0000
  H   H23       1.0  0.09268  0.17200  0.47365  1.0000
  H   H24       1.0  0.43301  0.82773  0.47332  1.0000
  C   C1        1.0  0.30949  0.50013  0.38071  1.0000
  C   C2        1.0  0.69045  0.49985  0.61929  1.0000
  C   C3        1.0  0.17406  0.49998  0.65269  1.0000
  C   C4        1.0  0.82593  0.49999  0.34732  1.0000
  C   C5        1.0  0.16931  0.61175  0.44501  1.0000
  C   C6        1.0  0.38560  0.38840  0.44515  1.0000
  C   C7        1.0  0.83062  0.38821  0.55502  1.0000
  C   C8        1.0  0.61435  0.61157  0.55484  1.0000
  C   C9        1.0  0.09656  0.61143  0.58762  1.0000
  C   C10       1.0  0.31637  0.38863  0.58777  1.0000
  C   C11       1.0  0.90341  0.38854  0.41239  1.0000
  C   C12       1.0  0.68361  0.61134  0.41223  1.0000
  C   C13       1.0  0.94304  0.71759  0.68254  1.0000
  C   C14       1.0  0.37502  0.28227  0.68279  1.0000
  C   C15       1.0  0.05696  0.28239  0.31748  1.0000
  C   C16       1.0  0.62499  0.71771  0.31721  1.0000
  C   C17       1.0  0.11546  0.71810  0.34805  1.0000
  C   C18       1.0  0.53607  0.28216  0.34828  1.0000
  C   C19       1.0  0.88441  0.28185  0.65198  1.0000
  C   C20       1.0  0.46382  0.71779  0.65170  1.0000
  O   O1        1.0  0.90098  0.69792  0.80674  1.0000
  O   O2        1.0  0.29286  0.30159  0.80697  1.0000
  O   O3        1.0  0.09908  0.30205  0.19327  1.0000
  O   O4        1.0  0.70719  0.69837  0.19303  1.0000
  O   O5        1.0  0.85570  0.82581  0.63776  1.0000
  O   O6        1.0  0.50730  0.17426  0.63809  1.0000
  O   O7        1.0  0.14432  0.17419  0.36227  1.0000
  O   O8        1.0  0.49274  0.82573  0.36189  1.0000
  O   O9        1.0  0.97347  0.82225  0.39607  1.0000
  O   O10       1.0  0.63078  0.17810  0.39632  1.0000
  O   O11       1.0  0.02644  0.17773  0.60397  1.0000
  O   O12       1.0  0.36915  0.82187  0.60365  1.0000
  O   O13       1.0  0.20740  0.70083  0.22547  1.0000
  O   O14       1.0  0.56568  0.29950  0.22573  1.0000
  O   O15       1.0  0.79234  0.29908  0.77457  1.0000
  O   O16       1.0  0.43409  0.70042  0.77424  1.0000
  O   O17       1.0  0.67367  0.56292  0.00004  1.0000
  O   O18       1.0  0.32657  0.43702  0.99996  1.0000
  O   O19       1.0  0.36182  0.89133  0.00004  1.0000
  O   O20       1.0  0.63820  0.10761  0.99990  1.0000
  O   O21       1.0  0.98159  0.79123  0.99977  1.0000
  O   O22       1.0  0.01840  0.20874  0.00023  1.0000
  O   O23       1.0  0.88798  0.99980  0.22000  1.0000
  O   O24       1.0  0.11242  0.00027  0.78000  1.0000
