data_image0
_chemical_formula_structural       Ca2H4C4O10
_chemical_formula_sum              "Ca2 H4 C4 O10"
_cell_length_a       5.87833
_cell_length_b       5.87842
_cell_length_c       7.38556
_cell_angle_alpha    75.0591
_cell_angle_beta     75.0591
_cell_angle_gamma    76.053

_space_group_name_H-M_alt    "P 1"
_space_group_IT_number       1

loop_
  _space_group_symop_operation_xyz
  'x, y, z'

loop_
  _atom_site_type_symbol
  _atom_site_label
  _atom_site_symmetry_multiplicity
  _atom_site_fract_x
  _atom_site_fract_y
  _atom_site_fract_z
  _atom_site_occupancy
  Ca  Ca1       1.0  0.21423  0.21423  0.39303  1.0000
  Ca  Ca2       1.0  0.78577  0.78578  0.60697  1.0000
  H   H1        1.0  0.92817  0.14860  0.78517  1.0000
  H   H2        1.0  0.85142  0.07182  0.21484  1.0000
  H   H3        1.0  0.07183  0.85140  0.21484  1.0000
  H   H4        1.0  0.14858  0.92818  0.78516  1.0000
  C   C1        1.0  0.60720  0.39281  0.50000  1.0000
  C   C2        1.0  0.39281  0.60720  0.50000  1.0000
  C   C3        1.0  0.60741  0.39258  1.00000  1.0000
  C   C4        1.0  0.39259  0.60740  0.00000  1.0000
  O   O1        1.0  0.58877  0.21669  0.14095  1.0000
  O   O2        1.0  0.78331  0.41124  0.85904  1.0000
  O   O3        1.0  0.41121  0.78330  0.85906  1.0000
  O   O4        1.0  0.21669  0.58877  0.14095  1.0000
  O   O5        1.0  0.81368  0.44445  0.45635  1.0000
  O   O6        1.0  0.55556  0.18631  0.54364  1.0000
  O   O7        1.0  0.18630  0.55556  0.54364  1.0000
  O   O8        1.0  0.44445  0.81370  0.45635  1.0000
  O   O9        1.0  0.01163  0.01158  0.72056  1.0000
  O   O10       1.0  0.98839  0.98841  0.27944  1.0000
