data_image0
_chemical_formula_structural       Cd2H20C44N8O16F8
_chemical_formula_sum              "Cd2 H20 C44 N8 O16 F8"
_cell_length_a       8.62732
_cell_length_b       10.0715
_cell_length_c       14.057
_cell_angle_alpha    90.0001
_cell_angle_beta     89.9999
_cell_angle_gamma    115.138

_space_group_name_H-M_alt    "P 1"
_space_group_IT_number       1

loop_
  _space_group_symop_operation_xyz
  'x, y, z'

loop_
  _atom_site_type_symbol
  _atom_site_label
  _atom_site_symmetry_multiplicity
  _atom_site_fract_x
  _atom_site_fract_y
  _atom_site_fract_z
  _atom_site_occupancy
  Cd  Cd1       1.0  0.50066  0.77366  0.41079  1.0000
  Cd  Cd2       1.0  0.49935  0.22634  0.91079  1.0000
  H   H1        1.0  0.63702  0.02045  0.61248  1.0000
  H   H2        1.0  0.36299  0.97955  0.11248  1.0000
  H   H3        1.0  0.05677  0.82406  0.65944  1.0000
  H   H4        1.0  0.94323  0.17595  0.15944  1.0000
  H   H5        1.0  0.16928  0.92769  0.97460  1.0000
  H   H6        1.0  0.83073  0.07232  0.47460  1.0000
  H   H7        1.0  0.63249  0.82030  0.01023  1.0000
  H   H8        1.0  0.36751  0.17970  0.51022  1.0000
  H   H9        1.0  0.85604  0.91379  0.72985  1.0000
  H   H10       1.0  0.14396  0.08621  0.22984  1.0000
  H   H11       1.0  0.17853  0.50570  0.37658  1.0000
  H   H12       1.0  0.82146  0.49431  0.87659  1.0000
  H   H13       1.0  0.63401  0.35637  0.40390  1.0000
  H   H14       1.0  0.36599  0.64363  0.90390  1.0000
  H   H15       1.0  0.93535  0.39930  0.65600  1.0000
  H   H16       1.0  0.06465  0.60070  0.15600  1.0000
  H   H17       1.0  0.18592  0.37004  0.69104  1.0000
  H   H18       1.0  0.81408  0.62996  0.19104  1.0000
  H   H19       1.0  0.75838  0.61293  0.69217  1.0000
  H   H20       1.0  0.24162  0.38707  0.19217  1.0000
  C   C1        1.0  0.32899  0.94074  0.65832  1.0000
  C   C2        1.0  0.67101  0.05926  0.15832  1.0000
  C   C3        1.0  0.62469  0.11443  0.73260  1.0000
  C   C4        1.0  0.37531  0.88556  0.23260  1.0000
  C   C5        1.0  0.43678  0.03056  0.72858  1.0000
  C   C6        1.0  0.56322  0.96944  0.22858  1.0000
  C   C7        1.0  0.02944  0.92198  0.84480  1.0000
  C   C8        1.0  0.97056  0.07802  0.34480  1.0000
  C   C9        1.0  0.04741  0.91134  0.94329  1.0000
  C   C10       1.0  0.95259  0.08866  0.44329  1.0000
  C   C11       1.0  0.17644  0.95263  0.78287  1.0000
  C   C12       1.0  0.82356  0.04737  0.28287  1.0000
  C   C13       1.0  0.73268  0.86239  0.86619  1.0000
  C   C14       1.0  0.26732  0.13760  0.36618  1.0000
  C   C15       1.0  0.74338  0.84949  0.96409  1.0000
  C   C16       1.0  0.25662  0.15050  0.46409  1.0000
  C   C17       1.0  0.90433  0.87736  0.99996  1.0000
  C   C18       1.0  0.09567  0.12264  0.49996  1.0000
  C   C19       1.0  0.87095  0.89978  0.80541  1.0000
  C   C20       1.0  0.12905  0.10022  0.30541  1.0000
  C   C21       1.0  0.06769  0.47322  0.42307  1.0000
  C   C22       1.0  0.93231  0.52678  0.92307  1.0000
  C   C23       1.0  0.90761  0.43506  0.38385  1.0000
  C   C24       1.0  0.09239  0.56494  0.88385  1.0000
  C   C25       1.0  0.75792  0.38517  0.43690  1.0000
  C   C26       1.0  0.24208  0.61483  0.93690  1.0000
  C   C27       1.0  0.07955  0.46031  0.52191  1.0000
  C   C28       1.0  0.92045  0.53969  0.02191  1.0000
  C   C29       1.0  0.36111  0.89028  0.56458  1.0000
  C   C30       1.0  0.63889  0.10972  0.06458  1.0000
  C   C31       1.0  0.24789  0.49868  0.56367  1.0000
  C   C32       1.0  0.75211  0.50132  0.06367  1.0000
  C   C33       1.0  0.77597  0.37281  0.53415  1.0000
  C   C34       1.0  0.22403  0.62719  0.03415  1.0000
  C   C35       1.0  0.93182  0.40908  0.57902  1.0000
  C   C36       1.0  0.06818  0.59092  0.07902  1.0000
  C   C37       1.0  0.70649  0.69238  0.57037  1.0000
  C   C38       1.0  0.29351  0.30762  0.07037  1.0000
  C   C39       1.0  0.52417  0.59579  0.58989  1.0000
  C   C40       1.0  0.47583  0.40421  0.08989  1.0000
  C   C41       1.0  0.51646  0.46009  0.75126  1.0000
  C   C42       1.0  0.48353  0.53991  0.25126  1.0000
  C   C43       1.0  0.44710  0.50393  0.66671  1.0000
  C   C44       1.0  0.55290  0.49607  0.16671  1.0000
  N   N1        1.0  0.34028  0.03623  0.80474  1.0000
  N   N2        1.0  0.65972  0.96377  0.30474  1.0000
  N   N3        1.0  0.16645  0.89443  0.69418  1.0000
  N   N4        1.0  0.83355  0.10557  0.19418  1.0000
  N   N5        1.0  0.39943  0.59033  0.52704  1.0000
  N   N6        1.0  0.60057  0.40968  0.02705  1.0000
  N   N7        1.0  0.27518  0.44514  0.64800  1.0000
  N   N8        1.0  0.72482  0.55486  0.14801  1.0000
  O   O1        1.0  0.71736  0.09019  0.66668  1.0000
  O   O2        1.0  0.28264  0.90980  0.16668  1.0000
  O   O3        1.0  0.69247  0.20437  0.79784  1.0000
  O   O4        1.0  0.30754  0.79563  0.29784  1.0000
  O   O5        1.0  0.52214  0.93569  0.54057  1.0000
  O   O6        1.0  0.47786  0.06432  0.04057  1.0000
  O   O7        1.0  0.23916  0.80707  0.51520  1.0000
  O   O8        1.0  0.76085  0.19294  0.01520  1.0000
  O   O9        1.0  0.82036  0.68863  0.63155  1.0000
  O   O10       1.0  0.17964  0.31137  0.13155  1.0000
  O   O11       1.0  0.74739  0.77374  0.49964  1.0000
  O   O12       1.0  0.25262  0.22626  0.99964  1.0000
  O   O13       1.0  0.41053  0.36245  0.80417  1.0000
  O   O14       1.0  0.58946  0.63754  0.30418  1.0000
  O   O15       1.0  0.67894  0.52323  0.76364  1.0000
  O   O16       1.0  0.32105  0.47676  0.26365  1.0000
  F   F1        1.0  0.92074  0.86920  0.09626  1.0000
  F   F2        1.0  0.07926  0.13080  0.59626  1.0000
  F   F3        1.0  0.57666  0.83637  0.82778  1.0000
  F   F4        1.0  0.42334  0.16363  0.32778  1.0000
  F   F5        1.0  0.89414  0.44362  0.28723  1.0000
  F   F6        1.0  0.10586  0.55638  0.78723  1.0000
  F   F7        1.0  0.62992  0.32293  0.58804  1.0000
  F   F8        1.0  0.37008  0.67706  0.08804  1.0000
