data_image0
_chemical_formula_structural       Zn4H32C36S4N8
_chemical_formula_sum              "Zn4 H32 C36 S4 N8"
_cell_length_a       7.33052
_cell_length_b       9.72681
_cell_length_c       12.5999
_cell_angle_alpha    89.9999
_cell_angle_beta     89.9997
_cell_angle_gamma    89.9991

_space_group_name_H-M_alt    "P 1"
_space_group_IT_number       1

loop_
  _space_group_symop_operation_xyz
  'x, y, z'

loop_
  _atom_site_type_symbol
  _atom_site_label
  _atom_site_symmetry_multiplicity
  _atom_site_fract_x
  _atom_site_fract_y
  _atom_site_fract_z
  _atom_site_occupancy
  Zn  Zn1       1.0  0.72250  0.78420  0.86168  1.0000
  Zn  Zn2       1.0  0.22251  0.21580  0.13832  1.0000
  Zn  Zn3       1.0  0.72251  0.28420  0.13832  1.0000
  Zn  Zn4       1.0  0.22251  0.71580  0.86168  1.0000
  H   H1        1.0  0.19596  0.98156  0.78175  1.0000
  H   H2        1.0  0.69597  0.01844  0.21824  1.0000
  H   H3        1.0  0.19597  0.48156  0.21825  1.0000
  H   H4        1.0  0.69596  0.51845  0.78176  1.0000
  H   H5        1.0  0.20669  0.20332  0.68608  1.0000
  H   H6        1.0  0.70670  0.79666  0.31391  1.0000
  H   H7        1.0  0.20670  0.70333  0.31392  1.0000
  H   H8        1.0  0.70670  0.29667  0.68609  1.0000
  H   H9        1.0  0.99067  0.24951  0.53743  1.0000
  H   H10       1.0  0.49068  0.75048  0.46256  1.0000
  H   H11       1.0  0.99068  0.74951  0.46257  1.0000
  H   H12       1.0  0.49068  0.25048  0.53745  1.0000
  H   H13       1.0  0.76537  0.06908  0.48456  1.0000
  H   H14       1.0  0.26539  0.93092  0.51543  1.0000
  H   H15       1.0  0.76538  0.56908  0.51544  1.0000
  H   H16       1.0  0.26538  0.43092  0.48457  1.0000
  H   H17       1.0  0.75529  0.84730  0.58059  1.0000
  H   H18       1.0  0.25530  0.15270  0.41941  1.0000
  H   H19       1.0  0.75529  0.34731  0.41941  1.0000
  H   H20       1.0  0.25529  0.65269  0.58059  1.0000
  H   H21       1.0  0.57873  0.07390  0.76790  1.0000
  H   H22       1.0  0.07874  0.92612  0.23210  1.0000
  H   H23       1.0  0.57872  0.57389  0.23210  1.0000
  H   H24       1.0  0.07874  0.42611  0.76790  1.0000
  H   H25       1.0  0.56658  0.30273  0.89985  1.0000
  H   H26       1.0  0.06659  0.69728  0.10015  1.0000
  H   H27       1.0  0.56657  0.80273  0.10015  1.0000
  H   H28       1.0  0.06658  0.19728  0.89985  1.0000
  H   H29       1.0  0.83154  0.97671  0.05861  1.0000
  H   H30       1.0  0.33154  0.02329  0.94139  1.0000
  H   H31       1.0  0.83154  0.47671  0.94139  1.0000
  H   H32       1.0  0.33154  0.52329  0.05861  1.0000
  C   C1        1.0  0.97679  0.89871  0.68676  1.0000
  C   C2        1.0  0.47680  0.10129  0.31324  1.0000
  C   C3        1.0  0.97680  0.39871  0.31324  1.0000
  C   C4        1.0  0.47679  0.60129  0.68676  1.0000
  C   C5        1.0  0.10170  0.00060  0.71668  1.0000
  C   C6        1.0  0.60171  0.99940  0.28331  1.0000
  C   C7        1.0  0.10172  0.50061  0.28332  1.0000
  C   C8        1.0  0.60171  0.49940  0.71669  1.0000
  C   C9        1.0  0.10681  0.12588  0.66286  1.0000
  C   C10       1.0  0.60682  0.87411  0.33713  1.0000
  C   C11       1.0  0.10682  0.62588  0.33714  1.0000
  C   C12       1.0  0.60681  0.37412  0.66286  1.0000
  C   C13       1.0  0.98620  0.15159  0.57941  1.0000
  C   C14       1.0  0.48621  0.84840  0.42059  1.0000
  C   C15       1.0  0.98621  0.65160  0.42059  1.0000
  C   C16       1.0  0.48621  0.34840  0.57942  1.0000
  C   C17       1.0  0.85971  0.05102  0.55002  1.0000
  C   C18       1.0  0.35972  0.94898  0.44998  1.0000
  C   C19       1.0  0.85972  0.55102  0.44998  1.0000
  C   C20       1.0  0.35973  0.44898  0.55003  1.0000
  C   C21       1.0  0.85485  0.92520  0.60324  1.0000
  C   C22       1.0  0.35486  0.07480  0.39675  1.0000
  C   C23       1.0  0.85485  0.42520  0.39676  1.0000
  C   C24       1.0  0.35485  0.57480  0.60324  1.0000
  C   C25       1.0  0.62801  0.08773  0.84837  1.0000
  C   C26       1.0  0.12802  0.91228  0.15163  1.0000
  C   C27       1.0  0.62800  0.58772  0.15163  1.0000
  C   C28       1.0  0.12802  0.41228  0.84837  1.0000
  C   C29       1.0  0.62382  0.20152  0.91355  1.0000
  C   C30       1.0  0.12382  0.79849  0.08645  1.0000
  C   C31       1.0  0.62382  0.70151  0.08645  1.0000
  C   C32       1.0  0.12382  0.29849  0.91355  1.0000
  C   C33       1.0  0.75867  0.03458  0.99828  1.0000
  C   C34       1.0  0.25868  0.96543  0.00172  1.0000
  C   C35       1.0  0.75867  0.53458  0.00172  1.0000
  C   C36       1.0  0.25867  0.46542  0.99828  1.0000
  S   S1        1.0  0.96710  0.73508  0.74944  1.0000
  S   S2        1.0  0.46711  0.26492  0.25056  1.0000
  S   S3        1.0  0.96711  0.23508  0.25056  1.0000
  S   S4        1.0  0.46710  0.76492  0.74944  1.0000
  N   N1        1.0  0.71293  0.98225  0.90305  1.0000
  N   N2        1.0  0.21294  0.01776  0.09695  1.0000
  N   N3        1.0  0.71293  0.48224  0.09695  1.0000
  N   N4        1.0  0.21294  0.51776  0.90306  1.0000
  N   N5        1.0  0.70722  0.16709  0.00844  1.0000
  N   N6        1.0  0.20722  0.83292  0.99156  1.0000
  N   N7        1.0  0.70721  0.66708  0.99156  1.0000
  N   N8        1.0  0.20721  0.33292  0.00844  1.0000
