data_image0
_chemical_formula_structural       Mn2H40C46N8O10
_chemical_formula_sum              "Mn2 H40 C46 N8 O10"
_cell_length_a       9.48258
_cell_length_b       9.97492
_cell_length_c       12.8504
_cell_angle_alpha    80.5085
_cell_angle_beta     81.8723
_cell_angle_gamma    63.054

_space_group_name_H-M_alt    "P 1"
_space_group_IT_number       1

loop_
  _space_group_symop_operation_xyz
  'x, y, z'

loop_
  _atom_site_type_symbol
  _atom_site_label
  _atom_site_symmetry_multiplicity
  _atom_site_fract_x
  _atom_site_fract_y
  _atom_site_fract_z
  _atom_site_occupancy
  Mn  Mn1       1.0  0.33685  0.17311  0.09683  1.0000
  Mn  Mn2       1.0  0.66315  0.82689  0.90317  1.0000
  H   H1        1.0  0.91347  0.66476  0.07100  1.0000
  H   H2        1.0  0.08653  0.33524  0.92900  1.0000
  H   H3        1.0  0.68337  0.93823  0.32595  1.0000
  H   H4        1.0  0.31663  0.06177  0.67405  1.0000
  H   H5        1.0  0.07040  0.49153  0.38604  1.0000
  H   H6        1.0  0.92961  0.50847  0.61397  1.0000
  H   H7        1.0  0.79825  0.95260  0.47789  1.0000
  H   H8        1.0  0.20175  0.04740  0.52211  1.0000
  H   H9        1.0  0.78221  0.84253  0.60109  1.0000
  H   H10       1.0  0.21779  0.15747  0.39892  1.0000
  H   H11       1.0  0.64138  0.89542  0.50476  1.0000
  H   H12       1.0  0.35863  0.10458  0.49525  1.0000
  H   H13       1.0  0.65855  0.18652  0.95148  1.0000
  H   H14       1.0  0.34144  0.81348  0.04852  1.0000
  H   H15       1.0  0.64367  0.45661  0.83456  1.0000
  H   H16       1.0  0.35633  0.54338  0.16544  1.0000
  H   H17       1.0  0.18230  0.52005  0.95653  1.0000
  H   H18       1.0  0.81770  0.47995  0.04347  1.0000
  H   H19       1.0  0.40394  0.73918  0.84569  1.0000
  H   H20       1.0  0.59606  0.26082  0.15430  1.0000
  H   H21       1.0  0.21204  0.74623  0.86669  1.0000
  H   H22       1.0  0.78796  0.25377  0.13331  1.0000
  H   H23       1.0  0.14302  0.61879  0.72827  1.0000
  H   H24       1.0  0.85698  0.38121  0.27173  1.0000
  H   H25       1.0  0.14623  0.61223  0.53573  1.0000
  H   H26       1.0  0.85377  0.38777  0.46427  1.0000
  H   H27       1.0  0.52733  0.74363  0.47805  1.0000
  H   H28       1.0  0.47267  0.25636  0.52195  1.0000
  H   H29       1.0  0.52106  0.75381  0.67146  1.0000
  H   H30       1.0  0.47895  0.24618  0.32854  1.0000
  H   H31       1.0  0.46724  0.60788  0.34603  1.0000
  H   H32       1.0  0.53275  0.39213  0.65396  1.0000
  H   H33       1.0  0.27944  0.60671  0.36286  1.0000
  H   H34       1.0  0.72055  0.39330  0.63714  1.0000
  H   H35       1.0  0.48635  0.85240  0.27111  1.0000
  H   H36       1.0  0.51364  0.14761  0.72888  1.0000
  H   H37       1.0  0.01476  0.12628  0.19497  1.0000
  H   H38       1.0  0.98523  0.87372  0.80504  1.0000
  H   H39       1.0  0.03101  0.86333  0.31954  1.0000
  H   H40       1.0  0.96898  0.13668  0.68046  1.0000
  C   C1        1.0  0.12496  0.41781  0.18434  1.0000
  C   C2        1.0  0.87504  0.58219  0.81567  1.0000
  C   C3        1.0  0.00425  0.56308  0.22440  1.0000
  C   C4        1.0  0.99575  0.43692  0.77560  1.0000
  C   C5        1.0  0.90335  0.67915  0.15428  1.0000
  C   C6        1.0  0.09665  0.32085  0.84573  1.0000
  C   C7        1.0  0.78946  0.81356  0.19170  1.0000
  C   C8        1.0  0.21054  0.18644  0.80830  1.0000
  C   C9        1.0  0.77334  0.83172  0.29977  1.0000
  C   C10       1.0  0.22666  0.16828  0.70023  1.0000
  C   C11       1.0  0.87426  0.71494  0.36926  1.0000
  C   C12       1.0  0.12575  0.28505  0.63074  1.0000
  C   C13       1.0  0.99169  0.58137  0.33127  1.0000
  C   C14       1.0  0.00831  0.41863  0.66873  1.0000
  C   C15       1.0  0.68023  0.93773  0.11709  1.0000
  C   C16       1.0  0.31977  0.06227  0.88292  1.0000
  C   C17       1.0  0.76639  0.86195  0.51631  1.0000
  C   C18       1.0  0.23361  0.13805  0.48369  1.0000
  C   C19       1.0  0.55814  0.29576  0.93563  1.0000
  C   C20       1.0  0.44186  0.70424  0.06437  1.0000
  C   C21       1.0  0.55316  0.42585  0.87679  1.0000
  C   C22       1.0  0.44684  0.57414  0.12321  1.0000
  C   C23       1.0  0.31050  0.46328  0.94173  1.0000
  C   C24       1.0  0.68950  0.53672  0.05827  1.0000
  C   C25       1.0  0.33197  0.68579  0.82942  1.0000
  C   C26       1.0  0.66804  0.31421  0.17058  1.0000
  C   C27       1.0  0.32968  0.68959  0.71177  1.0000
  C   C28       1.0  0.67032  0.31041  0.28823  1.0000
  C   C29       1.0  0.22557  0.64871  0.67309  1.0000
  C   C30       1.0  0.77444  0.35129  0.32690  1.0000
  C   C31       1.0  0.22841  0.64359  0.56505  1.0000
  C   C32       1.0  0.77159  0.35641  0.43495  1.0000
  C   C33       1.0  0.33645  0.67852  0.49407  1.0000
  C   C34       1.0  0.66355  0.32148  0.50592  1.0000
  C   C35       1.0  0.44034  0.71969  0.53292  1.0000
  C   C36       1.0  0.55966  0.28030  0.46708  1.0000
  C   C37       1.0  0.43703  0.72608  0.64088  1.0000
  C   C38       1.0  0.56297  0.27392  0.35911  1.0000
  C   C39       1.0  0.34374  0.66881  0.37735  1.0000
  C   C40       1.0  0.65626  0.33120  0.62264  1.0000
  C   C41       1.0  0.35963  0.89483  0.26745  1.0000
  C   C42       1.0  0.64036  0.10518  0.73255  1.0000
  C   C43       1.0  0.11476  0.03098  0.23018  1.0000
  C   C44       1.0  0.88524  0.96903  0.76982  1.0000
  C   C45       1.0  0.12067  0.90251  0.29206  1.0000
  C   C46       1.0  0.87932  0.09750  0.70794  1.0000
  N   N1        1.0  0.40615  0.32056  0.97644  1.0000
  N   N2        1.0  0.59385  0.67944  0.02356  1.0000
  N   N3        1.0  0.39547  0.53057  0.88183  1.0000
  N   N4        1.0  0.60453  0.46942  0.11817  1.0000
  N   N5        1.0  0.27711  0.81718  0.31472  1.0000
  N   N6        1.0  0.72288  0.18282  0.68527  1.0000
  N   N7        1.0  0.26427  0.02523  0.21548  1.0000
  N   N8        1.0  0.73572  0.97478  0.78452  1.0000
  O   O1        1.0  0.08682  0.36723  0.11281  1.0000
  O   O2        1.0  0.91319  0.63277  0.88718  1.0000
  O   O3        1.0  0.26092  0.35026  0.22116  1.0000
  O   O4        1.0  0.73908  0.64974  0.77884  1.0000
  O   O5        1.0  0.70728  0.92733  0.01819  1.0000
  O   O6        1.0  0.29272  0.07267  0.98182  1.0000
  O   O7        1.0  0.56385  0.04877  0.15782  1.0000
  O   O8        1.0  0.43615  0.95123  0.84219  1.0000
  O   O9        1.0  0.86921  0.72100  0.47569  1.0000
  O   O10       1.0  0.13079  0.27900  0.52431  1.0000
