data_image0
_chemical_formula_structural       Sn2H58C36N2O2
_chemical_formula_sum              "Sn2 H58 C36 N2 O2"
_cell_length_a       6.23502
_cell_length_b       11.1569
_cell_length_c       13.0995
_cell_angle_alpha    100.38
_cell_angle_beta     91.318
_cell_angle_gamma    101.396

_space_group_name_H-M_alt    "P 1"
_space_group_IT_number       1

loop_
  _space_group_symop_operation_xyz
  'x, y, z'

loop_
  _atom_site_type_symbol
  _atom_site_label
  _atom_site_symmetry_multiplicity
  _atom_site_fract_x
  _atom_site_fract_y
  _atom_site_fract_z
  _atom_site_occupancy
  Sn  Sn1       1.0  0.23507  0.48402  0.03435  1.0000
  Sn  Sn2       1.0  0.76490  0.51597  0.96565  1.0000
  H   H1        1.0  0.60405  0.48240  0.70809  1.0000
  H   H2        1.0  0.39594  0.51760  0.29190  1.0000
  H   H3        1.0  0.32594  0.09315  0.62836  1.0000
  H   H4        1.0  0.67404  0.90683  0.37163  1.0000
  H   H5        1.0  0.83428  0.38587  0.47180  1.0000
  H   H6        1.0  0.16572  0.61413  0.52820  1.0000
  H   H7        1.0  0.87447  0.43387  0.60851  1.0000
  H   H8        1.0  0.12554  0.56613  0.39149  1.0000
  H   H9        1.0  0.65404  0.47173  0.54003  1.0000
  H   H10       1.0  0.34597  0.52827  0.45997  1.0000
  H   H11       1.0  0.51781  0.21925  0.38893  1.0000
  H   H12       1.0  0.48220  0.78075  0.61106  1.0000
  H   H13       1.0  0.32848  0.29827  0.45865  1.0000
  H   H14       1.0  0.67153  0.70173  0.54134  1.0000
  H   H15       1.0  0.32781  0.14107  0.46617  1.0000
  H   H16       1.0  0.67220  0.85893  0.53383  1.0000
  H   H17       1.0  0.83854  0.17115  0.48421  1.0000
  H   H18       1.0  0.16146  0.82885  0.51580  1.0000
  H   H19       1.0  0.65695  0.08773  0.56171  1.0000
  H   H20       1.0  0.34306  0.91228  0.43829  1.0000
  H   H21       1.0  0.87463  0.21040  0.62187  1.0000
  H   H22       1.0  0.12538  0.78960  0.37813  1.0000
  H   H23       1.0  0.97595  0.87113  0.73392  1.0000
  H   H24       1.0  0.02404  0.12887  0.26608  1.0000
  H   H25       1.0  0.24449  0.93073  0.69922  1.0000
  H   H26       1.0  0.75551  0.06927  0.30078  1.0000
  H   H27       1.0  0.01259  0.96737  0.63921  1.0000
  H   H28       1.0  0.98741  0.03263  0.36079  1.0000
  H   H29       1.0  0.09731  0.94895  0.91640  1.0000
  H   H30       1.0  0.90269  0.05105  0.08360  1.0000
  H   H31       1.0  0.19772  0.10994  0.96618  1.0000
  H   H32       1.0  0.80229  0.89006  0.03382  1.0000
  H   H33       1.0  0.36336  0.02326  0.88692  1.0000
  H   H34       1.0  0.63665  0.97674  0.11308  1.0000
  H   H35       1.0  0.76128  0.00167  0.84506  1.0000
  H   H36       1.0  0.23871  0.99833  0.15495  1.0000
  H   H37       1.0  0.77348  0.09277  0.74635  1.0000
  H   H38       1.0  0.22652  0.90723  0.25365  1.0000
  H   H39       1.0  0.85328  0.16580  0.87718  1.0000
  H   H40       1.0  0.14672  0.83420  0.12282  1.0000
  H   H41       1.0  0.06884  0.56404  0.78770  1.0000
  H   H42       1.0  0.93116  0.43597  0.21231  1.0000
  H   H43       1.0  0.27153  0.56102  0.69480  1.0000
  H   H44       1.0  0.72847  0.43898  0.30520  1.0000
  H   H45       1.0  0.19647  0.70422  0.74790  1.0000
  H   H46       1.0  0.80353  0.29577  0.25211  1.0000
  H   H47       1.0  0.74477  0.73742  0.88655  1.0000
  H   H48       1.0  0.25523  0.26258  0.11345  1.0000
  H   H49       1.0  0.59981  0.79294  0.79365  1.0000
  H   H50       1.0  0.40020  0.20707  0.20635  1.0000
  H   H51       1.0  0.68698  0.65096  0.75683  1.0000
  H   H52       1.0  0.31302  0.34904  0.24317  1.0000
  H   H53       1.0  0.44739  0.74453  0.01553  1.0000
  H   H54       1.0  0.55262  0.25547  0.98447  1.0000
  H   H55       1.0  0.16731  0.70161  0.96657  1.0000
  H   H56       1.0  0.83270  0.29840  0.03344  1.0000
  H   H57       1.0  0.34736  0.82463  0.92608  1.0000
  H   H58       1.0  0.65265  0.17537  0.07392  1.0000
  C   C1        1.0  0.26280  0.30002  0.84487  1.0000
  C   C2        1.0  0.73721  0.69998  0.15514  1.0000
  C   C3        1.0  0.38967  0.40899  0.81807  1.0000
  C   C4        1.0  0.61034  0.59100  0.18192  1.0000
  C   C5        1.0  0.49954  0.39949  0.72548  1.0000
  C   C6        1.0  0.50046  0.60051  0.27452  1.0000
  C   C7        1.0  0.47974  0.28679  0.65629  1.0000
  C   C8        1.0  0.52023  0.71319  0.34369  1.0000
  C   C9        1.0  0.34405  0.18167  0.68216  1.0000
  C   C10       1.0  0.65591  0.81833  0.31784  1.0000
  C   C11       1.0  0.23434  0.18433  0.77416  1.0000
  C   C12       1.0  0.76566  0.81566  0.22583  1.0000
  C   C13       1.0  0.60221  0.27525  0.55599  1.0000
  C   C14       1.0  0.39779  0.72475  0.44401  1.0000
  C   C15       1.0  0.74874  0.39919  0.54406  1.0000
  C   C16       1.0  0.25126  0.60081  0.45594  1.0000
  C   C17       1.0  0.43423  0.23083  0.46197  1.0000
  C   C18       1.0  0.56578  0.76916  0.53803  1.0000
  C   C19       1.0  0.75130  0.18030  0.55624  1.0000
  C   C20       1.0  0.24870  0.81971  0.44377  1.0000
  C   C21       1.0  0.09308  0.06588  0.80051  1.0000
  C   C22       1.0  0.90692  0.93413  0.19949  1.0000
  C   C23       1.0  0.08203  0.95288  0.71277  1.0000
  C   C24       1.0  0.91797  0.04712  0.28723  1.0000
  C   C25       1.0  0.19437  0.03552  0.89879  1.0000
  C   C26       1.0  0.80564  0.96448  0.10121  1.0000
  C   C27       1.0  0.85623  0.08316  0.81837  1.0000
  C   C28       1.0  0.14377  0.91684  0.18163  1.0000
  C   C29       1.0  0.40108  0.64238  0.85505  1.0000
  C   C30       1.0  0.59892  0.35762  0.14495  1.0000
  C   C31       1.0  0.22457  0.61581  0.76573  1.0000
  C   C32       1.0  0.77544  0.38419  0.23428  1.0000
  C   C33       1.0  0.62159  0.70817  0.82071  1.0000
  C   C34       1.0  0.37841  0.29183  0.17929  1.0000
  C   C35       1.0  0.33696  0.73245  0.94623  1.0000
  C   C36       1.0  0.66305  0.26755  0.05378  1.0000
  N   N1        1.0  0.41774  0.52385  0.89339  1.0000
  N   N2        1.0  0.58227  0.47614  0.10661  1.0000
  O   O1        1.0  0.17347  0.30727  0.93830  1.0000
  O   O2        1.0  0.82652  0.69273  0.06170  1.0000
