data_image0
_chemical_formula_structural       Sr2H24C14O10
_chemical_formula_sum              "Sr2 H24 C14 O10"
_cell_length_a       4.80191
_cell_length_b       7.61564
_cell_length_c       13.0915
_cell_angle_alpha    104.99
_cell_angle_beta     97.5859
_cell_angle_gamma    100.188

_space_group_name_H-M_alt    "P 1"
_space_group_IT_number       1

loop_
  _space_group_symop_operation_xyz
  'x, y, z'

loop_
  _atom_site_type_symbol
  _atom_site_label
  _atom_site_symmetry_multiplicity
  _atom_site_fract_x
  _atom_site_fract_y
  _atom_site_fract_z
  _atom_site_occupancy
  Sr  Sr1       1.0  0.76802  0.26802  0.53598  1.0000
  Sr  Sr2       1.0  0.23199  0.73199  0.46402  1.0000
  H   H1        1.0  0.12289  0.54426  0.80216  1.0000
  H   H2        1.0  0.67939  0.25701  0.80229  1.0000
  H   H3        1.0  0.87712  0.45573  0.19784  1.0000
  H   H4        1.0  0.32060  0.74300  0.19772  1.0000
  H   H5        1.0  0.22443  0.76958  0.79405  1.0000
  H   H6        1.0  0.56816  0.02358  0.79399  1.0000
  H   H7        1.0  0.77559  0.23041  0.20595  1.0000
  H   H8        1.0  0.43183  0.97642  0.20601  1.0000
  H   H9        1.0  0.63850  0.56916  0.89569  1.0000
  H   H10       1.0  0.25698  0.32641  0.89569  1.0000
  H   H11       1.0  0.36151  0.43084  0.10431  1.0000
  H   H12       1.0  0.74299  0.67359  0.10431  1.0000
  H   H13       1.0  0.72559  0.80200  0.89433  1.0000
  H   H14       1.0  0.16835  0.09224  0.89445  1.0000
  H   H15       1.0  0.27441  0.19800  0.10568  1.0000
  H   H16       1.0  0.83163  0.90775  0.10555  1.0000
  H   H17       1.0  0.24570  0.64011  0.00005  1.0000
  H   H18       1.0  0.75428  0.35989  0.99995  1.0000
  H   H19       1.0  0.33439  0.87347  1.00000  1.0000
  H   H20       1.0  0.66560  0.12652  1.00000  1.0000
  H   H21       1.0  0.17326  0.08553  0.38269  1.0000
  H   H22       1.0  0.20984  0.29714  0.38270  1.0000
  H   H23       1.0  0.82674  0.91447  0.61731  1.0000
  H   H24       1.0  0.79015  0.70287  0.61730  1.0000
  C   C1        1.0  0.39109  0.56860  0.68908  1.0000
  C   C2        1.0  0.29793  0.12046  0.68908  1.0000
  C   C3        1.0  0.60896  0.43140  0.31092  1.0000
  C   C4        1.0  0.70206  0.87954  0.31093  1.0000
  C   C5        1.0  0.31117  0.64636  0.79759  1.0000
  C   C6        1.0  0.48596  0.15071  0.79755  1.0000
  C   C7        1.0  0.68885  0.35364  0.20241  1.0000
  C   C8        1.0  0.51403  0.84929  0.20245  1.0000
  C   C9        1.0  0.54583  0.69158  0.89666  1.0000
  C   C10       1.0  0.35053  0.20488  0.89663  1.0000
  C   C11       1.0  0.45417  0.30842  0.10335  1.0000
  C   C12       1.0  0.64946  0.79512  0.10338  1.0000
  C   C13       1.0  0.42811  0.75121  0.00002  1.0000
  C   C14       1.0  0.57188  0.24879  0.99999  1.0000
  O   O1        1.0  0.63161  0.52219  0.68414  1.0000
  O   O2        1.0  0.05252  0.16196  0.68405  1.0000
  O   O3        1.0  0.36843  0.47782  0.31587  1.0000
  O   O4        1.0  0.94747  0.83805  0.31595  1.0000
  O   O5        1.0  0.20610  0.55380  0.60542  1.0000
  O   O6        1.0  0.39953  0.05171  0.60548  1.0000
  O   O7        1.0  0.79393  0.44618  0.39457  1.0000
  O   O8        1.0  0.60046  0.94830  0.39452  1.0000
  O   O9        1.0  0.21509  0.21489  0.42984  1.0000
  O   O10       1.0  0.78492  0.78511  0.57016  1.0000
