data_image0
_chemical_formula_structural       Sr2H24C16O8
_chemical_formula_sum              "Sr2 H24 C16 O8"
_cell_length_a       5.70075
_cell_length_b       6.45465
_cell_length_c       12.4495
_cell_angle_alpha    93.1315
_cell_angle_beta     103.836
_cell_angle_gamma    93.1207

_space_group_name_H-M_alt    "P 1"
_space_group_IT_number       1

loop_
  _space_group_symop_operation_xyz
  'x, y, z'

loop_
  _atom_site_type_symbol
  _atom_site_label
  _atom_site_symmetry_multiplicity
  _atom_site_fract_x
  _atom_site_fract_y
  _atom_site_fract_z
  _atom_site_occupancy
  Sr  Sr1       1.0  0.74961  0.74953  0.99996  1.0000
  Sr  Sr2       1.0  0.25038  0.25046  0.00004  1.0000
  H   H1        1.0  0.41272  0.16643  0.69245  1.0000
  H   H2        1.0  0.58731  0.83351  0.30755  1.0000
  H   H3        1.0  0.61700  0.37476  0.75695  1.0000
  H   H4        1.0  0.38296  0.62523  0.24305  1.0000
  H   H5        1.0  0.75678  0.99751  0.62974  1.0000
  H   H6        1.0  0.24325  0.00249  0.37024  1.0000
  H   H7        1.0  0.95199  0.21512  0.69007  1.0000
  H   H8        1.0  0.04801  0.78488  0.30995  1.0000
  H   H9        1.0  0.69162  0.44526  0.56330  1.0000
  H   H10       1.0  0.30838  0.55474  0.43672  1.0000
  H   H11       1.0  0.48455  0.23277  0.50726  1.0000
  H   H12       1.0  0.51543  0.76726  0.49274  1.0000
  H   H13       1.0  0.80648  0.05660  0.43730  1.0000
  H   H14       1.0  0.19354  0.94341  0.56271  1.0000
  H   H15       1.0  0.01549  0.26721  0.49400  1.0000
  H   H16       1.0  0.98449  0.73282  0.50601  1.0000
  H   H17       1.0  0.75251  0.50575  0.37088  1.0000
  H   H18       1.0  0.24748  0.49425  0.62911  1.0000
  H   H19       1.0  0.54953  0.29239  0.31143  1.0000
  H   H20       1.0  0.45047  0.70763  0.68856  1.0000
  H   H21       1.0  0.87204  0.12232  0.24161  1.0000
  H   H22       1.0  0.12794  0.87768  0.75839  1.0000
  H   H23       1.0  0.08807  0.32335  0.30626  1.0000
  H   H24       1.0  0.91194  0.67665  0.69375  1.0000
  C   C1        1.0  0.66850  0.09924  0.83836  1.0000
  C   C2        1.0  0.33153  0.90077  0.16162  1.0000
  C   C3        1.0  0.60501  0.20769  0.73157  1.0000
  C   C4        1.0  0.39502  0.79229  0.26842  1.0000
  C   C5        1.0  0.76148  0.16597  0.65023  1.0000
  C   C6        1.0  0.23853  0.83404  0.34974  1.0000
  C   C7        1.0  0.67861  0.27595  0.54353  1.0000
  C   C8        1.0  0.32137  0.72408  0.45647  1.0000
  C   C9        1.0  0.82135  0.22594  0.45721  1.0000
  C   C10       1.0  0.17863  0.77407  0.54279  1.0000
  C   C11       1.0  0.74152  0.33682  0.35063  1.0000
  C   C12       1.0  0.25848  0.66318  0.64939  1.0000
  C   C13       1.0  0.89394  0.28927  0.26817  1.0000
  C   C14       1.0  0.10606  0.71072  0.73185  1.0000
  C   C15       1.0  0.83326  0.40080  0.16234  1.0000
  C   C16       1.0  0.16673  0.59920  0.83765  1.0000
  O   O1        1.0  0.88536  0.04933  0.87674  1.0000
  O   O2        1.0  0.11471  0.95066  0.12327  1.0000
  O   O3        1.0  0.50209  0.05865  0.88834  1.0000
  O   O4        1.0  0.49787  0.94139  0.11164  1.0000
  O   O5        1.0  0.00112  0.44273  0.11349  1.0000
  O   O6        1.0  0.99888  0.55721  0.88654  1.0000
  O   O7        1.0  0.61660  0.45126  0.12367  1.0000
  O   O8        1.0  0.38339  0.54873  0.87635  1.0000
