data_image0
_chemical_formula_structural       Rb4H16C32N8Cl8O16
_chemical_formula_sum              "Rb4 H16 C32 N8 Cl8 O16"
_cell_length_a       6.43178
_cell_length_b       9.61312
_cell_length_c       18.005
_cell_angle_alpha    90.0005
_cell_angle_beta     90.0003
_cell_angle_gamma    89.9999

_space_group_name_H-M_alt    "P 1"
_space_group_IT_number       1

loop_
  _space_group_symop_operation_xyz
  'x, y, z'

loop_
  _atom_site_type_symbol
  _atom_site_label
  _atom_site_symmetry_multiplicity
  _atom_site_fract_x
  _atom_site_fract_y
  _atom_site_fract_z
  _atom_site_occupancy
  Rb  Rb1       1.0  0.59605  0.46892  0.34499  1.0000
  Rb  Rb2       1.0  0.40395  0.46891  0.65501  1.0000
  Rb  Rb3       1.0  0.09605  0.53109  0.15501  1.0000
  Rb  Rb4       1.0  0.90395  0.53109  0.84499  1.0000
  H   H1        1.0  0.21361  0.38886  0.47716  1.0000
  H   H2        1.0  0.78640  0.38886  0.52284  1.0000
  H   H3        1.0  0.71361  0.61114  0.02284  1.0000
  H   H4        1.0  0.28640  0.61114  0.97716  1.0000
  H   H5        1.0  0.21561  0.55311  0.47713  1.0000
  H   H6        1.0  0.78439  0.55311  0.52288  1.0000
  H   H7        1.0  0.71561  0.44689  0.02288  1.0000
  H   H8        1.0  0.28439  0.44689  0.97712  1.0000
  H   H9        1.0  0.60758  0.53532  0.13931  1.0000
  H   H10       1.0  0.39243  0.53532  0.86069  1.0000
  H   H11       1.0  0.10758  0.46469  0.36069  1.0000
  H   H12       1.0  0.89243  0.46469  0.63931  1.0000
  H   H13       1.0  0.55896  0.65853  0.19081  1.0000
  H   H14       1.0  0.44104  0.65853  0.80919  1.0000
  H   H15       1.0  0.05896  0.34147  0.30919  1.0000
  H   H16       1.0  0.94104  0.34147  0.69081  1.0000
  C   C1        1.0  0.78910  0.81343  0.45311  1.0000
  C   C2        1.0  0.21089  0.81343  0.54688  1.0000
  C   C3        1.0  0.28910  0.18657  0.04689  1.0000
  C   C4        1.0  0.71088  0.18657  0.95312  1.0000
  C   C5        1.0  0.76077  0.89567  0.52045  1.0000
  C   C6        1.0  0.23923  0.89566  0.47955  1.0000
  C   C7        1.0  0.26076  0.10433  0.97955  1.0000
  C   C8        1.0  0.73924  0.10433  0.02045  1.0000
  C   C9        1.0  0.76164  0.04139  0.51886  1.0000
  C   C10       1.0  0.23837  0.04139  0.48114  1.0000
  C   C11       1.0  0.26162  0.95861  0.98114  1.0000
  C   C12       1.0  0.73837  0.95860  0.01886  1.0000
  C   C13       1.0  0.78901  0.12021  0.45006  1.0000
  C   C14       1.0  0.21099  0.12021  0.54995  1.0000
  C   C15       1.0  0.28902  0.87979  0.04995  1.0000
  C   C16       1.0  0.71100  0.87980  0.95005  1.0000
  C   C17       1.0  0.80731  0.03615  0.38217  1.0000
  C   C18       1.0  0.19268  0.03616  0.61783  1.0000
  C   C19       1.0  0.30732  0.96386  0.11783  1.0000
  C   C20       1.0  0.69268  0.96386  0.88217  1.0000
  C   C21       1.0  0.80924  0.89316  0.38380  1.0000
  C   C22       1.0  0.19074  0.89316  0.61620  1.0000
  C   C23       1.0  0.30924  0.10684  0.11620  1.0000
  C   C24       1.0  0.69077  0.10685  0.88380  1.0000
  C   C25       1.0  0.71596  0.82151  0.58651  1.0000
  C   C26       1.0  0.28405  0.82151  0.41350  1.0000
  C   C27       1.0  0.21596  0.17847  0.91349  1.0000
  C   C28       1.0  0.78404  0.17849  0.08650  1.0000
  C   C29       1.0  0.71951  0.12079  0.58318  1.0000
  C   C30       1.0  0.28049  0.12078  0.41682  1.0000
  C   C31       1.0  0.21949  0.87921  0.91682  1.0000
  C   C32       1.0  0.78051  0.87921  0.08318  1.0000
  N   N1        1.0  0.67518  0.75754  0.63982  1.0000
  N   N2        1.0  0.32482  0.75754  0.36018  1.0000
  N   N3        1.0  0.17514  0.24245  0.86018  1.0000
  N   N4        1.0  0.82484  0.24245  0.13982  1.0000
  N   N5        1.0  0.68091  0.19144  0.63420  1.0000
  N   N6        1.0  0.31909  0.19143  0.36580  1.0000
  N   N7        1.0  0.18091  0.80855  0.86580  1.0000
  N   N8        1.0  0.81910  0.80855  0.13420  1.0000
  Cl  Cl1       1.0  0.82080  0.12337  0.29994  1.0000
  Cl  Cl2       1.0  0.17920  0.12337  0.70006  1.0000
  Cl  Cl3       1.0  0.32082  0.87665  0.20005  1.0000
  Cl  Cl4       1.0  0.67919  0.87664  0.79994  1.0000
  Cl  Cl5       1.0  0.82925  0.79985  0.30412  1.0000
  Cl  Cl6       1.0  0.17076  0.79985  0.69588  1.0000
  Cl  Cl7       1.0  0.32926  0.20016  0.19588  1.0000
  Cl  Cl8       1.0  0.67073  0.20015  0.80412  1.0000
  O   O1        1.0  0.78752  0.68287  0.45315  1.0000
  O   O2        1.0  0.21248  0.68287  0.54686  1.0000
  O   O3        1.0  0.28750  0.31713  0.04685  1.0000
  O   O4        1.0  0.71248  0.31712  0.95314  1.0000
  O   O5        1.0  0.78893  0.25075  0.44869  1.0000
  O   O6        1.0  0.21107  0.25075  0.55131  1.0000
  O   O7        1.0  0.28894  0.74925  0.05131  1.0000
  O   O8        1.0  0.71106  0.74926  0.94868  1.0000
  O   O9        1.0  0.23526  0.47064  0.44513  1.0000
  O   O10       1.0  0.76474  0.47065  0.55487  1.0000
  O   O11       1.0  0.73526  0.52936  0.05488  1.0000
  O   O12       1.0  0.26475  0.52936  0.94513  1.0000
  O   O13       1.0  0.55139  0.55717  0.18975  1.0000
  O   O14       1.0  0.44861  0.55716  0.81025  1.0000
  O   O15       1.0  0.05139  0.44283  0.31026  1.0000
  O   O16       1.0  0.94861  0.44284  0.68975  1.0000
