data_image0
_chemical_formula_structural       Cs4H16C32N8Cl8O16
_chemical_formula_sum              "Cs4 H16 C32 N8 Cl8 O16"
_cell_length_a       6.57888
_cell_length_b       9.79241
_cell_length_c       18.1824
_cell_angle_alpha    90.0009
_cell_angle_beta     90.0001
_cell_angle_gamma    90.0006

_space_group_name_H-M_alt    "P 1"
_space_group_IT_number       1

loop_
  _space_group_symop_operation_xyz
  'x, y, z'

loop_
  _atom_site_type_symbol
  _atom_site_label
  _atom_site_symmetry_multiplicity
  _atom_site_fract_x
  _atom_site_fract_y
  _atom_site_fract_z
  _atom_site_occupancy
  Cs  Cs1       1.0  0.59569  0.46029  0.34265  1.0000
  Cs  Cs2       1.0  0.40430  0.46029  0.65734  1.0000
  Cs  Cs3       1.0  0.09570  0.53971  0.15734  1.0000
  Cs  Cs4       1.0  0.90430  0.53971  0.84266  1.0000
  H   H1        1.0  0.20387  0.38065  0.48312  1.0000
  H   H2        1.0  0.79612  0.38065  0.51688  1.0000
  H   H3        1.0  0.70387  0.61934  0.01688  1.0000
  H   H4        1.0  0.29613  0.61934  0.98312  1.0000
  H   H5        1.0  0.20352  0.54308  0.48176  1.0000
  H   H6        1.0  0.79648  0.54308  0.51824  1.0000
  H   H7        1.0  0.70352  0.45692  0.01824  1.0000
  H   H8        1.0  0.29648  0.45691  0.98176  1.0000
  H   H9        1.0  0.61645  0.55159  0.13340  1.0000
  H   H10       1.0  0.38354  0.55157  0.86660  1.0000
  H   H11       1.0  0.11646  0.44842  0.36660  1.0000
  H   H12       1.0  0.88353  0.44843  0.63340  1.0000
  H   H13       1.0  0.58047  0.67249  0.18599  1.0000
  H   H14       1.0  0.41952  0.67247  0.81401  1.0000
  H   H15       1.0  0.08047  0.32752  0.31401  1.0000
  H   H16       1.0  0.91952  0.32753  0.68599  1.0000
  C   C1        1.0  0.79844  0.80798  0.45220  1.0000
  C   C2        1.0  0.20158  0.80799  0.54781  1.0000
  C   C3        1.0  0.29842  0.19201  0.04780  1.0000
  C   C4        1.0  0.70157  0.19203  0.95220  1.0000
  C   C5        1.0  0.76462  0.88876  0.51848  1.0000
  C   C6        1.0  0.23539  0.88873  0.48152  1.0000
  C   C7        1.0  0.26462  0.11126  0.98151  1.0000
  C   C8        1.0  0.73537  0.11125  0.01849  1.0000
  C   C9        1.0  0.76541  0.03182  0.51684  1.0000
  C   C10       1.0  0.23460  0.03181  0.48316  1.0000
  C   C11       1.0  0.26542  0.96819  0.98316  1.0000
  C   C12       1.0  0.73457  0.96819  0.01684  1.0000
  C   C13       1.0  0.79804  0.10924  0.44909  1.0000
  C   C14       1.0  0.20196  0.10923  0.55091  1.0000
  C   C15       1.0  0.29805  0.89076  0.05091  1.0000
  C   C16       1.0  0.70195  0.89077  0.94909  1.0000
  C   C17       1.0  0.81918  0.02685  0.38189  1.0000
  C   C18       1.0  0.18083  0.02685  0.61811  1.0000
  C   C19       1.0  0.31918  0.97315  0.11811  1.0000
  C   C20       1.0  0.68083  0.97315  0.88189  1.0000
  C   C21       1.0  0.82095  0.88645  0.38359  1.0000
  C   C22       1.0  0.17906  0.88646  0.61641  1.0000
  C   C23       1.0  0.32095  0.11354  0.11641  1.0000
  C   C24       1.0  0.67906  0.11355  0.88359  1.0000
  C   C25       1.0  0.71465  0.81688  0.58365  1.0000
  C   C26       1.0  0.28535  0.81686  0.41635  1.0000
  C   C27       1.0  0.21465  0.18312  0.91635  1.0000
  C   C28       1.0  0.78534  0.18313  0.08366  1.0000
  C   C29       1.0  0.71800  0.10905  0.58021  1.0000
  C   C30       1.0  0.28200  0.10904  0.41978  1.0000
  C   C31       1.0  0.21802  0.89094  0.91978  1.0000
  C   C32       1.0  0.78198  0.89096  0.08022  1.0000
  N   N1        1.0  0.66896  0.75660  0.63669  1.0000
  N   N2        1.0  0.33103  0.75658  0.36331  1.0000
  N   N3        1.0  0.16896  0.24340  0.86331  1.0000
  N   N4        1.0  0.83104  0.24341  0.13669  1.0000
  N   N5        1.0  0.67518  0.17596  0.63118  1.0000
  N   N6        1.0  0.32481  0.17595  0.36882  1.0000
  N   N7        1.0  0.17519  0.82404  0.86882  1.0000
  N   N8        1.0  0.82482  0.82404  0.13118  1.0000
  Cl  Cl1       1.0  0.83658  0.11284  0.30056  1.0000
  Cl  Cl2       1.0  0.16342  0.11285  0.69944  1.0000
  Cl  Cl3       1.0  0.33658  0.88715  0.19944  1.0000
  Cl  Cl4       1.0  0.66343  0.88715  0.80056  1.0000
  Cl  Cl5       1.0  0.84318  0.79474  0.30467  1.0000
  Cl  Cl6       1.0  0.15683  0.79475  0.69534  1.0000
  Cl  Cl7       1.0  0.34318  0.20525  0.19534  1.0000
  Cl  Cl8       1.0  0.65684  0.20526  0.80466  1.0000
  O   O1        1.0  0.79952  0.67985  0.45247  1.0000
  O   O2        1.0  0.20049  0.67985  0.54754  1.0000
  O   O3        1.0  0.29951  0.32015  0.04754  1.0000
  O   O4        1.0  0.70048  0.32015  0.95247  1.0000
  O   O5        1.0  0.79986  0.23734  0.44792  1.0000
  O   O6        1.0  0.20014  0.23734  0.55208  1.0000
  O   O7        1.0  0.29986  0.76265  0.05207  1.0000
  O   O8        1.0  0.70014  0.76266  0.94792  1.0000
  O   O9        1.0  0.22655  0.46086  0.45149  1.0000
  O   O10       1.0  0.77345  0.46086  0.54851  1.0000
  O   O11       1.0  0.72654  0.53914  0.04851  1.0000
  O   O12       1.0  0.27345  0.53914  0.95149  1.0000
  O   O13       1.0  0.57371  0.57296  0.18493  1.0000
  O   O14       1.0  0.42629  0.57293  0.81508  1.0000
  O   O15       1.0  0.07371  0.42706  0.31508  1.0000
  O   O16       1.0  0.92629  0.42706  0.68492  1.0000
