data_image0
_chemical_formula_structural       Cs4H48C24Cl4O24
_chemical_formula_sum              "Cs4 H48 C24 Cl4 O24"
_cell_length_a       6.75023
_cell_length_b       8.50683
_cell_length_c       18.7772
_cell_angle_alpha    89.9997
_cell_angle_beta     90
_cell_angle_gamma    107.989

_space_group_name_H-M_alt    "P 1"
_space_group_IT_number       1

loop_
  _space_group_symop_operation_xyz
  'x, y, z'

loop_
  _atom_site_type_symbol
  _atom_site_label
  _atom_site_symmetry_multiplicity
  _atom_site_fract_x
  _atom_site_fract_y
  _atom_site_fract_z
  _atom_site_occupancy
  Cs  Cs1       1.0  0.24138  0.32875  0.92608  1.0000
  Cs  Cs2       1.0  0.25863  0.17125  0.42608  1.0000
  Cs  Cs3       1.0  0.75862  0.67125  0.07392  1.0000
  Cs  Cs4       1.0  0.74137  0.82875  0.57392  1.0000
  H   H1        1.0  0.26499  0.79741  0.84347  1.0000
  H   H2        1.0  0.23501  0.70259  0.34347  1.0000
  H   H3        1.0  0.73500  0.20259  0.15653  1.0000
  H   H4        1.0  0.76499  0.29740  0.65653  1.0000
  H   H5        1.0  0.63357  0.95856  0.94154  1.0000
  H   H6        1.0  0.86644  0.54144  0.44154  1.0000
  H   H7        1.0  0.36644  0.04144  0.05846  1.0000
  H   H8        1.0  0.13356  0.45855  0.55846  1.0000
  H   H9        1.0  0.55731  0.15308  0.84599  1.0000
  H   H10       1.0  0.94269  0.34692  0.34600  1.0000
  H   H11       1.0  0.44269  0.84693  0.15401  1.0000
  H   H12       1.0  0.05731  0.65307  0.65400  1.0000
  H   H13       1.0  0.65655  0.09232  0.72531  1.0000
  H   H14       1.0  0.84346  0.40767  0.22531  1.0000
  H   H15       1.0  0.34345  0.90768  0.27469  1.0000
  H   H16       1.0  0.15654  0.59232  0.77469  1.0000
  H   H17       1.0  0.60211  0.69829  0.82640  1.0000
  H   H18       1.0  0.89790  0.80171  0.32639  1.0000
  H   H19       1.0  0.39790  0.30172  0.17360  1.0000
  H   H20       1.0  0.10210  0.19829  0.67361  1.0000
  H   H21       1.0  0.86539  0.06345  0.82686  1.0000
  H   H22       1.0  0.63462  0.43655  0.32686  1.0000
  H   H23       1.0  0.13462  0.93656  0.17314  1.0000
  H   H24       1.0  0.36538  0.56345  0.67314  1.0000
  H   H25       1.0  0.10077  0.90010  0.91481  1.0000
  H   H26       1.0  0.39924  0.59991  0.41481  1.0000
  H   H27       1.0  0.89923  0.09991  0.08519  1.0000
  H   H28       1.0  0.60075  0.40009  0.58519  1.0000
  H   H29       1.0  0.33676  0.20287  0.76861  1.0000
  H   H30       1.0  0.16324  0.29713  0.26861  1.0000
  H   H31       1.0  0.66324  0.79713  0.23139  1.0000
  H   H32       1.0  0.83676  0.70287  0.73139  1.0000
  H   H33       1.0  0.39476  0.87992  0.68591  1.0000
  H   H34       1.0  0.10524  0.62008  0.18591  1.0000
  H   H35       1.0  0.60524  0.12008  0.31410  1.0000
  H   H36       1.0  0.89476  0.37991  0.81409  1.0000
  H   H37       1.0  0.83527  0.66266  0.89673  1.0000
  H   H38       1.0  0.66475  0.83736  0.39672  1.0000
  H   H39       1.0  0.16474  0.33736  0.10328  1.0000
  H   H40       1.0  0.33525  0.16264  0.60328  1.0000
  H   H41       1.0  0.05014  0.96292  0.76089  1.0000
  H   H42       1.0  0.44986  0.53708  0.26089  1.0000
  H   H43       1.0  0.94986  0.03708  0.23911  1.0000
  H   H44       1.0  0.55014  0.46292  0.73911  1.0000
  H   H45       1.0  0.36204  0.73117  0.98586  1.0000
  H   H46       1.0  0.13795  0.76883  0.48585  1.0000
  H   H47       1.0  0.63797  0.26883  0.01414  1.0000
  H   H48       1.0  0.86204  0.23116  0.51414  1.0000
  C   C1        1.0  0.36756  0.90550  0.87191  1.0000
  C   C2        1.0  0.13244  0.59450  0.37191  1.0000
  C   C3        1.0  0.63245  0.09450  0.12809  1.0000
  C   C4        1.0  0.86755  0.40550  0.62808  1.0000
  C   C5        1.0  0.54228  0.85513  0.90755  1.0000
  C   C6        1.0  0.95773  0.64487  0.40755  1.0000
  C   C7        1.0  0.45772  0.14488  0.09245  1.0000
  C   C8        1.0  0.04227  0.35512  0.59245  1.0000
  C   C9        1.0  0.45679  0.04325  0.81781  1.0000
  C   C10       1.0  0.04322  0.45675  0.31781  1.0000
  C   C11       1.0  0.54321  0.95676  0.18220  1.0000
  C   C12       1.0  0.95678  0.54324  0.68219  1.0000
  C   C13       1.0  0.59060  0.98894  0.76245  1.0000
  C   C14       1.0  0.90940  0.51106  0.26245  1.0000
  C   C15       1.0  0.40940  0.01107  0.23755  1.0000
  C   C16       1.0  0.09060  0.48893  0.73755  1.0000
  C   C17       1.0  0.68916  0.81245  0.85446  1.0000
  C   C18       1.0  0.81083  0.68754  0.35445  1.0000
  C   C19       1.0  0.31084  0.18755  0.14555  1.0000
  C   C20       1.0  0.18915  0.31245  0.64555  1.0000
  C   C21       1.0  0.77144  0.95023  0.79972  1.0000
  C   C22       1.0  0.72857  0.54977  0.29971  1.0000
  C   C23       1.0  0.22857  0.04978  0.20029  1.0000
  C   C24       1.0  0.27142  0.45022  0.70028  1.0000
  Cl  Cl1       1.0  0.78362  0.42019  0.91243  1.0000
  Cl  Cl2       1.0  0.71639  0.07981  0.41243  1.0000
  Cl  Cl3       1.0  0.21639  0.57982  0.08757  1.0000
  Cl  Cl4       1.0  0.28361  0.92018  0.58757  1.0000
  O   O1        1.0  0.25018  0.95409  0.92654  1.0000
  O   O2        1.0  0.24984  0.54592  0.42654  1.0000
  O   O3        1.0  0.74984  0.04593  0.07346  1.0000
  O   O4        1.0  0.75016  0.45407  0.57346  1.0000
  O   O5        1.0  0.28798  0.08456  0.78469  1.0000
  O   O6        1.0  0.21202  0.41543  0.28469  1.0000
  O   O7        1.0  0.71202  0.91544  0.21531  1.0000
  O   O8        1.0  0.78798  0.58456  0.71531  1.0000
  O   O9        1.0  0.47221  0.84493  0.72462  1.0000
  O   O10       1.0  0.02779  0.65507  0.22461  1.0000
  O   O11       1.0  0.52779  0.15507  0.27539  1.0000
  O   O12       1.0  0.97220  0.34492  0.77539  1.0000
  O   O13       1.0  0.45825  0.71077  0.95039  1.0000
  O   O14       1.0  0.04175  0.78923  0.45039  1.0000
  O   O15       1.0  0.54176  0.28923  0.04961  1.0000
  O   O16       1.0  0.95824  0.21077  0.54961  1.0000
  O   O17       1.0  0.86070  0.78418  0.89154  1.0000
  O   O18       1.0  0.63931  0.71583  0.39154  1.0000
  O   O19       1.0  0.13931  0.21584  0.10846  1.0000
  O   O20       1.0  0.36069  0.28416  0.60846  1.0000
  O   O21       1.0  0.90149  0.90551  0.74799  1.0000
  O   O22       1.0  0.59852  0.59448  0.24798  1.0000
  O   O23       1.0  0.09852  0.09448  0.25202  1.0000
  O   O24       1.0  0.40148  0.40552  0.75202  1.0000
