data_image0
_chemical_formula_structural       Cs4H40C20Cl4O20
_chemical_formula_sum              "Cs4 H40 C20 Cl4 O20"
_cell_length_a       6.72682
_cell_length_b       8.72108
_cell_length_c       15.3705
_cell_angle_alpha    90.0008
_cell_angle_beta     89.9997
_cell_angle_gamma    90

_space_group_name_H-M_alt    "P 1"
_space_group_IT_number       1

loop_
  _space_group_symop_operation_xyz
  'x, y, z'

loop_
  _atom_site_type_symbol
  _atom_site_label
  _atom_site_symmetry_multiplicity
  _atom_site_fract_x
  _atom_site_fract_y
  _atom_site_fract_z
  _atom_site_occupancy
  Cs  Cs1       1.0  0.02687  0.50990  0.02370  1.0000
  Cs  Cs2       1.0  0.47313  0.49011  0.52370  1.0000
  Cs  Cs3       1.0  0.52687  0.99010  0.97630  1.0000
  Cs  Cs4       1.0  0.97313  0.00990  0.47630  1.0000
  H   H1        1.0  0.91837  0.57957  0.43941  1.0000
  H   H2        1.0  0.58162  0.42043  0.93941  1.0000
  H   H3        1.0  0.41838  0.92043  0.56059  1.0000
  H   H4        1.0  0.08162  0.07957  0.06059  1.0000
  H   H5        1.0  0.63577  0.95041  0.25010  1.0000
  H   H6        1.0  0.86423  0.04959  0.75010  1.0000
  H   H7        1.0  0.13577  0.54959  0.74990  1.0000
  H   H8        1.0  0.36423  0.45041  0.24990  1.0000
  H   H9        1.0  0.40026  0.61176  0.13335  1.0000
  H   H10       1.0  0.09974  0.38823  0.63335  1.0000
  H   H11       1.0  0.90026  0.88824  0.86665  1.0000
  H   H12       1.0  0.59974  0.11176  0.36665  1.0000
  H   H13       1.0  0.77375  0.72126  0.21068  1.0000
  H   H14       1.0  0.72626  0.27874  0.71068  1.0000
  H   H15       1.0  0.27375  0.77874  0.78932  1.0000
  H   H16       1.0  0.22625  0.22126  0.28932  1.0000
  H   H17       1.0  0.12472  0.53655  0.33383  1.0000
  H   H18       1.0  0.37527  0.46345  0.83383  1.0000
  H   H19       1.0  0.62473  0.96345  0.66618  1.0000
  H   H20       1.0  0.87527  0.03655  0.16617  1.0000
  H   H21       1.0  0.48565  0.63772  0.33647  1.0000
  H   H22       1.0  0.01435  0.36228  0.83647  1.0000
  H   H23       1.0  0.98565  0.86228  0.66353  1.0000
  H   H24       1.0  0.51435  0.13772  0.16353  1.0000
  H   H25       1.0  0.51492  0.81366  0.39481  1.0000
  H   H26       1.0  0.98508  0.18634  0.89481  1.0000
  H   H27       1.0  0.01492  0.68634  0.60519  1.0000
  H   H28       1.0  0.48508  0.31366  0.10519  1.0000
  H   H29       1.0  0.32539  0.95198  0.28042  1.0000
  H   H30       1.0  0.17461  0.04801  0.78042  1.0000
  H   H31       1.0  0.82539  0.54802  0.71958  1.0000
  H   H32       1.0  0.67461  0.45198  0.21958  1.0000
  H   H33       1.0  0.99407  0.85729  0.27369  1.0000
  H   H34       1.0  0.50594  0.14271  0.77369  1.0000
  H   H35       1.0  0.49407  0.64271  0.72630  1.0000
  H   H36       1.0  0.00593  0.35730  0.22631  1.0000
  H   H37       1.0  0.21271  0.82064  0.14792  1.0000
  H   H38       1.0  0.28730  0.17935  0.64792  1.0000
  H   H39       1.0  0.71270  0.67936  0.85208  1.0000
  H   H40       1.0  0.78729  0.32064  0.35208  1.0000
  C   C1        1.0  0.07767  0.65669  0.34474  1.0000
  C   C2        1.0  0.42233  0.34331  0.84474  1.0000
  C   C3        1.0  0.57767  0.84331  0.65526  1.0000
  C   C4        1.0  0.92233  0.15670  0.15526  1.0000
  C   C5        1.0  0.41775  0.75041  0.35017  1.0000
  C   C6        1.0  0.08225  0.24959  0.85017  1.0000
  C   C7        1.0  0.91775  0.74959  0.64983  1.0000
  C   C8        1.0  0.58225  0.25041  0.14983  1.0000
  C   C9        1.0  0.38942  0.83857  0.26546  1.0000
  C   C10       1.0  0.11058  0.16142  0.76546  1.0000
  C   C11       1.0  0.88942  0.66143  0.73454  1.0000
  C   C12       1.0  0.61058  0.33858  0.23454  1.0000
  C   C13       1.0  0.04422  0.74000  0.25789  1.0000
  C   C14       1.0  0.45578  0.25999  0.75789  1.0000
  C   C15       1.0  0.54422  0.75999  0.74211  1.0000
  C   C16       1.0  0.95578  0.24001  0.24211  1.0000
  C   C17       1.0  0.24025  0.75481  0.20794  1.0000
  C   C18       1.0  0.25975  0.24519  0.70794  1.0000
  C   C19       1.0  0.74025  0.74519  0.79206  1.0000
  C   C20       1.0  0.75975  0.25481  0.29206  1.0000
  Cl  Cl1       1.0  0.53538  0.60424  0.01710  1.0000
  Cl  Cl2       1.0  0.96462  0.39576  0.51710  1.0000
  Cl  Cl3       1.0  0.03537  0.89576  0.98290  1.0000
  Cl  Cl4       1.0  0.46462  0.10424  0.48290  1.0000
  O   O1        1.0  0.23082  0.73451  0.39468  1.0000
  O   O2        1.0  0.26918  0.26549  0.89468  1.0000
  O   O3        1.0  0.73082  0.76549  0.60532  1.0000
  O   O4        1.0  0.76918  0.23451  0.10532  1.0000
  O   O5        1.0  0.90512  0.66193  0.39442  1.0000
  O   O6        1.0  0.59488  0.33807  0.89442  1.0000
  O   O7        1.0  0.40512  0.83807  0.60558  1.0000
  O   O8        1.0  0.09488  0.16193  0.10558  1.0000
  O   O9        1.0  0.57559  0.85929  0.22092  1.0000
  O   O10       1.0  0.92441  0.14071  0.72092  1.0000
  O   O11       1.0  0.07559  0.64071  0.77908  1.0000
  O   O12       1.0  0.42441  0.35929  0.27908  1.0000
  O   O13       1.0  0.30779  0.60357  0.18438  1.0000
  O   O14       1.0  0.19221  0.39643  0.68438  1.0000
  O   O15       1.0  0.80779  0.89643  0.81562  1.0000
  O   O16       1.0  0.69221  0.10357  0.31562  1.0000
  O   O17       1.0  0.90014  0.66324  0.20589  1.0000
  O   O18       1.0  0.59986  0.33675  0.70589  1.0000
  O   O19       1.0  0.40014  0.83675  0.79411  1.0000
  O   O20       1.0  0.09986  0.16325  0.29411  1.0000
