data_image0
_chemical_formula_structural       Co2H28C46S4N8O12
_chemical_formula_sum              "Co2 H28 C46 S4 N8 O12"
_cell_length_a       9.29301
_cell_length_b       9.98125
_cell_length_c       12.6955
_cell_angle_alpha    84.7035
_cell_angle_beta     80.3468
_cell_angle_gamma    71.3831

_space_group_name_H-M_alt    "P 1"
_space_group_IT_number       1

loop_
  _space_group_symop_operation_xyz
  'x, y, z'

loop_
  _atom_site_type_symbol
  _atom_site_label
  _atom_site_symmetry_multiplicity
  _atom_site_fract_x
  _atom_site_fract_y
  _atom_site_fract_z
  _atom_site_occupancy
  Co  Co1       1.0  0.99298  0.81371  0.09784  1.0000
  Co  Co2       1.0  0.00702  0.18628  0.90217  1.0000
  H   H1        1.0  0.99908  0.47553  0.39844  1.0000
  H   H2        1.0  0.00093  0.52447  0.60156  1.0000
  H   H3        1.0  0.06197  0.03935  0.34896  1.0000
  H   H4        1.0  0.93802  0.96065  0.65104  1.0000
  H   H5        1.0  0.08268  0.33167  0.07799  1.0000
  H   H6        1.0  0.91732  0.66833  0.92201  1.0000
  H   H7        1.0  0.84768  0.01248  0.29943  1.0000
  H   H8        1.0  0.15232  0.98752  0.70058  1.0000
  H   H9        1.0  0.62363  0.82718  0.12022  1.0000
  H   H10       1.0  0.37637  0.17282  0.87979  1.0000
  H   H11       1.0  0.40397  0.00496  0.26599  1.0000
  H   H12       1.0  0.59603  0.99504  0.73401  1.0000
  H   H13       1.0  0.32810  0.26607  0.32659  1.0000
  H   H14       1.0  0.67189  0.73394  0.67341  1.0000
  H   H15       1.0  0.27218  0.42733  0.49004  1.0000
  H   H16       1.0  0.72781  0.57267  0.50995  1.0000
  H   H17       1.0  0.72515  0.22871  0.67635  1.0000
  H   H18       1.0  0.27485  0.77128  0.32365  1.0000
  H   H19       1.0  0.66748  0.37960  0.84483  1.0000
  H   H20       1.0  0.33252  0.62040  0.15517  1.0000
  H   H21       1.0  0.54232  0.71304  0.85331  1.0000
  H   H22       1.0  0.45769  0.28695  0.14668  1.0000
  H   H23       1.0  0.17316  0.54297  0.94034  1.0000
  H   H24       1.0  0.82685  0.45702  0.05966  1.0000
  H   H25       1.0  0.32369  0.87936  0.00618  1.0000
  H   H26       1.0  0.67632  0.12064  0.99382  1.0000
  H   H27       1.0  0.94277  0.33133  0.63741  1.0000
  H   H28       1.0  0.05724  0.66867  0.36259  1.0000
  C   C1        1.0  0.02168  0.56704  0.18943  1.0000
  C   C2        1.0  0.97833  0.43296  0.81057  1.0000
  C   C3        1.0  0.04162  0.41953  0.23338  1.0000
  C   C4        1.0  0.95839  0.58047  0.76663  1.0000
  C   C5        1.0  0.02244  0.39121  0.34376  1.0000
  C   C6        1.0  0.97756  0.60879  0.65624  1.0000
  C   C7        1.0  0.03119  0.25465  0.38519  1.0000
  C   C8        1.0  0.96881  0.74535  0.61481  1.0000
  C   C9        1.0  0.01152  0.22660  0.50345  1.0000
  C   C10       1.0  0.98849  0.77339  0.49655  1.0000
  C   C11       1.0  0.05887  0.14490  0.31596  1.0000
  C   C12       1.0  0.94113  0.85510  0.68405  1.0000
  C   C13       1.0  0.07652  0.17295  0.20500  1.0000
  C   C14       1.0  0.92347  0.82705  0.79500  1.0000
  C   C15       1.0  0.08861  0.06199  0.12890  1.0000
  C   C16       1.0  0.91138  0.93801  0.87110  1.0000
  C   C17       1.0  0.06977  0.30992  0.16412  1.0000
  C   C18       1.0  0.93024  0.69008  0.83588  1.0000
  C   C19       1.0  0.75902  0.98664  0.26805  1.0000
  C   C20       1.0  0.24098  0.01336  0.73195  1.0000
  C   C21       1.0  0.63762  0.89400  0.17788  1.0000
  C   C22       1.0  0.36237  0.10599  0.82212  1.0000
  C   C23       1.0  0.52742  0.98147  0.24874  1.0000
  C   C24       1.0  0.47258  0.01853  0.75126  1.0000
  C   C25       1.0  0.54117  0.14222  0.38379  1.0000
  C   C26       1.0  0.45882  0.85778  0.61621  1.0000
  C   C27       1.0  0.40349  0.24915  0.38665  1.0000
  C   C28       1.0  0.59650  0.75085  0.61335  1.0000
  C   C29       1.0  0.37335  0.33505  0.47539  1.0000
  C   C30       1.0  0.62665  0.66496  0.52461  1.0000
  C   C31       1.0  0.48881  0.29323  0.53908  1.0000
  C   C32       1.0  0.51119  0.70678  0.46092  1.0000
  C   C33       1.0  0.50057  0.35447  0.63462  1.0000
  C   C34       1.0  0.49943  0.64553  0.36538  1.0000
  C   C35       1.0  0.61921  0.31473  0.69576  1.0000
  C   C36       1.0  0.38079  0.68527  0.30424  1.0000
  C   C37       1.0  0.58841  0.39531  0.78752  1.0000
  C   C38       1.0  0.41159  0.60469  0.21248  1.0000
  C   C39       1.0  0.44596  0.49539  0.79606  1.0000
  C   C40       1.0  0.55405  0.50461  0.20394  1.0000
  C   C41       1.0  0.43422  0.70412  0.89540  1.0000
  C   C42       1.0  0.56578  0.29589  0.10460  1.0000
  C   C43       1.0  0.24064  0.61432  0.93906  1.0000
  C   C44       1.0  0.75936  0.38569  0.06094  1.0000
  C   C45       1.0  0.32580  0.78387  0.97113  1.0000
  C   C46       1.0  0.67421  0.21613  0.02887  1.0000
  S   S1        1.0  0.63469  0.14470  0.49017  1.0000
  S   S2        1.0  0.36531  0.85531  0.50983  1.0000
  S   S3        1.0  0.35030  0.49403  0.69056  1.0000
  S   S4        1.0  0.64970  0.50597  0.30943  1.0000
  N   N1        1.0  0.78097  0.89843  0.19075  1.0000
  N   N2        1.0  0.21902  0.10157  0.80925  1.0000
  N   N3        1.0  0.60615  0.04007  0.30606  1.0000
  N   N4        1.0  0.39384  0.95993  0.69394  1.0000
  N   N5        1.0  0.37882  0.59661  0.87490  1.0000
  N   N6        1.0  0.62118  0.40339  0.12509  1.0000
  N   N7        1.0  0.20562  0.72734  0.99775  1.0000
  N   N8        1.0  0.79438  0.27266  0.00225  1.0000
  O   O1        1.0  0.97332  0.60317  0.09962  1.0000
  O   O2        1.0  0.02670  0.39682  0.90038  1.0000
  O   O3        1.0  0.05356  0.65705  0.23965  1.0000
  O   O4        1.0  0.94645  0.34295  0.76035  1.0000
  O   O5        1.0  0.94191  0.34553  0.55666  1.0000
  O   O6        1.0  0.05810  0.65447  0.44335  1.0000
  O   O7        1.0  0.05487  0.10818  0.54634  1.0000
  O   O8        1.0  0.94513  0.89183  0.45366  1.0000
  O   O9        1.0  0.08030  0.94217  0.16859  1.0000
  O   O10       1.0  0.91969  0.05783  0.83142  1.0000
  O   O11       1.0  0.10500  0.09322  0.02889  1.0000
  O   O12       1.0  0.89499  0.90678  0.97112  1.0000
