data_image0
_chemical_formula_structural       Cd2H28C44S4N8O8
_chemical_formula_sum              "Cd2 H28 C44 S4 N8 O8"
_cell_length_a       9.4975
_cell_length_b       10.4624
_cell_length_c       10.9211
_cell_angle_alpha    79.739
_cell_angle_beta     85.2035
_cell_angle_gamma    72.0532

_space_group_name_H-M_alt    "P 1"
_space_group_IT_number       1

loop_
  _space_group_symop_operation_xyz
  'x, y, z'

loop_
  _atom_site_type_symbol
  _atom_site_label
  _atom_site_symmetry_multiplicity
  _atom_site_fract_x
  _atom_site_fract_y
  _atom_site_fract_z
  _atom_site_occupancy
  Cd  Cd1       1.0  0.99605  0.79861  0.11973  1.0000
  Cd  Cd2       1.0  0.00395  0.20139  0.88027  1.0000
  H   H1        1.0  0.07619  0.31738  0.10491  1.0000
  H   H2        1.0  0.92381  0.68262  0.89510  1.0000
  H   H3        1.0  0.96910  0.42873  0.47069  1.0000
  H   H4        1.0  0.03090  0.57126  0.52932  1.0000
  H   H5        1.0  0.98774  0.19152  0.56071  1.0000
  H   H6        1.0  0.01226  0.80848  0.43929  1.0000
  H   H7        1.0  0.05387  0.01303  0.41959  1.0000
  H   H8        1.0  0.94614  0.98696  0.58041  1.0000
  H   H9        1.0  0.82811  0.00432  0.33105  1.0000
  H   H10       1.0  0.17189  0.99567  0.66895  1.0000
  H   H11       1.0  0.61201  0.84180  0.10462  1.0000
  H   H12       1.0  0.38799  0.15821  0.89537  1.0000
  H   H13       1.0  0.39870  0.01318  0.24013  1.0000
  H   H14       1.0  0.60129  0.98682  0.75987  1.0000
  H   H15       1.0  0.29399  0.17489  0.36842  1.0000
  H   H16       1.0  0.70601  0.82510  0.63158  1.0000
  H   H17       1.0  0.24795  0.34168  0.53011  1.0000
  H   H18       1.0  0.75206  0.65832  0.46989  1.0000
  H   H19       1.0  0.73940  0.35315  0.63063  1.0000
  H   H20       1.0  0.26060  0.64685  0.36937  1.0000
  H   H21       1.0  0.68313  0.51229  0.79781  1.0000
  H   H22       1.0  0.31687  0.48772  0.20219  1.0000
  H   H23       1.0  0.18042  0.55320  0.93495  1.0000
  H   H24       1.0  0.81958  0.44680  0.06505  1.0000
  H   H25       1.0  0.53880  0.72249  0.87312  1.0000
  H   H26       1.0  0.46120  0.27752  0.12688  1.0000
  H   H27       1.0  0.32182  0.86843  0.02756  1.0000
  H   H28       1.0  0.67818  0.13157  0.97245  1.0000
  C   C1        1.0  0.09302  0.04571  0.17379  1.0000
  C   C2        1.0  0.90698  0.95429  0.82620  1.0000
  C   C3        1.0  0.06731  0.15345  0.25511  1.0000
  C   C4        1.0  0.93269  0.84655  0.74489  1.0000
  C   C5        1.0  0.05831  0.28851  0.20463  1.0000
  C   C6        1.0  0.94169  0.71150  0.79537  1.0000
  C   C7        1.0  0.02336  0.38807  0.28204  1.0000
  C   C8        1.0  0.97664  0.61193  0.71796  1.0000
  C   C9        1.0  0.99819  0.35190  0.41004  1.0000
  C   C10       1.0  0.00180  0.64810  0.58996  1.0000
  C   C11       1.0  0.00819  0.21764  0.46092  1.0000
  C   C12       1.0  0.99181  0.78236  0.53908  1.0000
  C   C13       1.0  0.04324  0.11910  0.38343  1.0000
  C   C14       1.0  0.95676  0.88090  0.61657  1.0000
  C   C15       1.0  0.00794  0.53401  0.22803  1.0000
  C   C16       1.0  0.99206  0.46599  0.77198  1.0000
  C   C17       1.0  0.74187  0.98111  0.28840  1.0000
  C   C18       1.0  0.25813  0.01889  0.71160  1.0000
  C   C19       1.0  0.62526  0.90145  0.17197  1.0000
  C   C20       1.0  0.37473  0.09856  0.82803  1.0000
  C   C21       1.0  0.51831  0.98614  0.23783  1.0000
  C   C22       1.0  0.48169  0.01385  0.76217  1.0000
  C   C23       1.0  0.53046  0.13083  0.39289  1.0000
  C   C24       1.0  0.46954  0.86917  0.60712  1.0000
  C   C25       1.0  0.38207  0.19295  0.41372  1.0000
  C   C26       1.0  0.61793  0.80705  0.58628  1.0000
  C   C27       1.0  0.35774  0.28273  0.50134  1.0000
  C   C28       1.0  0.64226  0.71727  0.49866  1.0000
  C   C29       1.0  0.48681  0.28938  0.54644  1.0000
  C   C30       1.0  0.51320  0.71062  0.45355  1.0000
  C   C31       1.0  0.50370  0.36904  0.63582  1.0000
  C   C32       1.0  0.49631  0.63096  0.36418  1.0000
  C   C33       1.0  0.62872  0.39440  0.66963  1.0000
  C   C34       1.0  0.37129  0.60560  0.33037  1.0000
  C   C35       1.0  0.59881  0.48101  0.76050  1.0000
  C   C36       1.0  0.40119  0.51900  0.23950  1.0000
  C   C37       1.0  0.45123  0.51991  0.79623  1.0000
  C   C38       1.0  0.54877  0.48010  0.20377  1.0000
  C   C39       1.0  0.24680  0.62035  0.94028  1.0000
  C   C40       1.0  0.75320  0.37965  0.05972  1.0000
  C   C41       1.0  0.43419  0.70954  0.91089  1.0000
  C   C42       1.0  0.56580  0.29046  0.08911  1.0000
  C   C43       1.0  0.32718  0.77965  0.98702  1.0000
  C   C44       1.0  0.67282  0.22034  0.01298  1.0000
  S   S1        1.0  0.64112  0.18251  0.47974  1.0000
  S   S2        1.0  0.35888  0.81749  0.52026  1.0000
  S   S3        1.0  0.34789  0.45198  0.71814  1.0000
  S   S4        1.0  0.65212  0.54802  0.28186  1.0000
  N   N1        1.0  0.76350  0.89906  0.20459  1.0000
  N   N2        1.0  0.23650  0.10094  0.79541  1.0000
  N   N3        1.0  0.59388  0.03664  0.31216  1.0000
  N   N4        1.0  0.40612  0.96335  0.68784  1.0000
  N   N5        1.0  0.38186  0.60896  0.88055  1.0000
  N   N6        1.0  0.61814  0.39104  0.11944  1.0000
  N   N7        1.0  0.21158  0.72356  0.00413  1.0000
  N   N8        1.0  0.78842  0.27643  0.99588  1.0000
  O   O1        1.0  0.07762  0.93133  0.22722  1.0000
  O   O2        1.0  0.92238  0.06867  0.77278  1.0000
  O   O3        1.0  0.12735  0.07275  0.05945  1.0000
  O   O4        1.0  0.87266  0.92726  0.94055  1.0000
  O   O5        1.0  0.96545  0.57635  0.11608  1.0000
  O   O6        1.0  0.03457  0.42365  0.88392  1.0000
  O   O7        1.0  0.03747  0.60907  0.29594  1.0000
  O   O8        1.0  0.96253  0.39093  0.70407  1.0000
