data_image0
_chemical_formula_structural       CuH16C18N6O12
_chemical_formula_sum              "Cu1 H16 C18 N6 O12"
_cell_length_a       5.73885
_cell_length_b       8.65482
_cell_length_c       10.7544
_cell_angle_alpha    86.0127
_cell_angle_beta     78.4816
_cell_angle_gamma    85.656

_space_group_name_H-M_alt    "P 1"
_space_group_IT_number       1

loop_
  _space_group_symop_operation_xyz
  'x, y, z'

loop_
  _atom_site_type_symbol
  _atom_site_label
  _atom_site_symmetry_multiplicity
  _atom_site_fract_x
  _atom_site_fract_y
  _atom_site_fract_z
  _atom_site_occupancy
  Cu  Cu1       1.0  0.99999  1.00000  1.00000  1.0000
  H   H1        1.0  0.73418  0.71835  0.14170  1.0000
  H   H2        1.0  0.26581  0.28165  0.85829  1.0000
  H   H3        1.0  0.34371  0.85152  0.27143  1.0000
  H   H4        1.0  0.65629  0.14848  0.72857  1.0000
  H   H5        1.0  0.81992  0.40273  0.49325  1.0000
  H   H6        1.0  0.18009  0.59727  0.50675  1.0000
  H   H7        1.0  0.34442  0.01950  0.42309  1.0000
  H   H8        1.0  0.65559  0.98050  0.57691  1.0000
  H   H9        1.0  0.19395  0.67544  0.01997  1.0000
  H   H10       1.0  0.80603  0.32456  0.98004  1.0000
  H   H11       1.0  0.30389  0.65137  0.16498  1.0000
  H   H12       1.0  0.69611  0.34863  0.83502  1.0000
  H   H13       1.0  0.62185  0.62736  0.96684  1.0000
  H   H14       1.0  0.37814  0.37264  0.03315  1.0000
  H   H15       1.0  0.54996  0.82479  0.92169  1.0000
  H   H16       1.0  0.45002  0.17522  0.07831  1.0000
  C   C1        1.0  0.22753  0.92618  0.21963  1.0000
  C   C2        1.0  0.77246  0.07383  0.78037  1.0000
  C   C3        1.0  0.12595  0.06517  0.28220  1.0000
  C   C4        1.0  0.87406  0.93483  0.71780  1.0000
  C   C5        1.0  0.94026  0.16421  0.23863  1.0000
  C   C6        1.0  0.05975  0.83579  0.76137  1.0000
  C   C7        1.0  0.83972  0.28849  0.32012  1.0000
  C   C8        1.0  0.16029  0.71151  0.67988  1.0000
  C   C9        1.0  0.90615  0.31012  0.43377  1.0000
  C   C10       1.0  0.09385  0.68988  0.56623  1.0000
  C   C11       1.0  0.09444  0.21526  0.46761  1.0000
  C   C12       1.0  0.90555  0.78473  0.53239  1.0000
  C   C13       1.0  0.20209  0.09407  0.39301  1.0000
  C   C14       1.0  0.79793  0.90593  0.60699  1.0000
  C   C15       1.0  0.29940  0.72707  0.07874  1.0000
  C   C16       1.0  0.70059  0.27293  0.92126  1.0000
  C   C17       1.0  0.55266  0.74124  0.00285  1.0000
  C   C18       1.0  0.44732  0.25876  0.99715  1.0000
  N   N1        1.0  0.18761  0.87955  0.11460  1.0000
  N   N2        1.0  0.81238  0.12046  0.88540  1.0000
  N   N3        1.0  0.66584  0.40280  0.28052  1.0000
  N   N4        1.0  0.33417  0.59720  0.71948  1.0000
  N   N5        1.0  0.17910  0.24358  0.58038  1.0000
  N   N6        1.0  0.82089  0.75642  0.41963  1.0000
  O   O1        1.0  0.86015  0.14166  0.13939  1.0000
  O   O2        1.0  0.13985  0.85834  0.86061  1.0000
  O   O3        1.0  0.70530  0.79844  0.07671  1.0000
  O   O4        1.0  0.29469  0.20156  0.92328  1.0000
  O   O5        1.0  0.48862  0.44413  0.36051  1.0000
  O   O6        1.0  0.51137  0.55585  0.63948  1.0000
  O   O7        1.0  0.71028  0.45701  0.16870  1.0000
  O   O8        1.0  0.28975  0.54301  0.83130  1.0000
  O   O9        1.0  0.07096  0.34637  0.65020  1.0000
  O   O10       1.0  0.92903  0.65364  0.34981  1.0000
  O   O11       1.0  0.35663  0.16364  0.60500  1.0000
  O   O12       1.0  0.64337  0.83637  0.39502  1.0000
