data_image0
_chemical_formula_structural       Zn2H28C44S4N8O10
_chemical_formula_sum              "Zn2 H28 C44 S4 N8 O10"
_cell_length_a       9.1472
_cell_length_b       9.90004
_cell_length_c       12.0293
_cell_angle_alpha    82.5588
_cell_angle_beta     81.6112
_cell_angle_gamma    72.6139

_space_group_name_H-M_alt    "P 1"
_space_group_IT_number       1

loop_
  _space_group_symop_operation_xyz
  'x, y, z'

loop_
  _atom_site_type_symbol
  _atom_site_label
  _atom_site_symmetry_multiplicity
  _atom_site_fract_x
  _atom_site_fract_y
  _atom_site_fract_z
  _atom_site_occupancy
  Zn  Zn1       1.0  0.49372  0.18446  0.40232  1.0000
  Zn  Zn2       1.0  0.50628  0.81554  0.59768  1.0000
  H   H1        1.0  0.59106  0.34669  0.61168  1.0000
  H   H2        1.0  0.40894  0.65331  0.38832  1.0000
  H   H3        1.0  0.48664  0.43144  0.96116  1.0000
  H   H4        1.0  0.51336  0.56856  0.03884  1.0000
  H   H5        1.0  0.57494  0.00588  0.87257  1.0000
  H   H6        1.0  0.42505  0.99413  0.12744  1.0000
  H   H7        1.0  0.32889  0.42978  0.57797  1.0000
  H   H8        1.0  0.67111  0.57022  0.42203  1.0000
  H   H9        1.0  0.15602  0.11513  0.48556  1.0000
  H   H10       1.0  0.84398  0.88487  0.51445  1.0000
  H   H11       1.0  0.93286  0.28101  0.63582  1.0000
  H   H12       1.0  0.06713  0.71899  0.36418  1.0000
  H   H13       1.0  0.80716  0.57263  0.66218  1.0000
  H   H14       1.0  0.19284  0.42738  0.33782  1.0000
  H   H15       1.0  0.74814  0.73509  0.82860  1.0000
  H   H16       1.0  0.25187  0.26491  0.17140  1.0000
  H   H17       1.0  0.23498  0.60842  0.99907  1.0000
  H   H18       1.0  0.76502  0.39159  0.00092  1.0000
  H   H19       1.0  0.18090  0.77348  0.16359  1.0000
  H   H20       1.0  0.81910  0.22652  0.83641  1.0000
  H   H21       1.0  0.64470  0.97840  0.20017  1.0000
  H   H22       1.0  0.35530  0.02159  0.79983  1.0000
  H   H23       1.0  0.08457  0.01932  0.23205  1.0000
  H   H24       1.0  0.91543  0.98068  0.76795  1.0000
  H   H25       1.0  0.86197  0.18618  0.38077  1.0000
  H   H26       1.0  0.13803  0.81382  0.61923  1.0000
  H   H27       1.0  0.51332  0.23646  0.09121  1.0000
  H   H28       1.0  0.48668  0.76354  0.90879  1.0000
  C   C1        1.0  0.60095  0.06764  0.64375  1.0000
  C   C2        1.0  0.39904  0.93237  0.35624  1.0000
  C   C3        1.0  0.58491  0.16617  0.73282  1.0000
  C   C4        1.0  0.41508  0.83383  0.26718  1.0000
  C   C5        1.0  0.57497  0.30981  0.70059  1.0000
  C   C6        1.0  0.42503  0.69019  0.29941  1.0000
  C   C7        1.0  0.53889  0.40546  0.78323  1.0000
  C   C8        1.0  0.46111  0.59455  0.21677  1.0000
  C   C9        1.0  0.51970  0.56182  0.75316  1.0000
  C   C10       1.0  0.48030  0.43818  0.24684  1.0000
  C   C11       1.0  0.51726  0.35676  0.89711  1.0000
  C   C12       1.0  0.48274  0.64325  0.10290  1.0000
  C   C13       1.0  0.53575  0.21240  0.93007  1.0000
  C   C14       1.0  0.46425  0.78761  0.06993  1.0000
  C   C15       1.0  0.56726  0.11714  0.84708  1.0000
  C   C16       1.0  0.43273  0.88286  0.15292  1.0000
  C   C17       1.0  0.25475  0.36396  0.57280  1.0000
  C   C18       1.0  0.74524  0.63603  0.42720  1.0000
  C   C19       1.0  0.15780  0.20576  0.52639  1.0000
  C   C20       1.0  0.84220  0.79423  0.47361  1.0000
  C   C21       1.0  0.04700  0.28591  0.60004  1.0000
  C   C22       1.0  0.95299  0.71409  0.39997  1.0000
  C   C23       1.0  0.04049  0.48708  0.70813  1.0000
  C   C24       1.0  0.95950  0.51292  0.29187  1.0000
  C   C25       1.0  0.89055  0.57195  0.71815  1.0000
  C   C26       1.0  0.10945  0.42805  0.28185  1.0000
  C   C27       1.0  0.85964  0.65904  0.80816  1.0000
  C   C28       1.0  0.14037  0.34096  0.19184  1.0000
  C   C29       1.0  0.98590  0.63943  0.86612  1.0000
  C   C30       1.0  0.01411  0.36057  0.13388  1.0000
  C   C31       1.0  0.00004  0.71110  0.95930  1.0000
  C   C32       1.0  0.99997  0.28890  0.04070  1.0000
  C   C33       1.0  0.12582  0.68828  0.01827  1.0000
  C   C34       1.0  0.87419  0.31172  0.98173  1.0000
  C   C35       1.0  0.09774  0.77748  0.10648  1.0000
  C   C36       1.0  0.90227  0.22251  0.89352  1.0000
  C   C37       1.0  0.95099  0.86917  0.11298  1.0000
  C   C38       1.0  0.04902  0.13083  0.88702  1.0000
  C   C39       1.0  0.73166  0.01341  0.23062  1.0000
  C   C40       1.0  0.26834  0.98658  0.76938  1.0000
  C   C41       1.0  0.96140  0.03540  0.24943  1.0000
  C   C42       1.0  0.03860  0.96459  0.75057  1.0000
  C   C43       1.0  0.84990  0.11769  0.32143  1.0000
  C   C44       1.0  0.15010  0.88231  0.67857  1.0000
  S   S1        1.0  0.14396  0.51034  0.80986  1.0000
  S   S2        1.0  0.85604  0.48966  0.19014  1.0000
  S   S3        1.0  0.84597  0.84762  0.01152  1.0000
  S   S4        1.0  0.15403  0.15237  0.98848  1.0000
  N   N1        1.0  0.28641  0.25493  0.51054  1.0000
  N   N2        1.0  0.71358  0.74506  0.48946  1.0000
  N   N3        1.0  0.11012  0.38605  0.62972  1.0000
  N   N4        1.0  0.88987  0.61395  0.37028  1.0000
  N   N5        1.0  0.88455  0.96953  0.19164  1.0000
  N   N6        1.0  0.11545  0.03046  0.80836  1.0000
  N   N7        1.0  0.70784  0.10280  0.30872  1.0000
  N   N8        1.0  0.29216  0.89719  0.69128  1.0000
  O   O1        1.0  0.61775  0.11586  0.54114  1.0000
  O   O2        1.0  0.38225  0.88415  0.45886  1.0000
  O   O3        1.0  0.59392  0.94157  0.67781  1.0000
  O   O4        1.0  0.40608  0.05843  0.32219  1.0000
  O   O5        1.0  0.52410  0.60547  0.64747  1.0000
  O   O6        1.0  0.47590  0.39453  0.35253  1.0000
  O   O7        1.0  0.50237  0.63813  0.83272  1.0000
  O   O8        1.0  0.49763  0.36187  0.16727  1.0000
  O   O9        1.0  0.52337  0.16092  0.03992  1.0000
  O   O10       1.0  0.47662  0.83909  0.96008  1.0000
