data_image0
_chemical_formula_structural       Zn2H18C30S4N4O8
_chemical_formula_sum              "Zn2 H18 C30 S4 N4 O8"
_cell_length_a       8.86226
_cell_length_b       11.04
_cell_length_c       10.7856
_cell_angle_alpha    90.7671
_cell_angle_beta     105.436
_cell_angle_gamma    104.88

_space_group_name_H-M_alt    "P 1"
_space_group_IT_number       1

loop_
  _space_group_symop_operation_xyz
  'x, y, z'

loop_
  _atom_site_type_symbol
  _atom_site_label
  _atom_site_symmetry_multiplicity
  _atom_site_fract_x
  _atom_site_fract_y
  _atom_site_fract_z
  _atom_site_occupancy
  Zn  Zn1       1.0  0.66760  0.66897  0.09894  1.0000
  Zn  Zn2       1.0  0.33241  0.33104  0.90106  1.0000
  H   H1        1.0  0.17777  0.55012  0.35110  1.0000
  H   H2        1.0  0.82221  0.44988  0.64890  1.0000
  H   H3        1.0  0.01666  0.68500  0.22611  1.0000
  H   H4        1.0  0.98333  0.31500  0.77388  1.0000
  H   H5        1.0  0.57863  0.42419  0.21002  1.0000
  H   H6        1.0  0.42137  0.57582  0.78999  1.0000
  H   H7        1.0  0.68094  0.94614  0.48411  1.0000
  H   H8        1.0  0.31906  0.05386  0.51589  1.0000
  H   H9        1.0  0.08651  0.72686  0.97103  1.0000
  H   H10       1.0  0.91350  0.27314  0.02897  1.0000
  H   H11       1.0  0.72091  0.27950  0.33610  1.0000
  H   H12       1.0  0.27908  0.72050  0.66390  1.0000
  H   H13       1.0  0.90695  0.92550  0.11696  1.0000
  H   H14       1.0  0.09307  0.07449  0.88305  1.0000
  H   H15       1.0  0.00958  0.12442  0.26456  1.0000
  H   H16       1.0  0.99042  0.87557  0.73544  1.0000
  H   H17       1.0  0.59137  0.75776  0.32609  1.0000
  H   H18       1.0  0.40863  0.24224  0.67391  1.0000
  C   C1        1.0  0.16432  0.56716  0.04244  1.0000
  C   C2        1.0  0.83569  0.43284  0.95755  1.0000
  C   C3        1.0  0.04549  0.52038  0.32402  1.0000
  C   C4        1.0  0.95450  0.47962  0.67598  1.0000
  C   C5        1.0  0.85352  0.05063  0.38663  1.0000
  C   C6        1.0  0.14649  0.94937  0.61336  1.0000
  C   C7        1.0  0.11899  0.43809  0.06027  1.0000
  C   C8        1.0  0.88102  0.56192  0.93973  1.0000
  C   C9        1.0  0.95577  0.59481  0.25349  1.0000
  C   C10       1.0  0.04422  0.40519  0.74650  1.0000
  C   C11       1.0  0.96139  0.40417  0.35517  1.0000
  C   C12       1.0  0.03860  0.59583  0.64483  1.0000
  C   C13       1.0  0.33812  0.64453  0.07995  1.0000
  C   C14       1.0  0.66189  0.35546  0.92006  1.0000
  C   C15       1.0  0.71112  0.44906  0.24379  1.0000
  C   C16       1.0  0.28887  0.55094  0.75622  1.0000
  C   C17       1.0  0.73432  0.94589  0.40401  1.0000
  C   C18       1.0  0.26568  0.05411  0.59599  1.0000
  C   C19       1.0  0.23690  0.36696  0.13069  1.0000
  C   C20       1.0  0.76310  0.63305  0.86931  1.0000
  C   C21       1.0  0.04563  0.62685  0.98322  1.0000
  C   C22       1.0  0.95437  0.37316  0.01678  1.0000
  C   C23       1.0  0.79150  0.36865  0.31425  1.0000
  C   C24       1.0  0.20850  0.63135  0.68576  1.0000
  C   C25       1.0  0.86068  0.93484  0.19977  1.0000
  C   C26       1.0  0.13933  0.06515  0.80023  1.0000
  C   C27       1.0  0.91686  0.04508  0.28154  1.0000
  C   C28       1.0  0.08314  0.95491  0.71846  1.0000
  C   C29       1.0  0.68481  0.84044  0.31695  1.0000
  C   C30       1.0  0.31520  0.15956  0.68305  1.0000
  S   S1        1.0  0.91662  0.17919  0.50478  1.0000
  S   S2        1.0  0.08337  0.82081  0.49521  1.0000
  S   S3        1.0  0.08078  0.31182  0.44406  1.0000
  S   S4        1.0  0.91922  0.68818  0.55594  1.0000
  N   N1        1.0  0.79197  0.56035  0.21326  1.0000
  N   N2        1.0  0.20803  0.43966  0.78674  1.0000
  N   N3        1.0  0.74747  0.83401  0.21682  1.0000
  N   N4        1.0  0.25254  0.16598  0.78319  1.0000
  O   O1        1.0  0.27726  0.28994  0.06055  1.0000
  O   O2        1.0  0.72275  0.71007  0.93945  1.0000
  O   O3        1.0  0.27957  0.37714  0.25070  1.0000
  O   O4        1.0  0.72042  0.62285  0.74930  1.0000
  O   O5        1.0  0.44206  0.57888  0.08119  1.0000
  O   O6        1.0  0.55794  0.42111  0.91879  1.0000
  O   O7        1.0  0.37285  0.76059  0.10310  1.0000
  O   O8        1.0  0.62716  0.23940  0.89693  1.0000
