data_image0
_chemical_formula_structural       MnH44C32N2O4
_chemical_formula_sum              "Mn1 H44 C32 N2 O4"
_cell_length_a       7.55915
_cell_length_b       10.6492
_cell_length_c       14.0913
_cell_angle_alpha    110.92
_cell_angle_beta     90.0119
_cell_angle_gamma    110.775

_space_group_name_H-M_alt    "P 1"
_space_group_IT_number       1

loop_
  _space_group_symop_operation_xyz
  'x, y, z'

loop_
  _atom_site_type_symbol
  _atom_site_label
  _atom_site_symmetry_multiplicity
  _atom_site_fract_x
  _atom_site_fract_y
  _atom_site_fract_z
  _atom_site_occupancy
  Mn  Mn1       1.0  0.00000  1.00000  1.00000  1.0000
  H   H1        1.0  0.05108  0.10174  0.60121  1.0000
  H   H2        1.0  0.94893  0.89826  0.39879  1.0000
  H   H3        1.0  0.91970  0.83901  0.53848  1.0000
  H   H4        1.0  0.08030  0.16099  0.46152  1.0000
  H   H5        1.0  0.24030  0.48004  0.74532  1.0000
  H   H6        1.0  0.75970  0.51996  0.25468  1.0000
  H   H7        1.0  0.04438  0.32380  0.66560  1.0000
  H   H8        1.0  0.72024  0.67631  0.33445  1.0000
  H   H9        1.0  0.95562  0.67620  0.33440  1.0000
  H   H10       1.0  0.27976  0.32369  0.66555  1.0000
  H   H11       1.0  0.41091  0.48605  0.89717  1.0000
  H   H12       1.0  0.92419  0.51378  0.10289  1.0000
  H   H13       1.0  0.58909  0.51395  0.10284  1.0000
  H   H14       1.0  0.07581  0.48622  0.89711  1.0000
  H   H15       1.0  0.45100  0.32640  0.82344  1.0000
  H   H16       1.0  0.12400  0.67327  0.17663  1.0000
  H   H17       1.0  0.54900  0.67359  0.17656  1.0000
  H   H18       1.0  0.87600  0.32673  0.82337  1.0000
  H   H19       1.0  0.33655  0.33485  0.93505  1.0000
  H   H20       1.0  0.00130  0.66494  0.06500  1.0000
  H   H21       1.0  0.66345  0.66515  0.06495  1.0000
  H   H22       1.0  0.99870  0.33507  0.93500  1.0000
  H   H23       1.0  0.73334  0.46739  0.50673  1.0000
  H   H24       1.0  0.26666  0.53261  0.49327  1.0000
  H   H25       1.0  0.92533  0.61578  0.49738  1.0000
  H   H26       1.0  0.31006  0.38396  0.50237  1.0000
  H   H27       1.0  0.07468  0.38422  0.50262  1.0000
  H   H28       1.0  0.68995  0.61604  0.49764  1.0000
  H   H29       1.0  0.99270  0.64845  0.77227  1.0000
  H   H30       1.0  0.34338  0.35116  0.22749  1.0000
  H   H31       1.0  0.00731  0.35155  0.22773  1.0000
  H   H32       1.0  0.65663  0.64884  0.77251  1.0000
  H   H33       1.0  0.10722  0.63948  0.66063  1.0000
  H   H34       1.0  0.46714  0.36005  0.33902  1.0000
  H   H35       1.0  0.89278  0.36052  0.33937  1.0000
  H   H36       1.0  0.53286  0.63995  0.66098  1.0000
  H   H37       1.0  0.90924  0.48610  0.66002  1.0000
  H   H38       1.0  0.42282  0.51357  0.33968  1.0000
  H   H39       1.0  0.09076  0.51390  0.33997  1.0000
  H   H40       1.0  0.57718  0.48643  0.66032  1.0000
  H   H41       1.0  0.21815  0.77520  0.94492  1.0000
  H   H42       1.0  0.44430  0.22536  0.05542  1.0000
  H   H43       1.0  0.78184  0.22480  0.05507  1.0000
  H   H44       1.0  0.55569  0.77463  0.94458  1.0000
  C   C1        1.0  0.95543  0.91039  0.79232  1.0000
  C   C2        1.0  0.04458  0.08961  0.20768  1.0000
  C   C3        1.0  0.03300  0.06572  0.82965  1.0000
  C   C4        1.0  0.96700  0.93428  0.17035  1.0000
  C   C5        1.0  0.07046  0.14060  0.76222  1.0000
  C   C6        1.0  0.92954  0.85939  0.23778  1.0000
  C   C7        1.0  0.02620  0.05200  0.65786  1.0000
  C   C8        1.0  0.97380  0.94800  0.34214  1.0000
  C   C9        1.0  0.94978  0.89913  0.62128  1.0000
  C   C10       1.0  0.05022  0.10087  0.37872  1.0000
  C   C11       1.0  0.91170  0.82293  0.68630  1.0000
  C   C12       1.0  0.08831  0.17707  0.31370  1.0000
  C   C13       1.0  0.15353  0.30662  0.80255  1.0000
  C   C14       1.0  0.84647  0.69338  0.19745  1.0000
  C   C15       1.0  0.18059  0.36068  0.71437  1.0000
  C   C16       1.0  0.81941  0.63932  0.28564  1.0000
  C   C17       1.0  0.34995  0.36657  0.86863  1.0000
  C   C18       1.0  0.98283  0.63325  0.13143  1.0000
  C   C19       1.0  0.65005  0.63343  0.13137  1.0000
  C   C20       1.0  0.01716  0.36675  0.86857  1.0000
  C   C21       1.0  0.82879  0.65734  0.64835  1.0000
  C   C22       1.0  0.17121  0.34266  0.35165  1.0000
  C   C23       1.0  0.79288  0.58623  0.53084  1.0000
  C   C24       1.0  0.20712  0.41377  0.46916  1.0000
  C   C25       1.0  0.96875  0.60539  0.68811  1.0000
  C   C26       1.0  0.36282  0.39430  0.31164  1.0000
  C   C27       1.0  0.03126  0.39461  0.31189  1.0000
  C   C28       1.0  0.63718  0.60570  0.68836  1.0000
  C   C29       1.0  0.34526  0.87548  0.96947  1.0000
  C   C30       1.0  0.47044  0.12478  0.03072  1.0000
  C   C31       1.0  0.65473  0.12452  0.03052  1.0000
  C   C32       1.0  0.52955  0.87521  0.96927  1.0000
  N   N1        1.0  0.31660  0.00027  0.00019  1.0000
  N   N2        1.0  0.68340  0.99973  0.99980  1.0000
  O   O1        1.0  0.92883  0.85694  0.86626  1.0000
  O   O2        1.0  0.07117  0.14306  0.13374  1.0000
  O   O3        1.0  0.06543  0.13093  0.93221  1.0000
  O   O4        1.0  0.93457  0.86907  0.06779  1.0000
