data_image0
_chemical_formula_structural       Zn2H16C18N2O14
_chemical_formula_sum              "Zn2 H16 C18 N2 O14"
_cell_length_a       5.18757
_cell_length_b       8.79916
_cell_length_c       12.0695
_cell_angle_alpha    104.067
_cell_angle_beta     95.9621
_cell_angle_gamma    107.08

_space_group_name_H-M_alt    "P 1"
_space_group_IT_number       1

loop_
  _space_group_symop_operation_xyz
  'x, y, z'

loop_
  _atom_site_type_symbol
  _atom_site_label
  _atom_site_symmetry_multiplicity
  _atom_site_fract_x
  _atom_site_fract_y
  _atom_site_fract_z
  _atom_site_occupancy
  Zn  Zn1       1.0  0.05227  0.82512  0.99798  1.0000
  Zn  Zn2       1.0  0.94772  0.17488  0.00202  1.0000
  H   H1        1.0  0.77364  0.88394  0.43928  1.0000
  H   H2        1.0  0.22636  0.11607  0.56072  1.0000
  H   H3        1.0  0.33809  0.86274  0.19326  1.0000
  H   H4        1.0  0.66189  0.13726  0.80674  1.0000
  H   H5        1.0  0.19599  0.66081  0.13850  1.0000
  H   H6        1.0  0.80400  0.33919  0.86150  1.0000
  H   H7        1.0  0.57905  0.72256  0.07199  1.0000
  H   H8        1.0  0.42094  0.27744  0.92801  1.0000
  H   H9        1.0  0.75979  0.59839  0.06781  1.0000
  H   H10       1.0  0.24021  0.40161  0.93218  1.0000
  H   H11       1.0  0.81923  0.68048  0.28174  1.0000
  H   H12       1.0  0.18079  0.31952  0.71827  1.0000
  H   H13       1.0  0.03819  0.27096  0.36759  1.0000
  H   H14       1.0  0.96182  0.72905  0.63241  1.0000
  H   H15       1.0  0.14618  0.57247  0.46174  1.0000
  H   H16       1.0  0.85385  0.42754  0.53827  1.0000
  C   C1        1.0  0.48941  0.64594  0.37769  1.0000
  C   C2        1.0  0.51060  0.35406  0.62231  1.0000
  C   C3        1.0  0.64433  0.59091  0.29884  1.0000
  C   C4        1.0  0.35568  0.40909  0.70116  1.0000
  C   C5        1.0  0.58141  0.42231  0.24287  1.0000
  C   C6        1.0  0.41859  0.57769  0.75713  1.0000
  C   C7        1.0  0.36162  0.30497  0.26762  1.0000
  C   C8        1.0  0.63839  0.69504  0.73238  1.0000
  C   C9        1.0  0.20793  0.36072  0.34728  1.0000
  C   C10       1.0  0.79208  0.63929  0.65273  1.0000
  C   C11       1.0  0.26766  0.52958  0.40094  1.0000
  C   C12       1.0  0.73236  0.47043  0.59906  1.0000
  C   C13       1.0  0.75278  0.37338  0.15805  1.0000
  C   C14       1.0  0.24722  0.62662  0.84195  1.0000
  C   C15       1.0  0.28999  0.12171  0.21206  1.0000
  C   C16       1.0  0.70998  0.87829  0.78793  1.0000
  C   C17       1.0  0.41533  0.90726  0.47590  1.0000
  C   C18       1.0  0.58464  0.09274  0.52410  1.0000
  N   N1        1.0  0.57083  0.81718  0.43201  1.0000
  N   N2        1.0  0.42919  0.18282  0.56798  1.0000
  O   O1        1.0  0.31489  0.76238  0.12417  1.0000
  O   O2        1.0  0.68510  0.23762  0.87583  1.0000
  O   O3        1.0  0.73081  0.21952  0.12420  1.0000
  O   O4        1.0  0.26919  0.78047  0.87580  1.0000
  O   O5        1.0  0.91100  0.48254  0.12116  1.0000
  O   O6        1.0  0.08900  0.51746  0.87884  1.0000
  O   O7        1.0  0.71309  0.67966  0.03083  1.0000
  O   O8        1.0  0.28691  0.32033  0.96917  1.0000
  O   O9        1.0  0.15393  0.06132  0.10533  1.0000
  O   O10       1.0  0.84607  0.93869  0.89467  1.0000
  O   O11       1.0  0.35454  0.03564  0.27163  1.0000
  O   O12       1.0  0.64540  0.96435  0.72837  1.0000
  O   O13       1.0  0.16647  0.85420  0.47772  1.0000
  O   O14       1.0  0.83356  0.14581  0.52228  1.0000
