data_image0
_chemical_formula_structural       Co2H16C18N2O14
_chemical_formula_sum              "Co2 H16 C18 N2 O14"
_cell_length_a       5.22607
_cell_length_b       8.51269
_cell_length_c       12.0188
_cell_angle_alpha    102.704
_cell_angle_beta     96.2118
_cell_angle_gamma    105.767

_space_group_name_H-M_alt    "P 1"
_space_group_IT_number       1

loop_
  _space_group_symop_operation_xyz
  'x, y, z'

loop_
  _atom_site_type_symbol
  _atom_site_label
  _atom_site_symmetry_multiplicity
  _atom_site_fract_x
  _atom_site_fract_y
  _atom_site_fract_z
  _atom_site_occupancy
  Co  Co1       1.0  0.44124  0.68264  0.50063  1.0000
  Co  Co2       1.0  0.55878  0.31737  0.49937  1.0000
  H   H1        1.0  0.73077  0.61889  0.06560  1.0000
  H   H2        1.0  0.26920  0.38112  0.93441  1.0000
  H   H3        1.0  0.92692  0.78242  0.42911  1.0000
  H   H4        1.0  0.07309  0.21758  0.57089  1.0000
  H   H5        1.0  0.74272  0.90902  0.43037  1.0000
  H   H6        1.0  0.25729  0.09098  0.56962  1.0000
  H   H7        1.0  0.31269  0.86197  0.36573  1.0000
  H   H8        1.0  0.68732  0.13803  0.63427  1.0000
  H   H9        1.0  0.18591  0.65677  0.30887  1.0000
  H   H10       1.0  0.81409  0.34323  0.69113  1.0000
  H   H11       1.0  0.34799  0.92900  0.03800  1.0000
  H   H12       1.0  0.65200  0.07099  0.96200  1.0000
  H   H13       1.0  0.67770  0.83103  0.21744  1.0000
  H   H14       1.0  0.32230  0.16897  0.78256  1.0000
  H   H15       1.0  0.46600  0.23605  0.13246  1.0000
  H   H16       1.0  0.53400  0.76394  0.86753  1.0000
  C   C1        1.0  0.08135  0.59406  0.02255  1.0000
  C   C2        1.0  0.91862  0.40593  0.97746  1.0000
  C   C3        1.0  0.14817  0.20673  0.23388  1.0000
  C   C4        1.0  0.85184  0.79327  0.76612  1.0000
  C   C5        1.0  0.00812  0.86018  0.12290  1.0000
  C   C6        1.0  0.99187  0.13982  0.87710  1.0000
  C   C7        1.0  0.23034  0.97540  0.09920  1.0000
  C   C8        1.0  0.76965  0.02459  0.90080  1.0000
  C   C9        1.0  0.22885  0.39246  0.29123  1.0000
  C   C10       1.0  0.77116  0.60754  0.70877  1.0000
  C   C11       1.0  0.85475  0.91943  0.20113  1.0000
  C   C12       1.0  0.14525  0.08057  0.79887  1.0000
  C   C13       1.0  0.29635  0.14712  0.15331  1.0000
  C   C14       1.0  0.70365  0.85288  0.84669  1.0000
  C   C15       1.0  0.92446  0.09118  0.25758  1.0000
  C   C16       1.0  0.07555  0.90882  0.74242  1.0000
  C   C17       1.0  0.75807  0.14836  0.34107  1.0000
  C   C18       1.0  0.24194  0.85165  0.65893  1.0000
  N   N1        1.0  0.92782  0.68659  0.06922  1.0000
  N   N2        1.0  0.07215  0.31340  0.93078  1.0000
  O   O1        1.0  0.59572  0.04220  0.38177  1.0000
  O   O2        1.0  0.40429  0.95780  0.61824  1.0000
  O   O3        1.0  0.78023  0.81888  0.46444  1.0000
  O   O4        1.0  0.21979  0.18112  0.53556  1.0000
  O   O5        1.0  0.19961  0.75592  0.37877  1.0000
  O   O6        1.0  0.80040  0.24408  0.62123  1.0000
  O   O7        1.0  0.78131  0.30569  0.37382  1.0000
  O   O8        1.0  0.21870  0.69432  0.62618  1.0000
  O   O9        1.0  0.35093  0.44372  0.39876  1.0000
  O   O10       1.0  0.64908  0.55629  0.60124  1.0000
  O   O11       1.0  0.18212  0.48885  0.23152  1.0000
  O   O12       1.0  0.81789  0.51115  0.76848  1.0000
  O   O13       1.0  0.32385  0.64685  0.01601  1.0000
  O   O14       1.0  0.67612  0.35314  0.98400  1.0000
