data_image0
_chemical_formula_structural       Mn2H28C36N4O24
_chemical_formula_sum              "Mn2 H28 C36 N4 O24"
_cell_length_a       7.41933
_cell_length_b       8.21344
_cell_length_c       15.8251
_cell_angle_alpha    105.008
_cell_angle_beta     101.017
_cell_angle_gamma    90.0263

_space_group_name_H-M_alt    "P 1"
_space_group_IT_number       1

loop_
  _space_group_symop_operation_xyz
  'x, y, z'

loop_
  _atom_site_type_symbol
  _atom_site_label
  _atom_site_symmetry_multiplicity
  _atom_site_fract_x
  _atom_site_fract_y
  _atom_site_fract_z
  _atom_site_occupancy
  Mn  Mn1       1.0  0.25006  0.62076  0.00001  1.0000
  Mn  Mn2       1.0  0.74993  0.37915  0.99999  1.0000
  H   H1        1.0  0.12445  0.92384  0.08099  1.0000
  H   H2        1.0  0.37535  0.84321  0.91924  1.0000
  H   H3        1.0  0.87557  0.07614  0.91897  1.0000
  H   H4        1.0  0.62464  0.15687  0.08083  1.0000
  H   H5        1.0  0.94786  0.79367  0.03910  1.0000
  H   H6        1.0  0.55203  0.75479  0.96104  1.0000
  H   H7        1.0  0.05222  0.20627  0.96088  1.0000
  H   H8        1.0  0.44789  0.24522  0.03901  1.0000
  H   H9        1.0  0.90461  0.27108  0.19311  1.0000
  H   H10       1.0  0.59511  0.07719  0.80671  1.0000
  H   H11       1.0  0.09539  0.72894  0.80689  1.0000
  H   H12       1.0  0.40490  0.92281  0.19329  1.0000
  H   H13       1.0  0.83103  0.46184  0.37812  1.0000
  H   H14       1.0  0.66920  0.08337  0.62183  1.0000
  H   H15       1.0  0.16896  0.53814  0.62186  1.0000
  H   H16       1.0  0.33081  0.91663  0.37817  1.0000
  H   H17       1.0  0.70083  0.52728  0.24654  1.0000
  H   H18       1.0  0.79921  0.28036  0.75352  1.0000
  H   H19       1.0  0.29916  0.47273  0.75345  1.0000
  H   H20       1.0  0.20081  0.71964  0.24647  1.0000
  H   H21       1.0  0.02247  0.09411  0.36443  1.0000
  H   H22       1.0  0.47753  0.72902  0.63538  1.0000
  H   H23       1.0  0.97753  0.90589  0.63557  1.0000
  H   H24       1.0  0.52248  0.27098  0.36461  1.0000
  H   H25       1.0  0.06695  0.88810  0.45589  1.0000
  H   H26       1.0  0.43308  0.43163  0.54404  1.0000
  H   H27       1.0  0.93306  0.11190  0.54411  1.0000
  H   H28       1.0  0.56692  0.56837  0.45594  1.0000
  C   C1        1.0  0.88879  0.69414  0.35671  1.0000
  C   C2        1.0  0.61134  0.33698  0.64329  1.0000
  C   C3        1.0  0.11121  0.30586  0.64329  1.0000
  C   C4        1.0  0.38866  0.66303  0.35671  1.0000
  C   C5        1.0  0.77078  0.65204  0.27267  1.0000
  C   C6        1.0  0.72929  0.37895  0.72733  1.0000
  C   C7        1.0  0.22921  0.34796  0.72733  1.0000
  C   C8        1.0  0.27071  0.62105  0.27267  1.0000
  C   C9        1.0  0.74276  0.76855  0.22204  1.0000
  C   C10       1.0  0.75726  0.54607  0.77791  1.0000
  C   C11       1.0  0.25726  0.23145  0.77796  1.0000
  C   C12       1.0  0.24271  0.45394  0.22209  1.0000
  C   C13       1.0  0.83584  0.92902  0.25439  1.0000
  C   C14       1.0  0.66423  0.67406  0.74545  1.0000
  C   C15       1.0  0.16418  0.07099  0.74561  1.0000
  C   C16       1.0  0.33575  0.32595  0.25455  1.0000
  C   C17       1.0  0.95129  0.97023  0.33907  1.0000
  C   C18       1.0  0.54878  0.63055  0.66078  1.0000
  C   C19       1.0  0.04873  0.02977  0.66094  1.0000
  C   C20       1.0  0.45121  0.36944  0.33922  1.0000
  C   C21       1.0  0.97710  0.85571  0.39062  1.0000
  C   C22       1.0  0.52301  0.46454  0.60929  1.0000
  C   C23       1.0  0.02291  0.14428  0.60937  1.0000
  C   C24       1.0  0.47698  0.53546  0.39071  1.0000
  C   C25       1.0  0.61121  0.71312  0.13366  1.0000
  C   C26       1.0  0.88857  0.57899  0.86635  1.0000
  C   C27       1.0  0.38879  0.28691  0.86635  1.0000
  C   C28       1.0  0.11142  0.42102  0.13364  1.0000
  C   C29       1.0  0.81557  0.04893  0.19837  1.0000
  C   C30       1.0  0.68462  0.84998  0.80141  1.0000
  C   C31       1.0  0.18445  0.95108  0.80163  1.0000
  C   C32       1.0  0.31538  0.15002  0.19859  1.0000
  C   C33       1.0  0.01993  0.57815  0.48418  1.0000
  C   C34       1.0  0.48008  0.09386  0.51588  1.0000
  C   C35       1.0  0.98007  0.42184  0.51581  1.0000
  C   C36       1.0  0.51993  0.90615  0.48412  1.0000
  N   N1        1.0  0.91110  0.57160  0.40399  1.0000
  N   N2        1.0  0.58903  0.16727  0.59604  1.0000
  N   N3        1.0  0.08889  0.42840  0.59600  1.0000
  N   N4        1.0  0.41099  0.83274  0.40396  1.0000
  O   O1        1.0  0.44478  0.75806  0.12938  1.0000
  O   O2        1.0  0.05519  0.62790  0.87072  1.0000
  O   O3        1.0  0.55524  0.24192  0.87063  1.0000
  O   O4        1.0  0.94478  0.37209  0.12928  1.0000
  O   O5        1.0  0.66574  0.61640  0.06894  1.0000
  O   O6        1.0  0.83353  0.54738  0.93108  1.0000
  O   O7        1.0  0.33427  0.38358  0.93105  1.0000
  O   O8        1.0  0.16646  0.45258  0.06892  1.0000
  O   O9        1.0  0.07797  0.80346  0.06674  1.0000
  O   O10       1.0  0.42193  0.73699  0.93336  1.0000
  O   O11       1.0  0.92208  0.19653  0.93326  1.0000
  O   O12       1.0  0.57800  0.26305  0.06668  1.0000
  O   O13       1.0  0.73174  0.00691  0.11908  1.0000
  O   O14       1.0  0.76897  0.88737  0.88061  1.0000
  O   O15       1.0  0.26827  0.99311  0.88092  1.0000
  O   O16       1.0  0.23102  0.11264  0.11939  1.0000
  O   O17       1.0  0.89411  0.20180  0.23854  1.0000
  O   O18       1.0  0.60560  0.96257  0.76127  1.0000
  O   O19       1.0  0.10589  0.79822  0.76147  1.0000
  O   O20       1.0  0.39440  0.03744  0.23873  1.0000
  O   O21       1.0  0.13760  0.68967  0.52927  1.0000
  O   O22       1.0  0.36220  0.16033  0.47092  1.0000
  O   O23       1.0  0.86239  0.31032  0.47072  1.0000
  O   O24       1.0  0.63781  0.83967  0.52908  1.0000
