data_image0
_chemical_formula_structural       Ca2H28C36N4O24
_chemical_formula_sum              "Ca2 H28 C36 N4 O24"
_cell_length_a       7.17068
_cell_length_b       8.48357
_cell_length_c       15.9703
_cell_angle_alpha    105.398
_cell_angle_beta     99.4379
_cell_angle_gamma    90.0027

_space_group_name_H-M_alt    "P 1"
_space_group_IT_number       1

loop_
  _space_group_symop_operation_xyz
  'x, y, z'

loop_
  _atom_site_type_symbol
  _atom_site_label
  _atom_site_symmetry_multiplicity
  _atom_site_fract_x
  _atom_site_fract_y
  _atom_site_fract_z
  _atom_site_occupancy
  Ca  Ca1       1.0  0.24997  0.37101  0.00001  1.0000
  Ca  Ca2       1.0  0.75003  0.62899  0.99999  1.0000
  H   H1        1.0  0.13534  0.12229  0.07807  1.0000
  H   H2        1.0  0.36477  0.04455  0.92188  1.0000
  H   H3        1.0  0.86466  0.87771  0.92193  1.0000
  H   H4        1.0  0.63523  0.95545  0.07812  1.0000
  H   H5        1.0  0.93383  0.19128  0.05879  1.0000
  H   H6        1.0  0.56630  0.13286  0.94123  1.0000
  H   H7        1.0  0.06617  0.80871  0.94121  1.0000
  H   H8        1.0  0.43370  0.86714  0.05877  1.0000
  H   H9        1.0  0.59681  0.74074  0.79501  1.0000
  H   H10       1.0  0.90318  0.94553  0.20503  1.0000
  H   H11       1.0  0.40319  0.25925  0.20499  1.0000
  H   H12       1.0  0.09682  0.05447  0.79497  1.0000
  H   H13       1.0  0.66740  0.53850  0.62105  1.0000
  H   H14       1.0  0.83265  0.91716  0.37897  1.0000
  H   H15       1.0  0.33261  0.46150  0.37895  1.0000
  H   H16       1.0  0.16734  0.08284  0.62103  1.0000
  H   H17       1.0  0.80129  0.46964  0.74929  1.0000
  H   H18       1.0  0.69912  0.72020  0.25083  1.0000
  H   H19       1.0  0.19871  0.53036  0.25071  1.0000
  H   H20       1.0  0.30087  0.27980  0.74917  1.0000
  H   H21       1.0  0.48272  0.91802  0.62726  1.0000
  H   H22       1.0  0.01720  0.29042  0.37282  1.0000
  H   H23       1.0  0.51728  0.08199  0.37274  1.0000
  H   H24       1.0  0.98280  0.70957  0.62718  1.0000
  H   H25       1.0  0.44068  0.12092  0.53914  1.0000
  H   H26       1.0  0.05939  0.58143  0.46099  1.0000
  H   H27       1.0  0.55932  0.87908  0.46086  1.0000
  H   H28       1.0  0.94062  0.41857  0.53901  1.0000
  C   C1        1.0  0.61448  0.30931  0.63914  1.0000
  C   C2        1.0  0.88569  0.66994  0.36101  1.0000
  C   C3        1.0  0.38552  0.69069  0.36086  1.0000
  C   C4        1.0  0.11431  0.33005  0.63899  1.0000
  C   C5        1.0  0.73173  0.34836  0.72216  1.0000
  C   C6        1.0  0.76856  0.62603  0.27798  1.0000
  C   C7        1.0  0.26827  0.65164  0.27784  1.0000
  C   C8        1.0  0.23144  0.37397  0.72202  1.0000
  C   C9        1.0  0.76136  0.23309  0.77027  1.0000
  C   C10       1.0  0.73869  0.46268  0.22986  1.0000
  C   C11       1.0  0.23864  0.76691  0.22972  1.0000
  C   C12       1.0  0.26131  0.53732  0.77014  1.0000
  C   C13       1.0  0.66746  0.07727  0.73684  1.0000
  C   C14       1.0  0.83255  0.34025  0.26327  1.0000
  C   C15       1.0  0.33254  0.92273  0.26316  1.0000
  C   C16       1.0  0.16745  0.65975  0.73673  1.0000
  C   C17       1.0  0.55389  0.03859  0.65319  1.0000
  C   C18       1.0  0.94611  0.38513  0.34691  1.0000
  C   C19       1.0  0.44611  0.96141  0.34681  1.0000
  C   C20       1.0  0.05390  0.61487  0.65309  1.0000
  C   C21       1.0  0.52926  0.15136  0.60367  1.0000
  C   C22       1.0  0.97083  0.54738  0.39645  1.0000
  C   C23       1.0  0.47075  0.84864  0.39633  1.0000
  C   C24       1.0  0.02917  0.45262  0.60355  1.0000
  C   C25       1.0  0.90531  0.28039  0.85386  1.0000
  C   C26       1.0  0.59468  0.42662  0.14630  1.0000
  C   C27       1.0  0.09469  0.71961  0.14614  1.0000
  C   C28       1.0  0.40531  0.57338  0.85370  1.0000
  C   C29       1.0  0.67960  0.96116  0.79184  1.0000
  C   C30       1.0  0.82031  0.16910  0.20828  1.0000
  C   C31       1.0  0.32040  0.03884  0.20816  1.0000
  C   C32       1.0  0.17969  0.83090  0.79172  1.0000
  C   C33       1.0  0.48192  0.42300  0.51492  1.0000
  C   C34       1.0  0.01817  0.90805  0.48513  1.0000
  C   C35       1.0  0.51808  0.57700  0.48508  1.0000
  C   C36       1.0  0.98183  0.09195  0.51487  1.0000
  N   N1        1.0  0.58968  0.43029  0.59429  1.0000
  N   N2        1.0  0.91046  0.83581  0.40579  1.0000
  N   N3        1.0  0.41033  0.56971  0.40571  1.0000
  N   N4        1.0  0.08954  0.16419  0.59421  1.0000
  O   O1        1.0  0.06419  0.21130  0.85441  1.0000
  O   O2        1.0  0.43574  0.35700  0.14569  1.0000
  O   O3        1.0  0.93581  0.78869  0.14559  1.0000
  O   O4        1.0  0.56426  0.64300  0.85431  1.0000
  O   O5        1.0  0.06545  0.20397  0.05198  1.0000
  O   O6        1.0  0.43465  0.15230  0.94801  1.0000
  O   O7        1.0  0.93455  0.79603  0.94802  1.0000
  O   O8        1.0  0.56535  0.84770  0.05199  1.0000
  O   O9        1.0  0.87515  0.39565  0.91785  1.0000
  O   O10       1.0  0.62482  0.47806  0.08235  1.0000
  O   O11       1.0  0.12485  0.60435  0.08215  1.0000
  O   O12       1.0  0.37517  0.52194  0.91765  1.0000
  O   O13       1.0  0.74320  0.00753  0.87261  1.0000
  O   O14       1.0  0.75667  0.13474  0.12752  1.0000
  O   O15       1.0  0.25680  0.99247  0.12739  1.0000
  O   O16       1.0  0.24333  0.86527  0.87248  1.0000
  O   O17       1.0  0.61487  0.81005  0.75047  1.0000
  O   O18       1.0  0.88502  0.05930  0.24962  1.0000
  O   O19       1.0  0.38512  0.18996  0.24953  1.0000
  O   O20       1.0  0.11498  0.94070  0.75038  1.0000
  O   O21       1.0  0.36725  0.31214  0.46931  1.0000
  O   O22       1.0  0.13287  0.84291  0.53079  1.0000
  O   O23       1.0  0.63276  0.68786  0.53069  1.0000
  O   O24       1.0  0.86713  0.15709  0.46921  1.0000
