data_image0
_chemical_formula_structural       Cu4P4H20C20N4Cl4O16
_chemical_formula_sum              "Cu4 P4 H20 C20 N4 Cl4 O16"
_cell_length_a       6.89489
_cell_length_b       6.92286
_cell_length_c       17.3908
_cell_angle_alpha    90.0003
_cell_angle_beta     91.0259
_cell_angle_gamma    89.9958

_space_group_name_H-M_alt    "P 1"
_space_group_IT_number       1

loop_
  _space_group_symop_operation_xyz
  'x, y, z'

loop_
  _atom_site_type_symbol
  _atom_site_label
  _atom_site_symmetry_multiplicity
  _atom_site_fract_x
  _atom_site_fract_y
  _atom_site_fract_z
  _atom_site_occupancy
  Cu  Cu1       1.0  0.50004  0.00001  1.00000  1.0000
  Cu  Cu2       1.0  0.50003  0.50000  0.49999  1.0000
  Cu  Cu3       1.0  0.00004  1.00000  0.00000  1.0000
  Cu  Cu4       1.0  0.00003  0.49999  0.50000  1.0000
  P   P1        1.0  0.24074  0.29561  0.92138  1.0000
  P   P2        1.0  0.75927  0.79562  0.57860  1.0000
  P   P3        1.0  0.75930  0.70441  0.07862  1.0000
  P   P4        1.0  0.24076  0.20437  0.42139  1.0000
  H   H1        1.0  0.19156  0.37851  0.75350  1.0000
  H   H2        1.0  0.80837  0.87854  0.74649  1.0000
  H   H3        1.0  0.80841  0.62150  0.24651  1.0000
  H   H4        1.0  0.19156  0.12145  0.25350  1.0000
  H   H5        1.0  0.20881  0.16723  0.63759  1.0000
  H   H6        1.0  0.79111  0.66726  0.86241  1.0000
  H   H7        1.0  0.79113  0.83279  0.36242  1.0000
  H   H8        1.0  0.20879  0.33274  0.13759  1.0000
  H   H9        1.0  0.28435  0.81368  0.65625  1.0000
  H   H10       1.0  0.71559  0.31371  0.84375  1.0000
  H   H11       1.0  0.71557  0.18633  0.34375  1.0000
  H   H12       1.0  0.28437  0.68627  0.15625  1.0000
  H   H13       1.0  0.31293  0.68642  0.79167  1.0000
  H   H14       1.0  0.68706  0.18643  0.70833  1.0000
  H   H15       1.0  0.68704  0.31360  0.20833  1.0000
  H   H16       1.0  0.31296  0.81355  0.29167  1.0000
  H   H17       1.0  0.24839  0.63133  0.90938  1.0000
  H   H18       1.0  0.75162  0.13132  0.59062  1.0000
  H   H19       1.0  0.75165  0.36868  0.09063  1.0000
  H   H20       1.0  0.24841  0.86866  0.40938  1.0000
  C   C1        1.0  0.23514  0.14839  0.83356  1.0000
  C   C2        1.0  0.76487  0.64839  0.66643  1.0000
  C   C3        1.0  0.76488  0.85161  0.16644  1.0000
  C   C4        1.0  0.23512  0.35159  0.33357  1.0000
  C   C5        1.0  0.21566  0.22399  0.75951  1.0000
  C   C6        1.0  0.78430  0.72400  0.74048  1.0000
  C   C7        1.0  0.78431  0.77602  0.24049  1.0000
  C   C8        1.0  0.21564  0.27598  0.25952  1.0000
  C   C9        1.0  0.22705  0.10607  0.69481  1.0000
  C   C10       1.0  0.77288  0.60609  0.80518  1.0000
  C   C11       1.0  0.77289  0.89396  0.30519  1.0000
  C   C12       1.0  0.22705  0.39390  0.19481  1.0000
  C   C13       1.0  0.26789  0.91086  0.70503  1.0000
  C   C14       1.0  0.73204  0.41089  0.79496  1.0000
  C   C15       1.0  0.73204  0.08916  0.29497  1.0000
  C   C16       1.0  0.26792  0.58910  0.20503  1.0000
  C   C17       1.0  0.28441  0.83712  0.77866  1.0000
  C   C18       1.0  0.71557  0.33714  0.72133  1.0000
  C   C19       1.0  0.71555  0.16289  0.22134  1.0000
  C   C20       1.0  0.28444  0.66284  0.27866  1.0000
  N   N1        1.0  0.26014  0.95236  0.84122  1.0000
  N   N2        1.0  0.73986  0.45237  0.65877  1.0000
  N   N3        1.0  0.73986  0.04764  0.15878  1.0000
  N   N4        1.0  0.26016  0.54761  0.34122  1.0000
  Cl  Cl1       1.0  0.25208  0.00324  0.09020  1.0000
  Cl  Cl2       1.0  0.74801  0.50324  0.40980  1.0000
  Cl  Cl3       1.0  0.74802  0.99676  0.90980  1.0000
  Cl  Cl4       1.0  0.25207  0.49675  0.59020  1.0000
  O   O1        1.0  0.43379  0.25889  0.96282  1.0000
  O   O2        1.0  0.56623  0.75889  0.53716  1.0000
  O   O3        1.0  0.56627  0.74113  0.03716  1.0000
  O   O4        1.0  0.43381  0.24111  0.46282  1.0000
  O   O5        1.0  0.23667  0.50080  0.88319  1.0000
  O   O6        1.0  0.76329  0.00080  0.61680  1.0000
  O   O7        1.0  0.76334  0.49921  0.11682  1.0000
  O   O8        1.0  0.23673  0.99918  0.38320  1.0000
  O   O9        1.0  0.05724  0.26139  0.96689  1.0000
  O   O10       1.0  0.94279  0.76139  0.53311  1.0000
  O   O11       1.0  0.94281  0.73863  0.03313  1.0000
  O   O12       1.0  0.05726  0.23859  0.46690  1.0000
  O   O13       1.0  0.26162  0.87331  0.91121  1.0000
  O   O14       1.0  0.73842  0.37332  0.58879  1.0000
  O   O15       1.0  0.73842  0.12670  0.08880  1.0000
  O   O16       1.0  0.26161  0.62667  0.41121  1.0000
