data_image0
_chemical_formula_structural       Cu4P4H20C20Br4N4O16
_chemical_formula_sum              "Cu4 P4 H20 C20 Br4 N4 O16"
_cell_length_a       7.00137
_cell_length_b       6.90859
_cell_length_c       18.3347
_cell_angle_alpha    90.0013
_cell_angle_beta     92.7927
_cell_angle_gamma    89.997

_space_group_name_H-M_alt    "P 1"
_space_group_IT_number       1

loop_
  _space_group_symop_operation_xyz
  'x, y, z'

loop_
  _atom_site_type_symbol
  _atom_site_label
  _atom_site_symmetry_multiplicity
  _atom_site_fract_x
  _atom_site_fract_y
  _atom_site_fract_z
  _atom_site_occupancy
  Cu  Cu1       1.0  0.99984  0.99998  0.99997  1.0000
  Cu  Cu2       1.0  0.99983  0.50004  0.49997  1.0000
  Cu  Cu3       1.0  0.49986  0.99999  0.00002  1.0000
  Cu  Cu4       1.0  0.49984  0.50002  0.50003  1.0000
  P   P1        1.0  0.23658  0.29609  0.92813  1.0000
  P   P2        1.0  0.76321  0.79615  0.57186  1.0000
  P   P3        1.0  0.76325  0.70386  0.07186  1.0000
  P   P4        1.0  0.23659  0.20391  0.42813  1.0000
  H   H1        1.0  0.24267  0.63202  0.91696  1.0000
  H   H2        1.0  0.75714  0.13208  0.58303  1.0000
  H   H3        1.0  0.75718  0.36794  0.08303  1.0000
  H   H4        1.0  0.24266  0.86798  0.41696  1.0000
  H   H5        1.0  0.18835  0.38128  0.76816  1.0000
  H   H6        1.0  0.81193  0.88143  0.73180  1.0000
  H   H7        1.0  0.81191  0.61860  0.23180  1.0000
  H   H8        1.0  0.18826  0.11867  0.26818  1.0000
  H   H9        1.0  0.20535  0.16967  0.65815  1.0000
  H   H10       1.0  0.79526  0.66984  0.84184  1.0000
  H   H11       1.0  0.79521  0.83019  0.34183  1.0000
  H   H12       1.0  0.20524  0.33024  0.15816  1.0000
  H   H13       1.0  0.27762  0.81476  0.67672  1.0000
  H   H14       1.0  0.72277  0.31498  0.82331  1.0000
  H   H15       1.0  0.72278  0.18508  0.32331  1.0000
  H   H16       1.0  0.27758  0.68513  0.17671  1.0000
  H   H17       1.0  0.30615  0.68709  0.80564  1.0000
  H   H18       1.0  0.69381  0.18723  0.69440  1.0000
  H   H19       1.0  0.69385  0.31281  0.19440  1.0000
  H   H20       1.0  0.30613  0.81287  0.30562  1.0000
  C   C1        1.0  0.22950  0.14987  0.84438  1.0000
  C   C2        1.0  0.77054  0.64998  0.65562  1.0000
  C   C3        1.0  0.77055  0.85004  0.15561  1.0000
  C   C4        1.0  0.22945  0.35011  0.34438  1.0000
  C   C5        1.0  0.21146  0.22634  0.77403  1.0000
  C   C6        1.0  0.78876  0.72647  0.72595  1.0000
  C   C7        1.0  0.78875  0.77355  0.22595  1.0000
  C   C8        1.0  0.21140  0.27362  0.27404  1.0000
  C   C9        1.0  0.22253  0.10832  0.71275  1.0000
  C   C10       1.0  0.77793  0.60847  0.78725  1.0000
  C   C11       1.0  0.77790  0.89158  0.28724  1.0000
  C   C12       1.0  0.22245  0.39163  0.21275  1.0000
  C   C13       1.0  0.26176  0.91233  0.72286  1.0000
  C   C14       1.0  0.73856  0.41248  0.77717  1.0000
  C   C15       1.0  0.73855  0.08756  0.27716  1.0000
  C   C16       1.0  0.26172  0.58761  0.22285  1.0000
  C   C17       1.0  0.27777  0.83794  0.79281  1.0000
  C   C18       1.0  0.72231  0.33807  0.70722  1.0000
  C   C19       1.0  0.72234  0.16197  0.20722  1.0000
  C   C20       1.0  0.27773  0.66201  0.29280  1.0000
  Br  Br1       1.0  0.25950  0.00242  0.09780  1.0000
  Br  Br2       1.0  0.74008  0.50252  0.40219  1.0000
  Br  Br3       1.0  0.74009  0.99753  0.90219  1.0000
  Br  Br4       1.0  0.25949  0.49755  0.59780  1.0000
  N   N1        1.0  0.25350  0.95349  0.85179  1.0000
  N   N2        1.0  0.74645  0.45359  0.64822  1.0000
  N   N3        1.0  0.74647  0.04643  0.14822  1.0000
  N   N4        1.0  0.25347  0.54650  0.35179  1.0000
  O   O1        1.0  0.42874  0.25990  0.96840  1.0000
  O   O2        1.0  0.57097  0.75990  0.53166  1.0000
  O   O3        1.0  0.57100  0.74009  0.03166  1.0000
  O   O4        1.0  0.42875  0.24011  0.46840  1.0000
  O   O5        1.0  0.22896  0.50180  0.89186  1.0000
  O   O6        1.0  0.77084  0.00186  0.60812  1.0000
  O   O7        1.0  0.77093  0.49815  0.10812  1.0000
  O   O8        1.0  0.22897  0.99821  0.39186  1.0000
  O   O9        1.0  0.05771  0.26024  0.97015  1.0000
  O   O10       1.0  0.94198  0.76032  0.52978  1.0000
  O   O11       1.0  0.94201  0.73970  0.02977  1.0000
  O   O12       1.0  0.05772  0.23978  0.47016  1.0000
  O   O13       1.0  0.25592  0.87530  0.91828  1.0000
  O   O14       1.0  0.74386  0.37536  0.58173  1.0000
  O   O15       1.0  0.74387  0.12465  0.08173  1.0000
  O   O16       1.0  0.25588  0.62472  0.41827  1.0000
