data_image0
_chemical_formula_structural       Sn4H56C44O16
_chemical_formula_sum              "Sn4 H56 C44 O16"
_cell_length_a       9.99922
_cell_length_b       10.5768
_cell_length_c       12.3138
_cell_angle_alpha    111.822
_cell_angle_beta     90.0001
_cell_angle_gamma    89.9998

_space_group_name_H-M_alt    "P 1"
_space_group_IT_number       1

loop_
  _space_group_symop_operation_xyz
  'x, y, z'

loop_
  _atom_site_type_symbol
  _atom_site_label
  _atom_site_symmetry_multiplicity
  _atom_site_fract_x
  _atom_site_fract_y
  _atom_site_fract_z
  _atom_site_occupancy
  Sn  Sn1       1.0  0.39889  0.44722  0.77075  1.0000
  Sn  Sn2       1.0  0.89889  0.55278  0.72925  1.0000
  Sn  Sn3       1.0  0.60111  0.55278  0.22925  1.0000
  Sn  Sn4       1.0  0.10111  0.44722  0.27075  1.0000
  H   H1        1.0  0.40721  0.71239  0.62625  1.0000
  H   H2        1.0  0.90722  0.28761  0.87374  1.0000
  H   H3        1.0  0.59279  0.28761  0.37375  1.0000
  H   H4        1.0  0.09278  0.71239  0.12625  1.0000
  H   H5        1.0  0.55515  0.91365  0.68505  1.0000
  H   H6        1.0  0.05516  0.08634  0.81494  1.0000
  H   H7        1.0  0.44485  0.08635  0.31495  1.0000
  H   H8        1.0  0.94484  0.91365  0.18505  1.0000
  H   H9        1.0  0.50948  0.11781  0.86664  1.0000
  H   H10       1.0  0.00948  0.88218  0.63336  1.0000
  H   H11       1.0  0.49052  0.88219  0.13336  1.0000
  H   H12       1.0  0.99052  0.11781  0.36663  1.0000
  H   H13       1.0  0.10282  0.11519  0.08739  1.0000
  H   H14       1.0  0.60282  0.88481  0.41261  1.0000
  H   H15       1.0  0.89718  0.88481  0.91261  1.0000
  H   H16       1.0  0.39718  0.11519  0.58738  1.0000
  H   H17       1.0  0.23507  0.01422  0.11809  1.0000
  H   H18       1.0  0.73507  0.98578  0.38191  1.0000
  H   H19       1.0  0.76493  0.98578  0.88191  1.0000
  H   H20       1.0  0.26493  0.01422  0.61809  1.0000
  H   H21       1.0  0.29246  0.24990  0.83686  1.0000
  H   H22       1.0  0.79246  0.75010  0.66314  1.0000
  H   H23       1.0  0.70754  0.75010  0.16314  1.0000
  H   H24       1.0  0.20754  0.24990  0.33686  1.0000
  H   H25       1.0  0.18489  0.27899  0.73177  1.0000
  H   H26       1.0  0.68489  0.72101  0.76823  1.0000
  H   H27       1.0  0.81511  0.72101  0.26822  1.0000
  H   H28       1.0  0.31511  0.27899  0.23177  1.0000
  H   H29       1.0  0.18393  0.39480  0.87978  1.0000
  H   H30       1.0  0.68393  0.60519  0.62022  1.0000
  H   H31       1.0  0.81607  0.60519  0.12022  1.0000
  H   H32       1.0  0.31607  0.39480  0.37978  1.0000
  H   H33       1.0  0.36263  0.35882  0.53817  1.0000
  H   H34       1.0  0.86263  0.64118  0.96183  1.0000
  H   H35       1.0  0.63737  0.64118  0.46183  1.0000
  H   H36       1.0  0.13737  0.35882  0.03817  1.0000
  H   H37       1.0  0.53181  0.32257  0.56585  1.0000
  H   H38       1.0  0.03182  0.67743  0.93415  1.0000
  H   H39       1.0  0.46818  0.67743  0.43415  1.0000
  H   H40       1.0  0.96819  0.32257  0.06586  1.0000
  H   H41       1.0  0.48525  0.49157  0.57992  1.0000
  H   H42       1.0  0.98525  0.50843  0.92008  1.0000
  H   H43       1.0  0.51475  0.50843  0.42008  1.0000
  H   H44       1.0  0.01475  0.49157  0.07992  1.0000
  H   H45       1.0  0.54135  0.59470  0.96233  1.0000
  H   H46       1.0  0.04135  0.40530  0.53767  1.0000
  H   H47       1.0  0.45865  0.40530  0.03767  1.0000
  H   H48       1.0  0.95866  0.59470  0.46233  1.0000
  H   H49       1.0  0.37895  0.66976  0.97097  1.0000
  H   H50       1.0  0.87895  0.33025  0.52904  1.0000
  H   H51       1.0  0.62105  0.33024  0.02904  1.0000
  H   H52       1.0  0.12105  0.66976  0.47097  1.0000
  H   H53       1.0  0.50628  0.69926  0.88074  1.0000
  H   H54       1.0  0.00628  0.30075  0.61926  1.0000
  H   H55       1.0  0.49372  0.30075  0.11926  1.0000
  H   H56       1.0  0.99372  0.69925  0.38074  1.0000
  C   C1        1.0  0.17655  0.67864  0.73695  1.0000
  C   C2        1.0  0.67655  0.32136  0.76305  1.0000
  C   C3        1.0  0.82345  0.32136  0.26305  1.0000
  C   C4        1.0  0.32345  0.67864  0.23695  1.0000
  C   C5        1.0  0.27134  0.79635  0.77184  1.0000
  C   C6        1.0  0.77134  0.20365  0.72816  1.0000
  C   C7        1.0  0.72866  0.20366  0.22816  1.0000
  C   C8        1.0  0.22866  0.79634  0.27184  1.0000
  C   C9        1.0  0.38570  0.79982  0.70577  1.0000
  C   C10       1.0  0.88570  0.20018  0.79423  1.0000
  C   C11       1.0  0.61430  0.20018  0.29423  1.0000
  C   C12       1.0  0.11430  0.79982  0.20577  1.0000
  C   C13       1.0  0.46943  0.91327  0.73949  1.0000
  C   C14       1.0  0.96943  0.08673  0.76051  1.0000
  C   C15       1.0  0.53057  0.08673  0.26051  1.0000
  C   C16       1.0  0.03056  0.91327  0.23949  1.0000
  C   C17       1.0  0.44612  0.02785  0.84226  1.0000
  C   C18       1.0  0.94612  0.97215  0.65774  1.0000
  C   C19       1.0  0.55388  0.97215  0.15774  1.0000
  C   C20       1.0  0.05388  0.02784  0.34225  1.0000
  C   C21       1.0  0.33632  0.02130  0.90839  1.0000
  C   C22       1.0  0.83632  0.97870  0.59161  1.0000
  C   C23       1.0  0.66368  0.97870  0.09161  1.0000
  C   C24       1.0  0.16368  0.02130  0.40839  1.0000
  C   C25       1.0  0.25025  0.90928  0.87348  1.0000
  C   C26       1.0  0.75025  0.09072  0.62652  1.0000
  C   C27       1.0  0.74975  0.09072  0.12652  1.0000
  C   C28       1.0  0.24975  0.90928  0.37348  1.0000
  C   C29       1.0  0.18926  0.04906  0.05254  1.0000
  C   C30       1.0  0.68925  0.95094  0.44746  1.0000
  C   C31       1.0  0.81074  0.95094  0.94746  1.0000
  C   C32       1.0  0.31074  0.04905  0.55253  1.0000
  C   C33       1.0  0.24701  0.32742  0.80943  1.0000
  C   C34       1.0  0.74701  0.67258  0.69057  1.0000
  C   C35       1.0  0.75299  0.67258  0.19057  1.0000
  C   C36       1.0  0.25299  0.32742  0.30943  1.0000
  C   C37       1.0  0.45192  0.39883  0.59136  1.0000
  C   C38       1.0  0.95193  0.60117  0.90865  1.0000
  C   C39       1.0  0.54808  0.60117  0.40865  1.0000
  C   C40       1.0  0.04808  0.39883  0.09135  1.0000
  C   C41       1.0  0.46422  0.62484  0.91364  1.0000
  C   C42       1.0  0.96422  0.37517  0.58636  1.0000
  C   C43       1.0  0.53578  0.37517  0.08636  1.0000
  C   C44       1.0  0.03578  0.62484  0.41364  1.0000
  O   O1        1.0  0.21596  0.56076  0.72572  1.0000
  O   O2        1.0  0.71596  0.43924  0.77429  1.0000
  O   O3        1.0  0.78404  0.43924  0.27429  1.0000
  O   O4        1.0  0.28404  0.56076  0.22571  1.0000
  O   O5        1.0  0.05458  0.70550  0.72148  1.0000
  O   O6        1.0  0.55459  0.29450  0.77852  1.0000
  O   O7        1.0  0.94542  0.29450  0.27852  1.0000
  O   O8        1.0  0.44541  0.70550  0.22148  1.0000
  O   O9        1.0  0.28864  0.11894  0.01045  1.0000
  O   O10       1.0  0.78863  0.88106  0.48955  1.0000
  O   O11       1.0  0.71136  0.88106  0.98955  1.0000
  O   O12       1.0  0.21136  0.11894  0.51044  1.0000
  O   O13       1.0  0.14727  0.93136  0.95281  1.0000
  O   O14       1.0  0.64727  0.06864  0.54719  1.0000
  O   O15       1.0  0.85273  0.06863  0.04719  1.0000
  O   O16       1.0  0.35273  0.93136  0.45280  1.0000
