data_image0
_chemical_formula_structural       Zn2H56C44N12O10
_chemical_formula_sum              "Zn2 H56 C44 N12 O10"
_cell_length_a       9.78126
_cell_length_b       10.2524
_cell_length_c       14.7894
_cell_angle_alpha    111.215
_cell_angle_beta     94.6876
_cell_angle_gamma    115.998

_space_group_name_H-M_alt    "P 1"
_space_group_IT_number       1

loop_
  _space_group_symop_operation_xyz
  'x, y, z'

loop_
  _atom_site_type_symbol
  _atom_site_label
  _atom_site_symmetry_multiplicity
  _atom_site_fract_x
  _atom_site_fract_y
  _atom_site_fract_z
  _atom_site_occupancy
  Zn  Zn1       1.0  0.68192  0.05943  0.37616  1.0000
  Zn  Zn2       1.0  0.31808  0.94058  0.62384  1.0000
  H   H1        1.0  0.85310  0.27532  0.25997  1.0000
  H   H2        1.0  0.14691  0.72469  0.74004  1.0000
  H   H3        1.0  0.81388  0.83821  0.23488  1.0000
  H   H4        1.0  0.18611  0.16179  0.76512  1.0000
  H   H5        1.0  0.02252  0.32454  0.14583  1.0000
  H   H6        1.0  0.97750  0.67548  0.85419  1.0000
  H   H7        1.0  0.94588  0.14124  0.03336  1.0000
  H   H8        1.0  0.05413  0.85878  0.96665  1.0000
  H   H9        1.0  0.17409  0.11316  0.07454  1.0000
  H   H10       1.0  0.82590  0.88683  0.92547  1.0000
  H   H11       1.0  0.24490  0.27057  0.19858  1.0000
  H   H12       1.0  0.75512  0.72944  0.80143  1.0000
  H   H13       1.0  0.20330  0.31833  0.00760  1.0000
  H   H14       1.0  0.79671  0.68165  0.99240  1.0000
  H   H15       1.0  0.29021  0.47155  0.13407  1.0000
  H   H16       1.0  0.70982  0.52845  0.86592  1.0000
  H   H17       1.0  0.42231  0.26002  0.02055  1.0000
  H   H18       1.0  0.57766  0.73993  0.97944  1.0000
  H   H19       1.0  0.50191  0.39568  0.15096  1.0000
  H   H20       1.0  0.49809  0.60427  0.84902  1.0000
  H   H21       1.0  0.54847  0.62599  0.10995  1.0000
  H   H22       1.0  0.45154  0.37397  0.89003  1.0000
  H   H23       1.0  0.65643  0.53153  0.05983  1.0000
  H   H24       1.0  0.34358  0.46841  0.94014  1.0000
  H   H25       1.0  0.64524  0.98501  0.56350  1.0000
  H   H26       1.0  0.35476  0.01501  0.43651  1.0000
  H   H27       1.0  0.00833  0.41018  0.56621  1.0000
  H   H28       1.0  0.99167  0.58984  0.43379  1.0000
  H   H29       1.0  0.73422  0.04619  0.74096  1.0000
  H   H30       1.0  0.26578  0.95382  0.25904  1.0000
  H   H31       1.0  0.93927  0.18905  0.80598  1.0000
  H   H32       1.0  0.06073  0.81096  0.19402  1.0000
  H   H33       1.0  0.67366  0.27213  0.80097  1.0000
  H   H34       1.0  0.32634  0.72788  0.19904  1.0000
  H   H35       1.0  0.87702  0.41146  0.86813  1.0000
  H   H36       1.0  0.12298  0.58854  0.13188  1.0000
  H   H37       1.0  0.85593  0.24369  0.96540  1.0000
  H   H38       1.0  0.14407  0.75631  0.03460  1.0000
  H   H39       1.0  0.75996  0.35732  0.99440  1.0000
  H   H40       1.0  0.24004  0.64267  0.00560  1.0000
  H   H41       1.0  0.58614  0.99288  0.85058  1.0000
  H   H42       1.0  0.41386  0.00712  0.14942  1.0000
  H   H43       1.0  0.49961  0.11472  0.88791  1.0000
  H   H44       1.0  0.50039  0.88527  0.11209  1.0000
  H   H45       1.0  0.67130  0.03605  0.02553  1.0000
  H   H46       1.0  0.32869  0.96395  0.97447  1.0000
  H   H47       1.0  0.61083  0.18015  0.07280  1.0000
  H   H48       1.0  0.38917  0.81985  0.92720  1.0000
  H   H49       1.0  0.71339  0.55984  0.35258  1.0000
  H   H50       1.0  0.28660  0.44017  0.64742  1.0000
  H   H51       1.0  0.30606  0.61662  0.38327  1.0000
  H   H52       1.0  0.69392  0.38338  0.61673  1.0000
  H   H53       1.0  0.31212  0.20484  0.39468  1.0000
  H   H54       1.0  0.68788  0.79517  0.60533  1.0000
  H   H55       1.0  0.11702  0.26638  0.42332  1.0000
  H   H56       1.0  0.88298  0.73363  0.57668  1.0000
  C   C1        1.0  0.86012  0.16567  0.23559  1.0000
  C   C2        1.0  0.13989  0.83434  0.76442  1.0000
  C   C3        1.0  0.84213  0.94256  0.22076  1.0000
  C   C4        1.0  0.15786  0.05745  0.77923  1.0000
  C   C5        1.0  0.01709  0.20690  0.11308  1.0000
  C   C6        1.0  0.98292  0.79312  0.88693  1.0000
  C   C7        1.0  0.18273  0.22973  0.12001  1.0000
  C   C8        1.0  0.81728  0.77028  0.87999  1.0000
  C   C9        1.0  0.27464  0.35379  0.08274  1.0000
  C   C10       1.0  0.72537  0.64620  0.91725  1.0000
  C   C11       1.0  0.43725  0.37398  0.07771  1.0000
  C   C12       1.0  0.56274  0.62598  0.92228  1.0000
  C   C13       1.0  0.53559  0.51302  0.05266  1.0000
  C   C14       1.0  0.46441  0.48693  0.94732  1.0000
  C   C15       1.0  0.75019  0.10148  0.58491  1.0000
  C   C16       1.0  0.24982  0.89853  0.41510  1.0000
  C   C17       1.0  0.93432  0.31949  0.58920  1.0000
  C   C18       1.0  0.06568  0.68052  0.41081  1.0000
  C   C19       1.0  0.82718  0.17333  0.76932  1.0000
  C   C20       1.0  0.17282  0.82667  0.23068  1.0000
  C   C21       1.0  0.78143  0.28580  0.84258  1.0000
  C   C22       1.0  0.21857  0.71420  0.15743  1.0000
  C   C23       1.0  0.75531  0.25193  0.93435  1.0000
  C   C24       1.0  0.24469  0.74806  0.06566  1.0000
  C   C25       1.0  0.59874  0.10009  0.91373  1.0000
  C   C26       1.0  0.40126  0.89991  0.08627  1.0000
  C   C27       1.0  0.58219  0.06769  0.00677  1.0000
  C   C28       1.0  0.41780  0.93231  0.99323  1.0000
  C   C29       1.0  0.52006  0.37030  0.37072  1.0000
  C   C30       1.0  0.47994  0.62971  0.62928  1.0000
  C   C31       1.0  0.59406  0.51407  0.36106  1.0000
  C   C32       1.0  0.40593  0.48593  0.63893  1.0000
  C   C33       1.0  0.51690  0.60221  0.36509  1.0000
  C   C34       1.0  0.48308  0.39779  0.63491  1.0000
  C   C35       1.0  0.36489  0.54656  0.37824  1.0000
  C   C36       1.0  0.63509  0.45344  0.62175  1.0000
  C   C37       1.0  0.29216  0.40381  0.38945  1.0000
  C   C38       1.0  0.70783  0.59619  0.61055  1.0000
  C   C39       1.0  0.36860  0.31497  0.38470  1.0000
  C   C40       1.0  0.63140  0.68503  0.61529  1.0000
  C   C41       1.0  0.60863  0.28274  0.37167  1.0000
  C   C42       1.0  0.39137  0.71727  0.62833  1.0000
  C   C43       1.0  0.60701  0.76327  0.36357  1.0000
  C   C44       1.0  0.39298  0.23673  0.63644  1.0000
  N   N1        1.0  0.80062  0.05482  0.27067  1.0000
  N   N2        1.0  0.19938  0.94519  0.72933  1.0000
  N   N3        1.0  0.93257  0.12030  0.16792  1.0000
  N   N4        1.0  0.06743  0.87971  0.83208  1.0000
  N   N5        1.0  0.92266  0.97810  0.15709  1.0000
  N   N6        1.0  0.07733  0.02190  0.84291  1.0000
  N   N7        1.0  0.80368  0.17257  0.52507  1.0000
  N   N8        1.0  0.19632  0.82744  0.47493  1.0000
  N   N9        1.0  0.96301  0.34123  0.68445  1.0000
  N   N10       1.0  0.03699  0.65878  0.31556  1.0000
  N   N11       1.0  0.84488  0.20093  0.67971  1.0000
  N   N12       1.0  0.15511  0.79908  0.32030  1.0000
  O   O1        1.0  0.52800  0.13833  0.36595  1.0000
  O   O2        1.0  0.47201  0.86169  0.63406  1.0000
  O   O3        1.0  0.75375  0.34893  0.37823  1.0000
  O   O4        1.0  0.24624  0.65109  0.62177  1.0000
  O   O5        1.0  0.75294  0.82371  0.37285  1.0000
  O   O6        1.0  0.24704  0.17630  0.62715  1.0000
  O   O7        1.0  0.52755  0.83463  0.35571  1.0000
  O   O8        1.0  0.47243  0.16538  0.64430  1.0000
  O   O9        1.0  0.14536  0.35563  0.40533  1.0000
  O   O10       1.0  0.85463  0.64437  0.59467  1.0000
