data_image0
_chemical_formula_structural       Cd2H30C42S6N10O12
_chemical_formula_sum              "Cd2 H30 C42 S6 N10 O12"
_cell_length_a       8.63554
_cell_length_b       11.8454
_cell_length_c       12.1581
_cell_angle_alpha    85.1109
_cell_angle_beta     71.0933
_cell_angle_gamma    90.5036

_space_group_name_H-M_alt    "P 1"
_space_group_IT_number       1

loop_
  _space_group_symop_operation_xyz
  'x, y, z'

loop_
  _atom_site_type_symbol
  _atom_site_label
  _atom_site_symmetry_multiplicity
  _atom_site_fract_x
  _atom_site_fract_y
  _atom_site_fract_z
  _atom_site_occupancy
  Cd  Cd1       1.0  0.83615  0.36045  0.07061  1.0000
  Cd  Cd2       1.0  0.16384  0.63954  0.92939  1.0000
  H   H1        1.0  0.88772  0.54139  0.24851  1.0000
  H   H2        1.0  0.11228  0.45861  0.75148  1.0000
  H   H3        1.0  0.80219  0.56376  0.46504  1.0000
  H   H4        1.0  0.19782  0.43625  0.53495  1.0000
  H   H5        1.0  0.59589  0.42390  0.60321  1.0000
  H   H6        1.0  0.40413  0.57611  0.39679  1.0000
  H   H7        1.0  0.41573  0.24844  0.63291  1.0000
  H   H8        1.0  0.58429  0.75157  0.36709  1.0000
  H   H9        1.0  0.33015  0.08339  0.54965  1.0000
  H   H10       1.0  0.66986  0.91661  0.45036  1.0000
  H   H11       1.0  0.35778  0.97451  0.38118  1.0000
  H   H12       1.0  0.64223  0.02549  0.61883  1.0000
  H   H13       1.0  0.47983  0.95971  0.16392  1.0000
  H   H14       1.0  0.52016  0.04030  0.83610  1.0000
  H   H15       1.0  0.65586  0.12462  0.03938  1.0000
  H   H16       1.0  0.34413  0.87538  0.96062  1.0000
  H   H17       1.0  0.46209  0.41123  0.09452  1.0000
  H   H18       1.0  0.53790  0.58877  0.90547  1.0000
  H   H19       1.0  0.35480  0.27559  0.11985  1.0000
  H   H20       1.0  0.64521  0.72440  0.88014  1.0000
  H   H21       1.0  0.03916  0.28847  0.66963  1.0000
  H   H22       1.0  0.96086  0.71151  0.33038  1.0000
  H   H23       1.0  0.89607  0.39407  0.66419  1.0000
  H   H24       1.0  0.10396  0.60593  0.33582  1.0000
  H   H25       1.0  0.22469  0.01812  0.16717  1.0000
  H   H26       1.0  0.77530  0.98188  0.83282  1.0000
  H   H27       1.0  0.11159  0.93048  0.10562  1.0000
  H   H28       1.0  0.88840  0.06952  0.89438  1.0000
  H   H29       1.0  0.24962  0.20857  0.93437  1.0000
  H   H30       1.0  0.75034  0.79143  0.06561  1.0000
  C   C1        1.0  0.80150  0.48096  0.31289  1.0000
  C   C2        1.0  0.19850  0.51905  0.68710  1.0000
  C   C3        1.0  0.75197  0.49331  0.43334  1.0000
  C   C4        1.0  0.24804  0.50670  0.56666  1.0000
  C   C5        1.0  0.63906  0.41561  0.50953  1.0000
  C   C6        1.0  0.36094  0.58440  0.49046  1.0000
  C   C7        1.0  0.57885  0.32397  0.46601  1.0000
  C   C8        1.0  0.42115  0.67604  0.53399  1.0000
  C   C9        1.0  0.46317  0.23958  0.53943  1.0000
  C   C10       1.0  0.53684  0.76043  0.46057  1.0000
  C   C11       1.0  0.41648  0.14877  0.49402  1.0000
  C   C12       1.0  0.58353  0.85124  0.50599  1.0000
  C   C13       1.0  0.48115  0.13561  0.37189  1.0000
  C   C14       1.0  0.51886  0.86440  0.62812  1.0000
  C   C15       1.0  0.44089  0.04032  0.32316  1.0000
  C   C16       1.0  0.55911  0.95968  0.67685  1.0000
  C   C17       1.0  0.50640  0.03303  0.20420  1.0000
  C   C18       1.0  0.49359  0.96697  0.79581  1.0000
  C   C19       1.0  0.60831  0.12282  0.13419  1.0000
  C   C20       1.0  0.39168  0.87718  0.86582  1.0000
  C   C21       1.0  0.59061  0.22008  0.29530  1.0000
  C   C22       1.0  0.40938  0.77993  0.70470  1.0000
  C   C23       1.0  0.64054  0.31596  0.34359  1.0000
  C   C24       1.0  0.35945  0.68405  0.65641  1.0000
  C   C25       1.0  0.97775  0.11747  0.34128  1.0000
  C   C26       1.0  0.02224  0.88253  0.65872  1.0000
  C   C27       1.0  0.91676  0.20620  0.50615  1.0000
  C   C28       1.0  0.08324  0.79380  0.49385  1.0000
  C   C29       1.0  0.12157  0.27572  0.34425  1.0000
  C   C30       1.0  0.87843  0.72428  0.65575  1.0000
  C   C31       1.0  0.34155  0.36684  0.12771  1.0000
  C   C32       1.0  0.65844  0.63315  0.87229  1.0000
  C   C33       1.0  0.22980  0.41318  0.06005  1.0000
  C   C34       1.0  0.77018  0.58680  0.93995  1.0000
  C   C35       1.0  0.90909  0.30786  0.70067  1.0000
  C   C36       1.0  0.09093  0.69213  0.29933  1.0000
  C   C37       1.0  0.11332  0.01145  0.14354  1.0000
  C   C38       1.0  0.88667  0.98855  0.85645  1.0000
  C   C39       1.0  0.10908  0.10566  0.05289  1.0000
  C   C40       1.0  0.89089  0.89435  0.94710  1.0000
  C   C41       1.0  0.84374  0.30194  0.83396  1.0000
  C   C42       1.0  0.15630  0.69805  0.16604  1.0000
  S   S1        1.0  0.79536  0.20628  0.65193  1.0000
  S   S2        1.0  0.20465  0.79372  0.34807  1.0000
  S   S3        1.0  0.26289  0.38811  0.28111  1.0000
  S   S4        1.0  0.73712  0.61189  0.71889  1.0000
  S   S5        1.0  0.93655  0.00225  0.27268  1.0000
  S   S6        1.0  0.06345  0.99775  0.72732  1.0000
  N   N1        1.0  0.74704  0.39487  0.27010  1.0000
  N   N2        1.0  0.25295  0.60514  0.72990  1.0000
  N   N3        1.0  0.64970  0.21303  0.17849  1.0000
  N   N4        1.0  0.35029  0.78697  0.82151  1.0000
  N   N5        1.0  0.03770  0.28512  0.45771  1.0000
  N   N6        1.0  0.96229  0.71489  0.54228  1.0000
  N   N7        1.0  0.87572  0.12256  0.45063  1.0000
  N   N8        1.0  0.12427  0.87744  0.54938  1.0000
  N   N9        1.0  0.10278  0.19055  0.28309  1.0000
  N   N10       1.0  0.89722  0.80945  0.71691  1.0000
  O   O1        1.0  0.08216  0.37727  0.09910  1.0000
  O   O2        1.0  0.91781  0.62272  0.90093  1.0000
  O   O3        1.0  0.29645  0.48198  0.97033  1.0000
  O   O4        1.0  0.70352  0.51799  0.02966  1.0000
  O   O5        1.0  0.98591  0.13793  0.03330  1.0000
  O   O6        1.0  0.01409  0.86205  0.96670  1.0000
  O   O7        1.0  0.26160  0.14734  0.99043  1.0000
  O   O8        1.0  0.73838  0.85267  0.00956  1.0000
  O   O9        1.0  0.94151  0.34945  0.87819  1.0000
  O   O10       1.0  0.05853  0.65053  0.12181  1.0000
  O   O11       1.0  0.70680  0.25481  0.88847  1.0000
  O   O12       1.0  0.29322  0.74520  0.11154  1.0000
