data_image0
_chemical_formula_structural       Cd2H16C20Br4N4O4
_chemical_formula_sum              "Cd2 H16 C20 Br4 N4 O4"
_cell_length_a       3.97564
_cell_length_b       8.37057
_cell_length_c       18.5648
_cell_angle_alpha    92.2732
_cell_angle_beta     90.037
_cell_angle_gamma    103.567

_space_group_name_H-M_alt    "P 1"
_space_group_IT_number       1

loop_
  _space_group_symop_operation_xyz
  'x, y, z'

loop_
  _atom_site_type_symbol
  _atom_site_label
  _atom_site_symmetry_multiplicity
  _atom_site_fract_x
  _atom_site_fract_y
  _atom_site_fract_z
  _atom_site_occupancy
  Cd  Cd1       1.0  0.27695  0.99985  0.74953  1.0000
  Cd  Cd2       1.0  0.72304  0.00015  0.25047  1.0000
  H   H1        1.0  0.85243  0.52803  0.71449  1.0000
  H   H2        1.0  0.32906  0.47258  0.78524  1.0000
  H   H3        1.0  0.14756  0.47197  0.28551  1.0000
  H   H4        1.0  0.67094  0.52742  0.21476  1.0000
  H   H5        1.0  0.57844  0.24690  0.47653  1.0000
  H   H6        1.0  0.32392  0.75182  0.02331  1.0000
  H   H7        1.0  0.42154  0.75310  0.52347  1.0000
  H   H8        1.0  0.67611  0.24818  0.97669  1.0000
  H   H9        1.0  0.27416  0.13902  0.58778  1.0000
  H   H10       1.0  0.12848  0.86017  0.91181  1.0000
  H   H11       1.0  0.72583  0.86098  0.41222  1.0000
  H   H12       1.0  0.87153  0.13983  0.08820  1.0000
  H   H13       1.0  0.17716  0.65233  0.61085  1.0000
  H   H14       1.0  0.53129  0.34855  0.88898  1.0000
  H   H15       1.0  0.82283  0.34767  0.38915  1.0000
  H   H16       1.0  0.46871  0.65144  0.11102  1.0000
  C   C1        1.0  0.80573  0.47037  0.66068  1.0000
  C   C2        1.0  0.33839  0.53009  0.83906  1.0000
  C   C3        1.0  0.19426  0.52963  0.33932  1.0000
  C   C4        1.0  0.66162  0.46991  0.16094  1.0000
  C   C5        1.0  0.65411  0.31464  0.52762  1.0000
  C   C6        1.0  0.33496  0.68465  0.97217  1.0000
  C   C7        1.0  0.34588  0.68536  0.47238  1.0000
  C   C8        1.0  0.66506  0.31535  0.02783  1.0000
  C   C9        1.0  0.48115  0.25012  0.58821  1.0000
  C   C10       1.0  0.22701  0.74938  0.91147  1.0000
  C   C11       1.0  0.51885  0.74988  0.41179  1.0000
  C   C12       1.0  0.77301  0.25062  0.08853  1.0000
  C   C13       1.0  0.98182  0.53823  0.60113  1.0000
  C   C14       1.0  0.44708  0.46225  0.89871  1.0000
  C   C15       1.0  0.01816  0.46177  0.39887  1.0000
  C   C16       1.0  0.55292  0.53775  0.10129  1.0000
  C   C17       1.0  0.90989  0.46317  0.53196  1.0000
  C   C18       1.0  0.44649  0.53674  0.96796  1.0000
  C   C19       1.0  0.09009  0.53683  0.46804  1.0000
  C   C20       1.0  0.55352  0.46325  0.03204  1.0000
  Br  Br1       1.0  0.81604  0.08880  0.84849  1.0000
  Br  Br2       1.0  0.72954  0.91170  0.65046  1.0000
  Br  Br3       1.0  0.18396  0.91120  0.15151  1.0000
  Br  Br4       1.0  0.27046  0.08830  0.34954  1.0000
  N   N1        1.0  0.55466  0.32866  0.65412  1.0000
  N   N2        1.0  0.22564  0.67139  0.84552  1.0000
  N   N3        1.0  0.44534  0.67134  0.34588  1.0000
  N   N4        1.0  0.77436  0.32861  0.15448  1.0000
  O   O1        1.0  0.37721  0.27302  0.71159  1.0000
  O   O2        1.0  0.10375  0.72701  0.78794  1.0000
  O   O3        1.0  0.62278  0.72698  0.28841  1.0000
  O   O4        1.0  0.89626  0.27299  0.21206  1.0000
