data_image0
_chemical_formula_structural       Cd2H20C34N8O14
_chemical_formula_sum              "Cd2 H20 C34 N8 O14"
_cell_length_a       4.42476
_cell_length_b       13.7794
_cell_length_c       13.8279
_cell_angle_alpha    104.802
_cell_angle_beta     90.8798
_cell_angle_gamma    93.8819

_space_group_name_H-M_alt    "P 1"
_space_group_IT_number       1

loop_
  _space_group_symop_operation_xyz
  'x, y, z'

loop_
  _atom_site_type_symbol
  _atom_site_label
  _atom_site_symmetry_multiplicity
  _atom_site_fract_x
  _atom_site_fract_y
  _atom_site_fract_z
  _atom_site_occupancy
  Cd  Cd1       1.0  0.66212  0.87268  0.55409  1.0000
  Cd  Cd2       1.0  0.33788  0.12732  0.44592  1.0000
  H   H1        1.0  0.79015  0.57540  0.09064  1.0000
  H   H2        1.0  0.20982  0.42461  0.90937  1.0000
  H   H3        1.0  0.34263  0.85118  0.21124  1.0000
  H   H4        1.0  0.65737  0.14882  0.78876  1.0000
  H   H5        1.0  0.19625  0.00033  0.71105  1.0000
  H   H6        1.0  0.80376  0.99966  0.28895  1.0000
  H   H7        1.0  0.37835  0.02540  0.88830  1.0000
  H   H8        1.0  0.62166  0.97460  0.11170  1.0000
  H   H9        1.0  0.14444  0.91008  0.98714  1.0000
  H   H10       1.0  0.85558  0.08992  0.01286  1.0000
  H   H11       1.0  0.73093  0.78353  0.90890  1.0000
  H   H12       1.0  0.26909  0.21646  0.09110  1.0000
  H   H13       1.0  0.39976  0.68249  0.83879  1.0000
  H   H14       1.0  0.60022  0.31751  0.16121  1.0000
  H   H15       1.0  0.99121  0.56333  0.74478  1.0000
  H   H16       1.0  0.00876  0.43667  0.25522  1.0000
  H   H17       1.0  0.87672  0.55865  0.56546  1.0000
  H   H18       1.0  0.12329  0.44135  0.43454  1.0000
  H   H19       1.0  0.17900  0.67983  0.48852  1.0000
  H   H20       1.0  0.82103  0.32016  0.51148  1.0000
  C   C1        1.0  0.04142  0.80814  0.31445  1.0000
  C   C2        1.0  0.95859  0.19187  0.68556  1.0000
  C   C3        1.0  0.79796  0.73787  0.32979  1.0000
  C   C4        1.0  0.20205  0.26214  0.67021  1.0000
  C   C5        1.0  0.72521  0.65153  0.24444  1.0000
  C   C6        1.0  0.27479  0.34847  0.75557  1.0000
  C   C7        1.0  0.85446  0.64096  0.15211  1.0000
  C   C8        1.0  0.14551  0.35904  0.84790  1.0000
  C   C9        1.0  0.07167  0.71498  0.14047  1.0000
  C   C10       1.0  0.92831  0.28502  0.85953  1.0000
  C   C11       1.0  0.16449  0.79661  0.22112  1.0000
  C   C12       1.0  0.83552  0.20339  0.77888  1.0000
  C   C13       1.0  0.18079  0.89215  0.39745  1.0000
  C   C14       1.0  0.81922  0.10785  0.60255  1.0000
  C   C15       1.0  0.09648  0.95445  0.75764  1.0000
  C   C16       1.0  0.90352  0.04555  0.24236  1.0000
  C   C17       1.0  0.19929  0.96737  0.85601  1.0000
  C   C18       1.0  0.80072  0.03262  0.14399  1.0000
  C   C19       1.0  0.06721  0.90428  0.91064  1.0000
  C   C20       1.0  0.93282  0.09571  0.08935  1.0000
  C   C21       1.0  0.83679  0.83224  0.86637  1.0000
  C   C22       1.0  0.16324  0.16776  0.13363  1.0000
  C   C23       1.0  0.74302  0.82415  0.76701  1.0000
  C   C24       1.0  0.25700  0.17585  0.23300  1.0000
  C   C25       1.0  0.49947  0.74865  0.71448  1.0000
  C   C26       1.0  0.50054  0.25134  0.28551  1.0000
  C   C27       1.0  0.34785  0.68171  0.76142  1.0000
  C   C28       1.0  0.65216  0.31829  0.23859  1.0000
  C   C29       1.0  0.12014  0.61324  0.70817  1.0000
  C   C30       1.0  0.87984  0.38676  0.29183  1.0000
  C   C31       1.0  0.05435  0.61101  0.60880  1.0000
  C   C32       1.0  0.94565  0.38899  0.39119  1.0000
  C   C33       1.0  0.21707  0.67890  0.56627  1.0000
  C   C34       1.0  0.78295  0.32110  0.43373  1.0000
  N   N1        1.0  0.50369  0.57183  0.25343  1.0000
  N   N2        1.0  0.49631  0.42817  0.74657  1.0000
  N   N3        1.0  0.21172  0.70576  0.04585  1.0000
  N   N4        1.0  0.78823  0.29424  0.95414  1.0000
  N   N5        1.0  0.87532  0.88463  0.71470  1.0000
  N   N6        1.0  0.12469  0.11537  0.28530  1.0000
  N   N7        1.0  0.42975  0.74684  0.61852  1.0000
  N   N8        1.0  0.57026  0.25315  0.38148  1.0000
  O   O1        1.0  0.35196  0.95896  0.37238  1.0000
  O   O2        1.0  0.64805  0.04104  0.62762  1.0000
  O   O3        1.0  0.14118  0.89185  0.48948  1.0000
  O   O4        1.0  0.85883  0.10815  0.51051  1.0000
  O   O5        1.0  0.64568  0.75091  0.40855  1.0000
  O   O6        1.0  0.35435  0.24908  0.59145  1.0000
  O   O7        1.0  0.45363  0.55952  0.33801  1.0000
  O   O8        1.0  0.54639  0.44048  0.66200  1.0000
  O   O9        1.0  0.37573  0.51781  0.17499  1.0000
  O   O10       1.0  0.62424  0.48220  0.82501  1.0000
  O   O11       1.0  0.13369  0.63198  0.97485  1.0000
  O   O12       1.0  0.86620  0.36803  0.02514  1.0000
  O   O13       1.0  0.40858  0.77381  0.03868  1.0000
  O   O14       1.0  0.59141  0.22619  0.96132  1.0000
