data_image0
_chemical_formula_structural       Zn2H42C48S2N6O12
_chemical_formula_sum              "Zn2 H42 C48 S2 N6 O12"
_cell_length_a       9.63198
_cell_length_b       9.91133
_cell_length_c       12.61
_cell_angle_alpha    76.6891
_cell_angle_beta     71.2135
_cell_angle_gamma    80.569

_space_group_name_H-M_alt    "P 1"
_space_group_IT_number       1

loop_
  _space_group_symop_operation_xyz
  'x, y, z'

loop_
  _atom_site_type_symbol
  _atom_site_label
  _atom_site_symmetry_multiplicity
  _atom_site_fract_x
  _atom_site_fract_y
  _atom_site_fract_z
  _atom_site_occupancy
  Zn  Zn1       1.0  0.51632  0.96130  0.34558  1.0000
  Zn  Zn2       1.0  0.48367  0.03870  0.65442  1.0000
  H   H1        1.0  0.86152  0.65405  0.48722  1.0000
  H   H2        1.0  0.13848  0.34595  0.51278  1.0000
  H   H3        1.0  0.94545  0.86731  0.34788  1.0000
  H   H4        1.0  0.05454  0.13269  0.65212  1.0000
  H   H5        1.0  0.92845  0.95396  0.45936  1.0000
  H   H6        1.0  0.07154  0.04605  0.54064  1.0000
  H   H7        1.0  0.10584  0.74772  0.52912  1.0000
  H   H8        1.0  0.89415  0.25229  0.47088  1.0000
  H   H9        1.0  0.13935  0.69753  0.39785  1.0000
  H   H10       1.0  0.86064  0.30247  0.60215  1.0000
  H   H11       1.0  0.68830  0.48430  0.57062  1.0000
  H   H12       1.0  0.31171  0.51570  0.42938  1.0000
  H   H13       1.0  0.44246  0.41319  0.60018  1.0000
  H   H14       1.0  0.55755  0.58681  0.39981  1.0000
  H   H15       1.0  0.29301  0.51695  0.93501  1.0000
  H   H16       1.0  0.70700  0.48305  0.06499  1.0000
  H   H17       1.0  0.54055  0.58971  0.90492  1.0000
  H   H18       1.0  0.45945  0.41029  0.09508  1.0000
  H   H19       1.0  0.21635  0.29689  0.79742  1.0000
  H   H20       1.0  0.78365  0.70311  0.20258  1.0000
  H   H21       1.0  0.15852  0.45144  0.71593  1.0000
  H   H22       1.0  0.84148  0.54856  0.28408  1.0000
  H   H23       1.0  0.12147  0.43982  0.86506  1.0000
  H   H24       1.0  0.87853  0.56018  0.13494  1.0000
  H   H25       1.0  0.42487  0.78606  0.20130  1.0000
  H   H26       1.0  0.57513  0.21394  0.79871  1.0000
  H   H27       1.0  0.51938  0.74490  0.00080  1.0000
  H   H28       1.0  0.48062  0.25510  0.99920  1.0000
  H   H29       1.0  0.72330  0.88040  0.86018  1.0000
  H   H30       1.0  0.27670  0.11959  0.13982  1.0000
  H   H31       1.0  0.99849  0.22395  0.89433  1.0000
  H   H32       1.0  0.00151  0.77605  0.10567  1.0000
  H   H33       1.0  0.89130  0.06541  0.82088  1.0000
  H   H34       1.0  0.10870  0.93460  0.17912  1.0000
  H   H35       1.0  0.02366  0.30040  0.06905  1.0000
  H   H36       1.0  0.97635  0.69960  0.93095  1.0000
  H   H37       1.0  0.92476  0.29863  0.27691  1.0000
  H   H38       1.0  0.07524  0.70137  0.72309  1.0000
  H   H39       1.0  0.69890  0.17561  0.39229  1.0000
  H   H40       1.0  0.30110  0.82439  0.60771  1.0000
  H   H41       1.0  0.79300  0.82539  0.66771  1.0000
  H   H42       1.0  0.20700  0.17461  0.33229  1.0000
  C   C1        1.0  0.68422  0.82063  0.49645  1.0000
  C   C2        1.0  0.31578  0.17937  0.50355  1.0000
  C   C3        1.0  0.83394  0.75604  0.51336  1.0000
  C   C4        1.0  0.16606  0.24396  0.48664  1.0000
  C   C5        1.0  0.95324  0.85111  0.43491  1.0000
  C   C6        1.0  0.04675  0.14889  0.56509  1.0000
  C   C7        1.0  0.10649  0.78821  0.44025  1.0000
  C   C8        1.0  0.89350  0.21179  0.55975  1.0000
  C   C9        1.0  0.22607  0.88660  0.38563  1.0000
  C   C10       1.0  0.77393  0.11340  0.61437  1.0000
  C   C11       1.0  0.62830  0.54337  0.73608  1.0000
  C   C12       1.0  0.37170  0.45663  0.26392  1.0000
  C   C13       1.0  0.60098  0.49495  0.64939  1.0000
  C   C14       1.0  0.39902  0.50505  0.35061  1.0000
  C   C15       1.0  0.46199  0.45574  0.66599  1.0000
  C   C16       1.0  0.53801  0.54426  0.33400  1.0000
  C   C17       1.0  0.34916  0.46267  0.76868  1.0000
  C   C18       1.0  0.65085  0.53733  0.23131  1.0000
  C   C19       1.0  0.37856  0.51260  0.85397  1.0000
  C   C20       1.0  0.62145  0.48740  0.14603  1.0000
  C   C21       1.0  0.51673  0.55341  0.83804  1.0000
  C   C22       1.0  0.48328  0.44659  0.16196  1.0000
  C   C23       1.0  0.20332  0.41103  0.78817  1.0000
  C   C24       1.0  0.79668  0.58897  0.21183  1.0000
  C   C25       1.0  0.51482  0.84119  0.13883  1.0000
  C   C26       1.0  0.48518  0.15881  0.86117  1.0000
  C   C27       1.0  0.56851  0.81896  0.02598  1.0000
  C   C28       1.0  0.43149  0.18104  0.97402  1.0000
  C   C29       1.0  0.68109  0.89249  0.94889  1.0000
  C   C30       1.0  0.31891  0.10751  0.05111  1.0000
  C   C31       1.0  0.74053  0.98893  0.98526  1.0000
  C   C32       1.0  0.25947  0.01107  0.01474  1.0000
  C   C33       1.0  0.68275  0.00149  0.10136  1.0000
  C   C34       1.0  0.31725  0.99851  0.89864  1.0000
  C   C35       1.0  0.74452  0.09237  0.14449  1.0000
  C   C36       1.0  0.25548  0.90762  0.85551  1.0000
  C   C37       1.0  0.86290  0.16850  0.07026  1.0000
  C   C38       1.0  0.13710  0.83150  0.92975  1.0000
  C   C39       1.0  0.91178  0.16065  0.95158  1.0000
  C   C40       1.0  0.08822  0.83935  0.04842  1.0000
  C   C41       1.0  0.85355  0.07376  0.91070  1.0000
  C   C42       1.0  0.14645  0.92624  0.08930  1.0000
  C   C43       1.0  0.92871  0.24394  0.12066  1.0000
  C   C44       1.0  0.07129  0.75606  0.87935  1.0000
  C   C45       1.0  0.87352  0.24360  0.23635  1.0000
  C   C46       1.0  0.12648  0.75640  0.76365  1.0000
  C   C47       1.0  0.74927  0.17272  0.30170  1.0000
  C   C48       1.0  0.25073  0.82728  0.69830  1.0000
  S   S1        1.0  0.80655  0.58887  0.71895  1.0000
  S   S2        1.0  0.19345  0.41114  0.28105  1.0000
  N   N1        1.0  0.68776  0.09838  0.25661  1.0000
  N   N2        1.0  0.31224  0.90162  0.74340  1.0000
  N   N3        1.0  0.57115  0.92894  0.17556  1.0000
  N   N4        1.0  0.42885  0.07106  0.82444  1.0000
  N   N5        1.0  0.83346  0.73734  0.63181  1.0000
  N   N6        1.0  0.16654  0.26266  0.36819  1.0000
  O   O1        1.0  0.67026  0.81979  0.39943  1.0000
  O   O2        1.0  0.32973  0.18021  0.60057  1.0000
  O   O3        1.0  0.58850  0.87276  0.57514  1.0000
  O   O4        1.0  0.41150  0.12724  0.42486  1.0000
  O   O5        1.0  0.20718  0.99561  0.31522  1.0000
  O   O6        1.0  0.79282  0.00440  0.68478  1.0000
  O   O7        1.0  0.34446  0.84732  0.41637  1.0000
  O   O8        1.0  0.65554  0.15268  0.58363  1.0000
  O   O9        1.0  0.80811  0.61136  0.82829  1.0000
  O   O10       1.0  0.19189  0.38864  0.17170  1.0000
  O   O11       1.0  0.91147  0.48444  0.66425  1.0000
  O   O12       1.0  0.08854  0.51556  0.33575  1.0000
