data_image0
_chemical_formula_structural       U2H28C32N4O16
_chemical_formula_sum              "U2 H28 C32 N4 O16"
_cell_length_a       9.66625
_cell_length_b       10.1687
_cell_length_c       10.7797
_cell_angle_alpha    64.5489
_cell_angle_beta     69.9686
_cell_angle_gamma    74.7665

_space_group_name_H-M_alt    "P 1"
_space_group_IT_number       1

loop_
  _space_group_symop_operation_xyz
  'x, y, z'

loop_
  _atom_site_type_symbol
  _atom_site_label
  _atom_site_symmetry_multiplicity
  _atom_site_fract_x
  _atom_site_fract_y
  _atom_site_fract_z
  _atom_site_occupancy
  U   U1        1.0  0.54327  0.09910  0.67959  1.0000
  U   U2        1.0  0.45674  0.90090  0.32041  1.0000
  H   H1        1.0  0.75159  0.91034  0.87171  1.0000
  H   H2        1.0  0.24840  0.08966  0.12829  1.0000
  H   H3        1.0  0.58624  0.87347  0.97003  1.0000
  H   H4        1.0  0.41376  0.12653  0.02997  1.0000
  H   H5        1.0  0.35316  0.45744  0.44386  1.0000
  H   H6        1.0  0.64684  0.54256  0.55614  1.0000
  H   H7        1.0  0.18455  0.68925  0.36268  1.0000
  H   H8        1.0  0.81544  0.31075  0.63732  1.0000
  H   H9        1.0  0.95471  0.47046  0.24254  1.0000
  H   H10       1.0  0.04530  0.52954  0.75746  1.0000
  H   H11       1.0  0.12285  0.23821  0.32530  1.0000
  H   H12       1.0  0.87715  0.76179  0.67470  1.0000
  H   H13       1.0  0.84742  0.73155  0.27466  1.0000
  H   H14       1.0  0.15258  0.26845  0.72534  1.0000
  H   H15       1.0  0.98915  0.82519  0.25857  1.0000
  H   H16       1.0  0.01085  0.17481  0.74143  1.0000
  H   H17       1.0  0.21440  0.82058  0.05036  1.0000
  H   H18       1.0  0.78560  0.17942  0.94964  1.0000
  H   H19       1.0  0.14334  0.91991  0.89780  1.0000
  H   H20       1.0  0.85666  0.08009  0.10220  1.0000
  H   H21       1.0  0.31310  0.55517  0.11155  1.0000
  H   H22       1.0  0.68690  0.44483  0.88845  1.0000
  H   H23       1.0  0.42288  0.34922  0.02959  1.0000
  H   H24       1.0  0.57712  0.65078  0.97041  1.0000
  H   H25       1.0  0.28940  0.60472  0.64062  1.0000
  H   H26       1.0  0.71060  0.39528  0.35938  1.0000
  H   H27       1.0  0.17152  0.80846  0.72703  1.0000
  H   H28       1.0  0.82848  0.19154  0.27297  1.0000
  C   C1        1.0  0.35762  0.19857  0.42570  1.0000
  C   C2        1.0  0.64238  0.80144  0.57429  1.0000
  C   C3        1.0  0.24996  0.33438  0.38724  1.0000
  C   C4        1.0  0.75004  0.66562  0.61276  1.0000
  C   C5        1.0  0.26569  0.46103  0.39982  1.0000
  C   C6        1.0  0.73431  0.53898  0.60018  1.0000
  C   C7        1.0  0.17027  0.59060  0.35466  1.0000
  C   C8        1.0  0.82973  0.40940  0.64534  1.0000
  C   C9        1.0  0.05944  0.59520  0.29630  1.0000
  C   C10       1.0  0.94056  0.40480  0.70369  1.0000
  C   C11       1.0  0.04058  0.46711  0.28854  1.0000
  C   C12       1.0  0.95942  0.53289  0.71146  1.0000
  C   C13       1.0  0.13485  0.33734  0.33379  1.0000
  C   C14       1.0  0.86515  0.66266  0.66621  1.0000
  C   C15       1.0  0.96703  0.73920  0.23427  1.0000
  C   C16       1.0  0.03297  0.26080  0.76573  1.0000
  C   C17       1.0  0.15228  0.81371  0.98568  1.0000
  C   C18       1.0  0.84772  0.18629  0.01432  1.0000
  C   C19       1.0  0.22830  0.69303  0.92836  1.0000
  C   C20       1.0  0.77170  0.30697  0.07164  1.0000
  C   C21       1.0  0.30351  0.56469  0.01026  1.0000
  C   C22       1.0  0.69649  0.43531  0.98974  1.0000
  C   C23       1.0  0.35849  0.46104  0.83192  1.0000
  C   C24       1.0  0.64151  0.53896  0.16808  1.0000
  C   C25       1.0  0.36657  0.44891  0.96376  1.0000
  C   C26       1.0  0.63343  0.55109  0.03624  1.0000
  C   C27       1.0  0.29021  0.59242  0.74580  1.0000
  C   C28       1.0  0.70978  0.40758  0.25420  1.0000
  C   C29       1.0  0.42271  0.33729  0.78291  1.0000
  C   C30       1.0  0.57729  0.66271  0.21709  1.0000
  C   C31       1.0  0.22493  0.70711  0.79404  1.0000
  C   C32       1.0  0.77507  0.29289  0.20596  1.0000
  N   N1        1.0  0.00037  0.78908  0.07841  1.0000
  N   N2        1.0  0.99963  0.21092  0.92159  1.0000
  N   N3        1.0  0.88624  0.82065  0.02752  1.0000
  N   N4        1.0  0.11376  0.17935  0.97248  1.0000
  O   O1        1.0  0.37277  0.01847  0.77568  1.0000
  O   O2        1.0  0.62723  0.98153  0.22431  1.0000
  O   O3        1.0  0.71726  0.17489  0.58767  1.0000
  O   O4        1.0  0.28274  0.82511  0.41233  1.0000
  O   O5        1.0  0.41377  0.34668  0.66373  1.0000
  O   O6        1.0  0.58623  0.65332  0.33627  1.0000
  O   O7        1.0  0.49007  0.21686  0.85838  1.0000
  O   O8        1.0  0.50993  0.78314  0.14162  1.0000
  O   O9        1.0  0.45860  0.19616  0.47834  1.0000
  O   O10       1.0  0.54140  0.80384  0.52165  1.0000
  O   O11       1.0  0.34567  0.08960  0.40294  1.0000
  O   O12       1.0  0.65433  0.91040  0.59706  1.0000
  O   O13       1.0  0.64351  0.92749  0.87066  1.0000
  O   O14       1.0  0.35648  0.07251  0.12934  1.0000
  O   O15       1.0  0.91474  0.87416  0.89268  1.0000
  O   O16       1.0  0.08526  0.12584  0.10732  1.0000
