data_image0
_chemical_formula_structural       Ag10H24C44N4O20F24
_chemical_formula_sum              "Ag10 H24 C44 N4 O20 F24"
_cell_length_a       11.3087
_cell_length_b       11.6249
_cell_length_c       14.1265
_cell_angle_alpha    96.2217
_cell_angle_beta     105.287
_cell_angle_gamma    116.025

_space_group_name_H-M_alt    "P 1"
_space_group_IT_number       1

loop_
  _space_group_symop_operation_xyz
  'x, y, z'

loop_
  _atom_site_type_symbol
  _atom_site_label
  _atom_site_symmetry_multiplicity
  _atom_site_fract_x
  _atom_site_fract_y
  _atom_site_fract_z
  _atom_site_occupancy
  Ag  Ag1       1.0  0.82048  0.47729  0.57791  1.0000
  Ag  Ag2       1.0  0.17952  0.52271  0.42208  1.0000
  Ag  Ag3       1.0  0.58414  0.44321  0.41311  1.0000
  Ag  Ag4       1.0  0.41586  0.55678  0.58689  1.0000
  Ag  Ag5       1.0  0.94443  0.36092  0.48383  1.0000
  Ag  Ag6       1.0  0.05557  0.63908  0.51617  1.0000
  Ag  Ag7       1.0  0.64984  0.22284  0.43158  1.0000
  Ag  Ag8       1.0  0.35016  0.77716  0.56842  1.0000
  Ag  Ag9       1.0  0.56808  0.03280  0.80128  1.0000
  Ag  Ag10      1.0  0.43192  0.96720  0.19872  1.0000
  H   H1        1.0  0.74038  0.68011  0.65259  1.0000
  H   H2        1.0  0.25962  0.31988  0.34741  1.0000
  H   H3        1.0  0.88541  0.74220  0.63256  1.0000
  H   H4        1.0  0.11459  0.25780  0.36744  1.0000
  H   H5        1.0  0.38036  0.97133  0.39472  1.0000
  H   H6        1.0  0.61964  0.02866  0.60528  1.0000
  H   H7        1.0  0.48934  0.92373  0.39739  1.0000
  H   H8        1.0  0.51066  0.07627  0.60261  1.0000
  H   H9        1.0  0.80109  0.68129  0.27152  1.0000
  H   H10       1.0  0.19891  0.31871  0.72848  1.0000
  H   H11       1.0  0.75696  0.69673  0.09268  1.0000
  H   H12       1.0  0.24304  0.30327  0.90732  1.0000
  H   H13       1.0  0.67627  0.49739  0.95351  1.0000
  H   H14       1.0  0.32373  0.50262  0.04649  1.0000
  H   H15       1.0  0.67222  0.26639  0.17392  1.0000
  H   H16       1.0  0.32779  0.73361  0.82608  1.0000
  H   H17       1.0  0.92593  0.67653  0.77938  1.0000
  H   H18       1.0  0.07407  0.32347  0.22062  1.0000
  H   H19       1.0  0.01464  0.70007  0.96288  1.0000
  H   H20       1.0  0.98536  0.29993  0.03712  1.0000
  H   H21       1.0  0.91498  0.28808  0.89027  1.0000
  H   H22       1.0  0.08503  0.71192  0.10973  1.0000
  H   H23       1.0  0.82740  0.28246  0.70970  1.0000
  H   H24       1.0  0.17260  0.71754  0.29031  1.0000
  C   C1        1.0  0.79882  0.44383  0.42328  1.0000
  C   C2        1.0  0.20118  0.55618  0.57672  1.0000
  C   C3        1.0  0.75913  0.46248  0.33694  1.0000
  C   C4        1.0  0.24087  0.53752  0.66306  1.0000
  C   C5        1.0  0.73746  0.47318  0.23477  1.0000
  C   C6        1.0  0.26254  0.52683  0.76523  1.0000
  C   C7        1.0  0.76224  0.59441  0.21050  1.0000
  C   C8        1.0  0.23776  0.40559  0.78949  1.0000
  C   C9        1.0  0.73878  0.60267  0.11018  1.0000
  C   C10       1.0  0.26122  0.39734  0.88982  1.0000
  C   C11       1.0  0.69402  0.49244  0.03230  1.0000
  C   C12       1.0  0.30598  0.50757  0.96770  1.0000
  C   C13       1.0  0.67393  0.37311  0.05732  1.0000
  C   C14       1.0  0.32607  0.62690  0.94268  1.0000
  C   C15       1.0  0.69227  0.36091  0.15687  1.0000
  C   C16       1.0  0.30773  0.63910  0.84313  1.0000
  C   C17       1.0  0.61915  0.17950  0.91764  1.0000
  C   C18       1.0  0.38085  0.82050  0.08236  1.0000
  C   C19       1.0  0.92521  0.59300  0.80757  1.0000
  C   C20       1.0  0.07479  0.40701  0.19243  1.0000
  C   C21       1.0  0.97507  0.60477  0.91089  1.0000
  C   C22       1.0  0.02494  0.39523  0.08911  1.0000
  C   C23       1.0  0.97370  0.49557  0.94528  1.0000
  C   C24       1.0  0.02631  0.50444  0.05472  1.0000
  C   C25       1.0  0.91975  0.37763  0.87081  1.0000
  C   C26       1.0  0.08026  0.62238  0.12919  1.0000
  C   C27       1.0  0.87106  0.37313  0.76876  1.0000
  C   C28       1.0  0.12894  0.62687  0.23124  1.0000
  C   C29       1.0  0.36240  0.21853  0.22199  1.0000
  C   C30       1.0  0.63760  0.78147  0.77801  1.0000
  C   C31       1.0  0.24920  0.15264  0.11302  1.0000
  C   C32       1.0  0.75080  0.84736  0.88698  1.0000
  C   C33       1.0  0.48286  0.29269  0.57639  1.0000
  C   C34       1.0  0.51714  0.70730  0.42361  1.0000
  C   C35       1.0  0.39773  0.25919  0.64906  1.0000
  C   C36       1.0  0.60227  0.74080  0.35094  1.0000
  C   C37       1.0  0.87552  0.13389  0.58634  1.0000
  C   C38       1.0  0.12448  0.86610  0.41366  1.0000
  C   C39       1.0  0.90753  0.04633  0.65370  1.0000
  C   C40       1.0  0.09246  0.95366  0.34630  1.0000
  C   C41       1.0  0.80749  0.13795  0.27663  1.0000
  C   C42       1.0  0.19252  0.86205  0.72338  1.0000
  C   C43       1.0  0.79759  0.05276  0.17820  1.0000
  C   C44       1.0  0.20241  0.94725  0.82180  1.0000
  N   N1        1.0  0.63973  0.26633  0.98188  1.0000
  N   N2        1.0  0.36027  0.73368  0.01811  1.0000
  N   N3        1.0  0.87420  0.47934  0.73703  1.0000
  N   N4        1.0  0.12580  0.52067  0.26297  1.0000
  O   O1        1.0  0.78752  0.67016  0.60539  1.0000
  O   O2        1.0  0.21248  0.32984  0.39461  1.0000
  O   O3        1.0  0.36906  0.31973  0.27125  1.0000
  O   O4        1.0  0.63094  0.68027  0.72875  1.0000
  O   O5        1.0  0.43984  0.16757  0.24760  1.0000
  O   O6        1.0  0.56016  0.83243  0.75240  1.0000
  O   O7        1.0  0.46078  0.98721  0.37142  1.0000
  O   O8        1.0  0.53922  0.01279  0.62859  1.0000
  O   O9        1.0  0.50477  0.39951  0.55170  1.0000
  O   O10       1.0  0.49523  0.60048  0.44830  1.0000
  O   O11       1.0  0.52103  0.21131  0.55082  1.0000
  O   O12       1.0  0.47897  0.78869  0.44919  1.0000
  O   O13       1.0  0.98169  0.22193  0.57470  1.0000
  O   O14       1.0  0.01831  0.77807  0.42530  1.0000
  O   O15       1.0  0.75000  0.11081  0.55556  1.0000
  O   O16       1.0  0.25000  0.88918  0.44444  1.0000
  O   O17       1.0  0.92945  0.21673  0.33851  1.0000
  O   O18       1.0  0.07056  0.78327  0.66149  1.0000
  O   O19       1.0  0.69205  0.12133  0.28175  1.0000
  O   O20       1.0  0.30795  0.87867  0.71825  1.0000
  F   F1        1.0  0.17512  0.01830  0.09431  1.0000
  F   F2        1.0  0.82488  0.98170  0.90569  1.0000
  F   F3        1.0  0.31419  0.18045  0.04274  1.0000
  F   F4        1.0  0.68580  0.81955  0.95726  1.0000
  F   F5        1.0  0.15491  0.19750  0.09491  1.0000
  F   F6        1.0  0.84509  0.80250  0.90509  1.0000
  F   F7        1.0  0.27224  0.25438  0.60823  1.0000
  F   F8        1.0  0.72776  0.74561  0.39177  1.0000
  F   F9        1.0  0.37143  0.14083  0.66947  1.0000
  F   F10       1.0  0.62857  0.85916  0.33053  1.0000
  F   F11       1.0  0.47008  0.35385  0.74005  1.0000
  F   F12       1.0  0.52992  0.64614  0.25995  1.0000
  F   F13       1.0  0.79019  0.93226  0.64335  1.0000
  F   F14       1.0  0.20981  0.06774  0.35664  1.0000
  F   F15       1.0  0.00099  0.01326  0.63400  1.0000
  F   F16       1.0  0.99900  0.98674  0.36600  1.0000
  F   F17       1.0  0.96358  0.11530  0.75427  1.0000
  F   F18       1.0  0.03641  0.88470  0.24573  1.0000
  F   F19       1.0  0.72405  0.92075  0.16931  1.0000
  F   F20       1.0  0.27596  0.07925  0.83069  1.0000
  F   F21       1.0  0.92527  0.07909  0.17332  1.0000
  F   F22       1.0  0.07473  0.92091  0.82668  1.0000
  F   F23       1.0  0.72985  0.07848  0.09431  1.0000
  F   F24       1.0  0.27015  0.92152  0.90569  1.0000
