data_image0
_chemical_formula_structural       Zn2H30C40N4Cl2O12
_chemical_formula_sum              "Zn2 H30 C40 N4 Cl2 O12"
_cell_length_a       7.95022
_cell_length_b       9.4615
_cell_length_c       15.476
_cell_angle_alpha    75.0179
_cell_angle_beta     81.1721
_cell_angle_gamma    60.851

_space_group_name_H-M_alt    "P 1"
_space_group_IT_number       1

loop_
  _space_group_symop_operation_xyz
  'x, y, z'

loop_
  _atom_site_type_symbol
  _atom_site_label
  _atom_site_symmetry_multiplicity
  _atom_site_fract_x
  _atom_site_fract_y
  _atom_site_fract_z
  _atom_site_occupancy
  Zn  Zn1       1.0  0.08014  0.28632  0.30632  1.0000
  Zn  Zn2       1.0  0.91988  0.71367  0.69368  1.0000
  H   H1        1.0  0.51821  0.80434  0.87144  1.0000
  H   H2        1.0  0.48179  0.19567  0.12856  1.0000
  H   H3        1.0  0.87919  0.12339  0.43503  1.0000
  H   H4        1.0  0.12079  0.87661  0.56497  1.0000
  H   H5        1.0  0.16281  0.11105  0.08094  1.0000
  H   H6        1.0  0.83719  0.88895  0.91906  1.0000
  H   H7        1.0  0.97642  0.78777  0.26792  1.0000
  H   H8        1.0  0.02358  0.21223  0.73209  1.0000
  H   H9        1.0  0.28043  0.64709  0.02501  1.0000
  H   H10       1.0  0.71955  0.35291  0.97499  1.0000
  H   H11       1.0  0.54240  0.18488  0.68766  1.0000
  H   H12       1.0  0.45760  0.81512  0.31234  1.0000
  H   H13       1.0  0.69057  0.15473  0.57772  1.0000
  H   H14       1.0  0.30941  0.84528  0.42228  1.0000
  H   H15       1.0  0.36302  0.22439  0.83110  1.0000
  H   H16       1.0  0.63699  0.77561  0.16889  1.0000
  H   H17       1.0  0.69901  0.62151  0.54752  1.0000
  H   H18       1.0  0.30100  0.37849  0.45247  1.0000
  H   H19       1.0  0.54822  0.65118  0.66760  1.0000
  H   H20       1.0  0.45177  0.34883  0.33239  1.0000
  H   H21       1.0  0.89055  0.56575  0.40636  1.0000
  H   H22       1.0  0.10947  0.43424  0.59365  1.0000
  H   H23       1.0  0.37065  0.66719  0.81291  1.0000
  H   H24       1.0  0.62935  0.33282  0.18709  1.0000
  H   H25       1.0  0.12697  0.58673  0.90301  1.0000
  H   H26       1.0  0.87303  0.41327  0.09699  1.0000
  H   H27       1.0  0.34792  0.44967  0.96233  1.0000
  H   H28       1.0  0.65210  0.55033  0.03766  1.0000
  H   H29       1.0  0.21123  0.36664  0.93334  1.0000
  H   H30       1.0  0.78878  0.63336  0.06666  1.0000
  C   C1        1.0  0.22624  0.88617  0.04165  1.0000
  C   C2        1.0  0.77375  0.11383  0.95836  1.0000
  C   C3        1.0  0.56476  0.41441  0.66257  1.0000
  C   C4        1.0  0.43523  0.58560  0.33743  1.0000
  C   C5        1.0  0.12256  0.70231  0.14763  1.0000
  C   C6        1.0  0.87743  0.29769  0.85237  1.0000
  C   C7        1.0  0.83788  0.22986  0.46421  1.0000
  C   C8        1.0  0.16212  0.77014  0.53579  1.0000
  C   C9        1.0  0.14754  0.99860  0.09851  1.0000
  C   C10       1.0  0.85246  0.00139  0.90150  1.0000
  C   C11       1.0  0.05858  0.96204  0.18009  1.0000
  C   C12       1.0  0.94141  0.03797  0.81991  1.0000
  C   C13       1.0  0.04354  0.81557  0.20357  1.0000
  C   C14       1.0  0.95646  0.18443  0.79643  1.0000
  C   C15       1.0  0.21440  0.73804  0.06686  1.0000
  C   C16       1.0  0.78559  0.26196  0.93314  1.0000
  C   C17       1.0  0.67771  0.39158  0.57744  1.0000
  C   C18       1.0  0.32228  0.60843  0.42255  1.0000
  C   C19       1.0  0.12845  0.53546  0.17786  1.0000
  C   C20       1.0  0.87155  0.46453  0.82214  1.0000
  C   C21       1.0  0.33312  0.92179  0.95864  1.0000
  C   C22       1.0  0.66687  0.07819  0.04137  1.0000
  C   C23       1.0  0.50805  0.29582  0.71069  1.0000
  C   C24       1.0  0.49196  0.70418  0.28930  1.0000
  C   C25       1.0  0.73010  0.25101  0.54363  1.0000
  C   C26       1.0  0.26989  0.74900  0.45637  1.0000
  C   C27       1.0  0.40625  0.31510  0.79115  1.0000
  C   C28       1.0  0.59376  0.68490  0.20885  1.0000
  C   C29       1.0  0.73611  0.50776  0.52676  1.0000
  C   C30       1.0  0.26390  0.49224  0.47324  1.0000
  C   C31       1.0  0.00209  0.06562  0.24890  1.0000
  C   C32       1.0  0.99790  0.93438  0.75110  1.0000
  C   C33       1.0  0.51135  0.55225  0.69949  1.0000
  C   C34       1.0  0.48865  0.44776  0.30050  1.0000
  C   C35       1.0  0.84379  0.47804  0.44760  1.0000
  C   C36       1.0  0.15622  0.52196  0.55240  1.0000
  C   C37       1.0  0.41096  0.56534  0.78068  1.0000
  C   C38       1.0  0.58904  0.43467  0.21932  1.0000
  C   C39       1.0  0.25417  0.46436  0.91208  1.0000
  C   C40       1.0  0.74585  0.53564  0.08792  1.0000
  N   N1        1.0  0.89596  0.34061  0.41701  1.0000
  N   N2        1.0  0.10404  0.65939  0.58300  1.0000
  N   N3        1.0  0.36042  0.44758  0.82548  1.0000
  N   N4        1.0  0.63959  0.55242  0.17451  1.0000
  Cl  Cl1       1.0  0.38173  0.10545  0.35092  1.0000
  Cl  Cl2       1.0  0.61829  0.89454  0.64908  1.0000
  O   O1        1.0  0.03705  0.51542  0.25339  1.0000
  O   O2        1.0  0.96295  0.48457  0.74662  1.0000
  O   O3        1.0  0.42072  0.79362  0.91648  1.0000
  O   O4        1.0  0.57930  0.20636  0.08352  1.0000
  O   O5        1.0  0.34589  0.05028  0.93228  1.0000
  O   O6        1.0  0.65409  0.94975  0.06771  1.0000
  O   O7        1.0  0.22193  0.42742  0.13241  1.0000
  O   O8        1.0  0.77809  0.57257  0.86760  1.0000
  O   O9        1.0  0.96258  0.01071  0.32723  1.0000
  O   O10       1.0  0.03740  0.98929  0.67277  1.0000
  O   O11       1.0  0.00845  0.20505  0.22039  1.0000
  O   O12       1.0  0.99153  0.79495  0.77961  1.0000
