data_image0
_chemical_formula_structural       Dy2Co2H32C32N20O12
_chemical_formula_sum              "Dy2 Co2 H32 C32 N20 O12"
_cell_length_a       10.1219
_cell_length_b       10.5834
_cell_length_c       12.323
_cell_angle_alpha    73.7084
_cell_angle_beta     75.1676
_cell_angle_gamma    70.2921

_space_group_name_H-M_alt    "P 1"
_space_group_IT_number       1

loop_
  _space_group_symop_operation_xyz
  'x, y, z'

loop_
  _atom_site_type_symbol
  _atom_site_label
  _atom_site_symmetry_multiplicity
  _atom_site_fract_x
  _atom_site_fract_y
  _atom_site_fract_z
  _atom_site_occupancy
  Dy  Dy1       1.0  0.40970  0.30806  0.28762  1.0000
  Dy  Dy2       1.0  0.59033  0.69190  0.71237  1.0000
  Co  Co1       1.0  0.33467  0.30185  0.73932  1.0000
  Co  Co2       1.0  0.66532  0.69817  0.26067  1.0000
  H   H1        1.0  0.29209  0.75760  0.53586  1.0000
  H   H2        1.0  0.70791  0.24241  0.46413  1.0000
  H   H3        1.0  0.32571  0.90169  0.03543  1.0000
  H   H4        1.0  0.67429  0.09831  0.96458  1.0000
  H   H5        1.0  0.13454  0.51422  0.08341  1.0000
  H   H6        1.0  0.86548  0.48578  0.91659  1.0000
  H   H7        1.0  0.47454  0.65196  0.07554  1.0000
  H   H8        1.0  0.52547  0.34804  0.92446  1.0000
  H   H9        1.0  0.01037  0.67246  0.30606  1.0000
  H   H10       1.0  0.98964  0.32752  0.69394  1.0000
  H   H11       1.0  0.37145  0.54552  0.45208  1.0000
  H   H12       1.0  0.62856  0.45448  0.54791  1.0000
  H   H13       1.0  0.97289  0.75830  0.03641  1.0000
  H   H14       1.0  0.02713  0.24169  0.96360  1.0000
  H   H15       1.0  0.91439  0.89021  0.38306  1.0000
  H   H16       1.0  0.08561  0.10977  0.61694  1.0000
  H   H17       1.0  0.42410  0.08495  0.17370  1.0000
  H   H18       1.0  0.57592  0.91506  0.82627  1.0000
  H   H19       1.0  0.36314  0.22868  0.09440  1.0000
  H   H20       1.0  0.63687  0.77133  0.90559  1.0000
  H   H21       1.0  0.72368  0.25207  0.24893  1.0000
  H   H22       1.0  0.27636  0.74788  0.75101  1.0000
  H   H23       1.0  0.71164  0.10409  0.24537  1.0000
  H   H24       1.0  0.28835  0.89585  0.75467  1.0000
  H   H25       1.0  0.53396  0.01167  0.40833  1.0000
  H   H26       1.0  0.46565  0.98837  0.59231  1.0000
  H   H27       1.0  0.40983  0.00682  0.35786  1.0000
  H   H28       1.0  0.59035  0.99315  0.64205  1.0000
  H   H29       1.0  0.17749  0.20365  0.27821  1.0000
  H   H30       1.0  0.82249  0.79633  0.72179  1.0000
  H   H31       1.0  0.09200  0.34728  0.31304  1.0000
  H   H32       1.0  0.90798  0.65276  0.68689  1.0000
  C   C1        1.0  0.38420  0.30073  0.58339  1.0000
  C   C2        1.0  0.61583  0.69930  0.41661  1.0000
  C   C3        1.0  0.58764  0.55791  0.27360  1.0000
  C   C4        1.0  0.41234  0.44211  0.72640  1.0000
  C   C5        1.0  0.28343  0.29303  0.89722  1.0000
  C   C6        1.0  0.71654  0.70698  0.10277  1.0000
  C   C7        1.0  0.36321  0.68398  0.06753  1.0000
  C   C8        1.0  0.63680  0.31601  0.93246  1.0000
  C   C9        1.0  0.50843  0.16826  0.75522  1.0000
  C   C10       1.0  0.49156  0.83176  0.24477  1.0000
  C   C11       1.0  0.27290  0.62588  0.44084  1.0000
  C   C12       1.0  0.72711  0.37412  0.55916  1.0000
  C   C13       1.0  0.26115  0.15617  0.75618  1.0000
  C   C14       1.0  0.73886  0.84385  0.24379  1.0000
  C   C15       1.0  0.16360  0.43906  0.71751  1.0000
  C   C16       1.0  0.83638  0.56096  0.28248  1.0000
  C   C17       1.0  0.22651  0.74211  0.48593  1.0000
  C   C18       1.0  0.77349  0.25789  0.51406  1.0000
  C   C19       1.0  0.13815  0.84849  0.03343  1.0000
  C   C20       1.0  0.86186  0.15150  0.96656  1.0000
  C   C21       1.0  0.09705  0.83993  0.46587  1.0000
  C   C22       1.0  0.90295  0.16006  0.53412  1.0000
  C   C23       1.0  0.16809  0.60563  0.07013  1.0000
  C   C24       1.0  0.83193  0.39436  0.92987  1.0000
  C   C25       1.0  0.28027  0.81881  0.04475  1.0000
  C   C26       1.0  0.71974  0.18118  0.95525  1.0000
  C   C27       1.0  0.08295  0.73876  0.04482  1.0000
  C   C28       1.0  0.91707  0.26123  0.95518  1.0000
  C   C29       1.0  0.06532  0.70044  0.35665  1.0000
  C   C30       1.0  0.93469  0.29955  0.64334  1.0000
  C   C31       1.0  0.01577  0.81690  0.40012  1.0000
  C   C32       1.0  0.98423  0.18309  0.59987  1.0000
  N   N1        1.0  0.30598  0.57976  0.08237  1.0000
  N   N2        1.0  0.69405  0.42024  0.91762  1.0000
  N   N3        1.0  0.19271  0.60630  0.37697  1.0000
  N   N4        1.0  0.80730  0.39369  0.62303  1.0000
  N   N5        1.0  0.41599  0.29091  0.48709  1.0000
  N   N6        1.0  0.58405  0.70911  0.51290  1.0000
  N   N7        1.0  0.54034  0.46925  0.27802  1.0000
  N   N8        1.0  0.45966  0.53075  0.72199  1.0000
  N   N9        1.0  0.05663  0.95513  0.51412  1.0000
  N   N10       1.0  0.94337  0.04486  0.48587  1.0000
  N   N11       1.0  0.05992  0.52944  0.70294  1.0000
  N   N12       1.0  0.94005  0.47058  0.29704  1.0000
  N   N13       1.0  0.61505  0.07776  0.75730  1.0000
  N   N14       1.0  0.38495  0.92225  0.24267  1.0000
  N   N15       1.0  0.22821  0.05793  0.76235  1.0000
  N   N16       1.0  0.77186  0.94206  0.23760  1.0000
  N   N17       1.0  0.25228  0.28825  0.99648  1.0000
  N   N18       1.0  0.74768  0.71176  0.00351  1.0000
  N   N19       1.0  0.05897  0.98791  0.01538  1.0000
  N   N20       1.0  0.94104  0.01208  0.98461  1.0000
  O   O1        1.0  0.43060  0.18038  0.15032  1.0000
  O   O2        1.0  0.56944  0.81962  0.84964  1.0000
  O   O3        1.0  0.38384  0.45126  0.10907  1.0000
  O   O4        1.0  0.61619  0.54873  0.89091  1.0000
  O   O5        1.0  0.23265  0.49712  0.33334  1.0000
  O   O6        1.0  0.76737  0.50286  0.66666  1.0000
  O   O7        1.0  0.65714  0.20011  0.25868  1.0000
  O   O8        1.0  0.34287  0.79984  0.74135  1.0000
  O   O9        1.0  0.18361  0.26901  0.31732  1.0000
  O   O10       1.0  0.81638  0.73104  0.68260  1.0000
  O   O11       1.0  0.43842  0.06469  0.39273  1.0000
  O   O12       1.0  0.56145  0.93542  0.60722  1.0000
