data_image0
_chemical_formula_structural       Cu2H56Pd4C32N8Cl12O8
_chemical_formula_sum              "Cu2 H56 Pd4 C32 N8 Cl12 O8"
_cell_length_a       10.3604
_cell_length_b       10.7245
_cell_length_c       13.1425
_cell_angle_alpha    89.9998
_cell_angle_beta     89.9998
_cell_angle_gamma    115.3

_space_group_name_H-M_alt    "P 1"
_space_group_IT_number       1

loop_
  _space_group_symop_operation_xyz
  'x, y, z'

loop_
  _atom_site_type_symbol
  _atom_site_label
  _atom_site_symmetry_multiplicity
  _atom_site_fract_x
  _atom_site_fract_y
  _atom_site_fract_z
  _atom_site_occupancy
  Cu  Cu1       1.0  1.00000  0.50000  0.50000  1.0000
  Cu  Cu2       1.0  0.50000  0.50000  1.00000  1.0000
  H   H1        1.0  0.85426  0.22079  0.59740  1.0000
  H   H2        1.0  0.64575  0.77922  0.09740  1.0000
  H   H3        1.0  0.14574  0.77922  0.40259  1.0000
  H   H4        1.0  0.35426  0.22079  0.90259  1.0000
  H   H5        1.0  0.69019  0.48700  0.45578  1.0000
  H   H6        1.0  0.80981  0.51300  0.95578  1.0000
  H   H7        1.0  0.30981  0.51300  0.54422  1.0000
  H   H8        1.0  0.19019  0.48701  0.04422  1.0000
  H   H9        1.0  0.08916  0.39488  0.83675  1.0000
  H   H10       1.0  0.41084  0.60512  0.33675  1.0000
  H   H11       1.0  0.91083  0.60512  0.16325  1.0000
  H   H12       1.0  0.58916  0.39488  0.66325  1.0000
  H   H13       1.0  0.21989  0.38357  0.75550  1.0000
  H   H14       1.0  0.28011  0.61643  0.25550  1.0000
  H   H15       1.0  0.78011  0.61643  0.24451  1.0000
  H   H16       1.0  0.71989  0.38357  0.74450  1.0000
  H   H17       1.0  0.11831  0.14029  0.76578  1.0000
  H   H18       1.0  0.38169  0.85971  0.26578  1.0000
  H   H19       1.0  0.88169  0.85971  0.23421  1.0000
  H   H20       1.0  0.61831  0.14029  0.73422  1.0000
  H   H21       1.0  0.01935  0.15562  0.87236  1.0000
  H   H22       1.0  0.48065  0.84438  0.37236  1.0000
  H   H23       1.0  0.98065  0.84438  0.12763  1.0000
  H   H24       1.0  0.51935  0.15562  0.62764  1.0000
  H   H25       1.0  0.89754  0.02739  0.68288  1.0000
  H   H26       1.0  0.60247  0.97262  0.18289  1.0000
  H   H27       1.0  0.10246  0.97262  0.31711  1.0000
  H   H28       1.0  0.39754  0.02738  0.81712  1.0000
  H   H29       1.0  0.80894  0.08763  0.77412  1.0000
  H   H30       1.0  0.69106  0.91237  0.27412  1.0000
  H   H31       1.0  0.19105  0.91237  0.22588  1.0000
  H   H32       1.0  0.30895  0.08763  0.72589  1.0000
  H   H33       1.0  0.60436  0.07851  0.43729  1.0000
  H   H34       1.0  0.89563  0.92149  0.93728  1.0000
  H   H35       1.0  0.39564  0.92148  0.56271  1.0000
  H   H36       1.0  0.10437  0.07852  0.06272  1.0000
  H   H37       1.0  0.68808  0.16507  0.32467  1.0000
  H   H38       1.0  0.81192  0.83492  0.82466  1.0000
  H   H39       1.0  0.31192  0.83493  0.67533  1.0000
  H   H40       1.0  0.18808  0.16508  0.17534  1.0000
  H   H41       1.0  0.39807  0.12655  0.40976  1.0000
  H   H42       1.0  0.10193  0.87345  0.90976  1.0000
  H   H43       1.0  0.60193  0.87345  0.59024  1.0000
  H   H44       1.0  0.89808  0.12655  0.09024  1.0000
  H   H45       1.0  0.44992  0.13729  0.27946  1.0000
  H   H46       1.0  0.05008  0.86271  0.77946  1.0000
  H   H47       1.0  0.55007  0.86270  0.72054  1.0000
  H   H48       1.0  0.94992  0.13729  0.22054  1.0000
  H   H49       1.0  0.43982  0.35979  0.38710  1.0000
  H   H50       1.0  0.06018  0.64021  0.88710  1.0000
  H   H51       1.0  0.56018  0.64020  0.61290  1.0000
  H   H52       1.0  0.93982  0.35980  0.11290  1.0000
  H   H53       1.0  0.56115  0.38422  0.28386  1.0000
  H   H54       1.0  0.93885  0.61578  0.78386  1.0000
  H   H55       1.0  0.43884  0.61577  0.71614  1.0000
  H   H56       1.0  0.06115  0.38423  0.21614  1.0000
  Pd  Pd1       1.0  0.87734  0.83157  0.50566  1.0000
  Pd  Pd2       1.0  0.62266  0.16843  0.00566  1.0000
  Pd  Pd3       1.0  0.12266  0.16843  0.49435  1.0000
  Pd  Pd4       1.0  0.37734  0.83157  0.99435  1.0000
  C   C1        1.0  0.02414  0.35065  0.68192  1.0000
  C   C2        1.0  0.47586  0.64935  0.18192  1.0000
  C   C3        1.0  0.97586  0.64934  0.31808  1.0000
  C   C4        1.0  0.52414  0.35065  0.81808  1.0000
  C   C5        1.0  0.10542  0.33704  0.77291  1.0000
  C   C6        1.0  0.39459  0.66296  0.27291  1.0000
  C   C7        1.0  0.89458  0.66296  0.22709  1.0000
  C   C8        1.0  0.60542  0.33703  0.72709  1.0000
  C   C9        1.0  0.04302  0.18068  0.79173  1.0000
  C   C10       1.0  0.45698  0.81932  0.29173  1.0000
  C   C11       1.0  0.95698  0.81932  0.20827  1.0000
  C   C12       1.0  0.54302  0.18067  0.70827  1.0000
  C   C13       1.0  0.90529  0.11726  0.72708  1.0000
  C   C14       1.0  0.59472  0.88274  0.22707  1.0000
  C   C15       1.0  0.09471  0.88274  0.27292  1.0000
  C   C16       1.0  0.40529  0.11726  0.77293  1.0000
  C   C17       1.0  0.70548  0.30122  0.44543  1.0000
  C   C18       1.0  0.79451  0.69878  0.94542  1.0000
  C   C19       1.0  0.29451  0.69878  0.55457  1.0000
  C   C20       1.0  0.20549  0.30123  0.05457  1.0000
  C   C21       1.0  0.62154  0.16789  0.38924  1.0000
  C   C22       1.0  0.87846  0.83210  0.88924  1.0000
  C   C23       1.0  0.37846  0.83210  0.61076  1.0000
  C   C24       1.0  0.12154  0.16790  0.11076  1.0000
  C   C25       1.0  0.48522  0.17989  0.35557  1.0000
  C   C26       1.0  0.01478  0.82011  0.85557  1.0000
  C   C27       1.0  0.51478  0.82011  0.64443  1.0000
  C   C28       1.0  0.98522  0.17989  0.14443  1.0000
  C   C29       1.0  0.52618  0.33590  0.35882  1.0000
  C   C30       1.0  0.97382  0.66410  0.85882  1.0000
  C   C31       1.0  0.47382  0.66410  0.64118  1.0000
  C   C32       1.0  0.02618  0.33590  0.14118  1.0000
  N   N1        1.0  0.91874  0.22925  0.65870  1.0000
  N   N2        1.0  0.58126  0.77075  0.15870  1.0000
  N   N3        1.0  0.08126  0.77076  0.34130  1.0000
  N   N4        1.0  0.41874  0.22925  0.84130  1.0000
  N   N5        1.0  0.64654  0.38733  0.42974  1.0000
  N   N6        1.0  0.85346  0.61267  0.92974  1.0000
  N   N7        1.0  0.35346  0.61266  0.57026  1.0000
  N   N8        1.0  0.14654  0.38734  0.07026  1.0000
  Cl  Cl1       1.0  0.85646  0.64199  0.59577  1.0000
  Cl  Cl2       1.0  0.64354  0.35801  0.09577  1.0000
  Cl  Cl3       1.0  0.14354  0.35801  0.40423  1.0000
  Cl  Cl4       1.0  0.35646  0.64199  0.90423  1.0000
  Cl  Cl5       1.0  0.66990  0.70343  0.42211  1.0000
  Cl  Cl6       1.0  0.83009  0.29658  0.92211  1.0000
  Cl  Cl7       1.0  0.33009  0.29657  0.57790  1.0000
  Cl  Cl8       1.0  0.16990  0.70342  0.07790  1.0000
  Cl  Cl9       1.0  0.90022  0.03236  0.42105  1.0000
  Cl  Cl10      1.0  0.59978  0.96764  0.92105  1.0000
  Cl  Cl11      1.0  0.09978  0.96764  0.57895  1.0000
  Cl  Cl12      1.0  0.40022  0.03236  0.07896  1.0000
  O   O1        1.0  0.05550  0.46359  0.63564  1.0000
  O   O2        1.0  0.44450  0.53642  0.13563  1.0000
  O   O3        1.0  0.94450  0.53642  0.36436  1.0000
  O   O4        1.0  0.55550  0.46358  0.86436  1.0000
  O   O5        1.0  0.81694  0.32421  0.49739  1.0000
  O   O6        1.0  0.68306  0.67579  0.99738  1.0000
  O   O7        1.0  0.18306  0.67579  0.50261  1.0000
  O   O8        1.0  0.31694  0.32421  0.00261  1.0000
