data_image0
_chemical_formula_structural       Nd2Co2H32C32N20O12
_chemical_formula_sum              "Nd2 Co2 H32 C32 N20 O12"
_cell_length_a       10.2687
_cell_length_b       10.6768
_cell_length_c       12.3516
_cell_angle_alpha    73.4975
_cell_angle_beta     74.7616
_cell_angle_gamma    70.5737

_space_group_name_H-M_alt    "P 1"
_space_group_IT_number       1

loop_
  _space_group_symop_operation_xyz
  'x, y, z'

loop_
  _atom_site_type_symbol
  _atom_site_label
  _atom_site_symmetry_multiplicity
  _atom_site_fract_x
  _atom_site_fract_y
  _atom_site_fract_z
  _atom_site_occupancy
  Nd  Nd1       1.0  0.41591  0.30775  0.28208  1.0000
  Nd  Nd2       1.0  0.58409  0.69224  0.71792  1.0000
  Co  Co1       1.0  0.32221  0.30426  0.74111  1.0000
  Co  Co2       1.0  0.67778  0.69574  0.25889  1.0000
  H   H1        1.0  0.29055  0.76313  0.53564  1.0000
  H   H2        1.0  0.70944  0.23687  0.46436  1.0000
  H   H3        1.0  0.31548  0.90475  0.04783  1.0000
  H   H4        1.0  0.68453  0.09525  0.95217  1.0000
  H   H5        1.0  0.14409  0.51922  0.06200  1.0000
  H   H6        1.0  0.85591  0.48079  0.93799  1.0000
  H   H7        1.0  0.46551  0.65933  0.08198  1.0000
  H   H8        1.0  0.53450  0.34067  0.91802  1.0000
  H   H9        1.0  0.02512  0.68103  0.29576  1.0000
  H   H10       1.0  0.97488  0.31897  0.70423  1.0000
  H   H11       1.0  0.37354  0.55490  0.44936  1.0000
  H   H12       1.0  0.62646  0.44510  0.55064  1.0000
  H   H13       1.0  0.98131  0.75936  0.02143  1.0000
  H   H14       1.0  0.01870  0.24065  0.97856  1.0000
  H   H15       1.0  0.92663  0.89468  0.37382  1.0000
  H   H16       1.0  0.07336  0.10532  0.62618  1.0000
  H   H17       1.0  0.41432  0.08301  0.16854  1.0000
  H   H18       1.0  0.58568  0.91699  0.83145  1.0000
  H   H19       1.0  0.34973  0.22715  0.09204  1.0000
  H   H20       1.0  0.65027  0.77285  0.90796  1.0000
  H   H21       1.0  0.73664  0.24503  0.23653  1.0000
  H   H22       1.0  0.26336  0.75497  0.76347  1.0000
  H   H23       1.0  0.72180  0.09659  0.24293  1.0000
  H   H24       1.0  0.27820  0.90341  0.75707  1.0000
  H   H25       1.0  0.42332  0.99498  0.35684  1.0000
  H   H26       1.0  0.57667  0.00502  0.64317  1.0000
  H   H27       1.0  0.39440  0.04352  0.47263  1.0000
  H   H28       1.0  0.60568  0.95645  0.52738  1.0000
  H   H29       1.0  0.16862  0.20203  0.29947  1.0000
  H   H30       1.0  0.83137  0.79796  0.70054  1.0000
  H   H31       1.0  0.09054  0.35106  0.32230  1.0000
  H   H32       1.0  0.90946  0.64894  0.67769  1.0000
  C   C1        1.0  0.37693  0.30110  0.58605  1.0000
  C   C2        1.0  0.62307  0.69890  0.41395  1.0000
  C   C3        1.0  0.60281  0.55514  0.27164  1.0000
  C   C4        1.0  0.39718  0.44486  0.72836  1.0000
  C   C5        1.0  0.26797  0.29759  0.89865  1.0000
  C   C6        1.0  0.73203  0.70241  0.10135  1.0000
  C   C7        1.0  0.35789  0.68986  0.06903  1.0000
  C   C8        1.0  0.64212  0.31014  0.93097  1.0000
  C   C9        1.0  0.49205  0.17291  0.76006  1.0000
  C   C10       1.0  0.50795  0.82708  0.23994  1.0000
  C   C11       1.0  0.27663  0.63413  0.43738  1.0000
  C   C12       1.0  0.72336  0.36587  0.56262  1.0000
  C   C13       1.0  0.24951  0.15955  0.75817  1.0000
  C   C14       1.0  0.75048  0.84045  0.24183  1.0000
  C   C15       1.0  0.15456  0.43752  0.71474  1.0000
  C   C16       1.0  0.84544  0.56248  0.28526  1.0000
  C   C17       1.0  0.22851  0.74858  0.48331  1.0000
  C   C18       1.0  0.77148  0.25143  0.51670  1.0000
  C   C19       1.0  0.13684  0.85084  0.03211  1.0000
  C   C20       1.0  0.86317  0.14916  0.96789  1.0000
  C   C21       1.0  0.10147  0.84487  0.46189  1.0000
  C   C22       1.0  0.89852  0.15513  0.53811  1.0000
  C   C23       1.0  0.17324  0.61036  0.05614  1.0000
  C   C24       1.0  0.82676  0.38964  0.94386  1.0000
  C   C25       1.0  0.27424  0.82252  0.04940  1.0000
  C   C26       1.0  0.72577  0.17748  0.95060  1.0000
  C   C27       1.0  0.08760  0.74157  0.03411  1.0000
  C   C28       1.0  0.91240  0.25844  0.96589  1.0000
  C   C29       1.0  0.07652  0.70796  0.34871  1.0000
  C   C30       1.0  0.92348  0.29204  0.65129  1.0000
  C   C31       1.0  0.02525  0.82238  0.39317  1.0000
  C   C32       1.0  0.97474  0.17762  0.60683  1.0000
  N   N1        1.0  0.30622  0.58574  0.07437  1.0000
  N   N2        1.0  0.69379  0.41426  0.92563  1.0000
  N   N3        1.0  0.20097  0.61522  0.37076  1.0000
  N   N4        1.0  0.79902  0.38478  0.62924  1.0000
  N   N5        1.0  0.41320  0.28945  0.49029  1.0000
  N   N6        1.0  0.58680  0.71056  0.50971  1.0000
  N   N7        1.0  0.55774  0.46619  0.27538  1.0000
  N   N8        1.0  0.44226  0.53381  0.72462  1.0000
  N   N9        1.0  0.05879  0.95879  0.51056  1.0000
  N   N10       1.0  0.94120  0.04121  0.48944  1.0000
  N   N11       1.0  0.05291  0.52504  0.69620  1.0000
  N   N12       1.0  0.94709  0.47497  0.30380  1.0000
  N   N13       1.0  0.59706  0.08417  0.76428  1.0000
  N   N14       1.0  0.40293  0.91584  0.23572  1.0000
  N   N15       1.0  0.21513  0.06300  0.76477  1.0000
  N   N16       1.0  0.78486  0.93700  0.23523  1.0000
  N   N17       1.0  0.23606  0.29380  0.99777  1.0000
  N   N18       1.0  0.76393  0.70620  0.00223  1.0000
  N   N19       1.0  0.05636  0.98784  0.01793  1.0000
  N   N20       1.0  0.94365  0.01216  0.98207  1.0000
  O   O1        1.0  0.41913  0.17866  0.14495  1.0000
  O   O2        1.0  0.58087  0.82133  0.85504  1.0000
  O   O3        1.0  0.38362  0.45896  0.09909  1.0000
  O   O4        1.0  0.61638  0.54104  0.90091  1.0000
  O   O5        1.0  0.24395  0.50870  0.32535  1.0000
  O   O6        1.0  0.75604  0.49130  0.67465  1.0000
  O   O7        1.0  0.66924  0.19355  0.25167  1.0000
  O   O8        1.0  0.33076  0.80645  0.74833  1.0000
  O   O9        1.0  0.17873  0.27178  0.33037  1.0000
  O   O10       1.0  0.82127  0.72823  0.66963  1.0000
  O   O11       1.0  0.43962  0.05936  0.39196  1.0000
  O   O12       1.0  0.56038  0.94065  0.60803  1.0000
