data_image0
_chemical_formula_structural       Er2Co2H32C32N20O12
_chemical_formula_sum              "Er2 Co2 H32 C32 N20 O12"
_cell_length_a       10.0293
_cell_length_b       10.5331
_cell_length_c       12.416
_cell_angle_alpha    73.7386
_cell_angle_beta     75.8108
_cell_angle_gamma    71.2883

_space_group_name_H-M_alt    "P 1"
_space_group_IT_number       1

loop_
  _space_group_symop_operation_xyz
  'x, y, z'

loop_
  _atom_site_type_symbol
  _atom_site_label
  _atom_site_symmetry_multiplicity
  _atom_site_fract_x
  _atom_site_fract_y
  _atom_site_fract_z
  _atom_site_occupancy
  Er  Er1       1.0  0.40226  0.31221  0.29055  1.0000
  Er  Er2       1.0  0.59775  0.68780  0.70944  1.0000
  Co  Co1       1.0  0.34085  0.29378  0.73804  1.0000
  Co  Co2       1.0  0.65918  0.70621  0.26196  1.0000
  H   H1        1.0  0.28543  0.75283  0.54433  1.0000
  H   H2        1.0  0.71454  0.24719  0.45568  1.0000
  H   H3        1.0  0.33064  0.90386  0.02671  1.0000
  H   H4        1.0  0.66934  0.09616  0.97328  1.0000
  H   H5        1.0  0.12908  0.51406  0.09039  1.0000
  H   H6        1.0  0.87093  0.48593  0.90963  1.0000
  H   H7        1.0  0.47712  0.65477  0.07013  1.0000
  H   H8        1.0  0.52287  0.34525  0.92985  1.0000
  H   H9        1.0  0.01433  0.68290  0.29452  1.0000
  H   H10       1.0  0.98567  0.31709  0.70547  1.0000
  H   H11       1.0  0.36213  0.54223  0.46054  1.0000
  H   H12       1.0  0.63786  0.45779  0.53946  1.0000
  H   H13       1.0  0.96957  0.75707  0.04075  1.0000
  H   H14       1.0  0.03042  0.24291  0.95928  1.0000
  H   H15       1.0  0.92245  0.89974  0.36950  1.0000
  H   H16       1.0  0.07752  0.10025  0.63051  1.0000
  H   H17       1.0  0.41839  0.08536  0.18464  1.0000
  H   H18       1.0  0.58164  0.91463  0.81535  1.0000
  H   H19       1.0  0.36411  0.22593  0.09973  1.0000
  H   H20       1.0  0.63591  0.77407  0.90027  1.0000
  H   H21       1.0  0.71418  0.26363  0.24427  1.0000
  H   H22       1.0  0.28583  0.73636  0.75574  1.0000
  H   H23       1.0  0.70017  0.11238  0.25216  1.0000
  H   H24       1.0  0.29983  0.88762  0.74784  1.0000
  H   H25       1.0  0.38637  0.06072  0.47852  1.0000
  H   H26       1.0  0.61344  0.93935  0.52147  1.0000
  H   H27       1.0  0.39740  0.00928  0.36748  1.0000
  H   H28       1.0  0.60263  0.99072  0.63251  1.0000
  H   H29       1.0  0.16717  0.20551  0.28689  1.0000
  H   H30       1.0  0.83286  0.79450  0.71308  1.0000
  H   H31       1.0  0.08376  0.35549  0.30922  1.0000
  H   H32       1.0  0.91626  0.64449  0.69078  1.0000
  C   C1        1.0  0.38002  0.29722  0.58336  1.0000
  C   C2        1.0  0.62000  0.70277  0.41664  1.0000
  C   C3        1.0  0.57905  0.56459  0.27680  1.0000
  C   C4        1.0  0.42097  0.43540  0.72320  1.0000
  C   C5        1.0  0.29735  0.28169  0.89486  1.0000
  C   C6        1.0  0.70270  0.71829  0.10514  1.0000
  C   C7        1.0  0.36459  0.68577  0.06418  1.0000
  C   C8        1.0  0.63541  0.31423  0.93582  1.0000
  C   C9        1.0  0.51660  0.16345  0.74760  1.0000
  C   C10       1.0  0.48344  0.83655  0.25240  1.0000
  C   C11       1.0  0.26710  0.62510  0.44495  1.0000
  C   C12       1.0  0.73288  0.37491  0.55505  1.0000
  C   C13       1.0  0.26576  0.14632  0.75644  1.0000
  C   C14       1.0  0.73426  0.85369  0.24355  1.0000
  C   C15       1.0  0.16884  0.43023  0.72207  1.0000
  C   C16       1.0  0.83119  0.56975  0.27794  1.0000
  C   C17       1.0  0.22220  0.74077  0.48983  1.0000
  C   C18       1.0  0.77778  0.25924  0.51017  1.0000
  C   C19       1.0  0.13862  0.84922  0.03172  1.0000
  C   C20       1.0  0.86137  0.15077  0.96829  1.0000
  C   C21       1.0  0.09712  0.84195  0.46434  1.0000
  C   C22       1.0  0.90286  0.15805  0.53567  1.0000
  C   C23       1.0  0.16516  0.60570  0.07360  1.0000
  C   C24       1.0  0.83483  0.39430  0.92642  1.0000
  C   C25       1.0  0.28276  0.82032  0.03977  1.0000
  C   C26       1.0  0.71723  0.17969  0.96022  1.0000
  C   C27       1.0  0.08095  0.73849  0.04692  1.0000
  C   C28       1.0  0.91904  0.26150  0.95308  1.0000
  C   C29       1.0  0.06732  0.70735  0.34942  1.0000
  C   C30       1.0  0.93266  0.29266  0.65057  1.0000
  C   C31       1.0  0.01940  0.82326  0.39251  1.0000
  C   C32       1.0  0.98057  0.17675  0.60750  1.0000
  N   N1        1.0  0.30456  0.58069  0.08378  1.0000
  N   N2        1.0  0.69545  0.41932  0.91622  1.0000
  N   N3        1.0  0.18995  0.60938  0.37565  1.0000
  N   N4        1.0  0.81003  0.39063  0.62435  1.0000
  N   N5        1.0  0.40439  0.29186  0.48723  1.0000
  N   N6        1.0  0.59561  0.70815  0.51277  1.0000
  N   N7        1.0  0.53093  0.47482  0.28219  1.0000
  N   N8        1.0  0.46909  0.52518  0.71781  1.0000
  N   N9        1.0  0.05828  0.95666  0.51218  1.0000
  N   N10       1.0  0.94168  0.04335  0.48782  1.0000
  N   N11       1.0  0.06577  0.52166  0.71102  1.0000
  N   N12       1.0  0.93425  0.47831  0.28899  1.0000
  N   N13       1.0  0.62481  0.07590  0.74595  1.0000
  N   N14       1.0  0.37523  0.92410  0.25404  1.0000
  N   N15       1.0  0.23132  0.04762  0.76318  1.0000
  N   N16       1.0  0.76868  0.95239  0.23680  1.0000
  N   N17       1.0  0.26993  0.27685  0.99308  1.0000
  N   N18       1.0  0.73010  0.72313  0.00692  1.0000
  N   N19       1.0  0.06068  0.98858  0.01302  1.0000
  N   N20       1.0  0.93931  0.01141  0.98698  1.0000
  O   O1        1.0  0.42623  0.18092  0.16015  1.0000
  O   O2        1.0  0.57378  0.81908  0.83985  1.0000
  O   O3        1.0  0.38098  0.45260  0.11276  1.0000
  O   O4        1.0  0.61903  0.54740  0.88724  1.0000
  O   O5        1.0  0.22807  0.50119  0.33187  1.0000
  O   O6        1.0  0.77194  0.49881  0.66813  1.0000
  O   O7        1.0  0.64770  0.20740  0.26700  1.0000
  O   O8        1.0  0.35230  0.79260  0.73300  1.0000
  O   O9        1.0  0.17442  0.27773  0.31788  1.0000
  O   O10       1.0  0.82560  0.72226  0.68212  1.0000
  O   O11       1.0  0.42391  0.07389  0.39718  1.0000
  O   O12       1.0  0.57610  0.92609  0.60284  1.0000
