data_image0
_chemical_formula_structural       Tb2Co2H32C32N20O12
_chemical_formula_sum              "Tb2 Co2 H32 C32 N20 O12"
_cell_length_a       10.0963
_cell_length_b       10.5876
_cell_length_c       12.4005
_cell_angle_alpha    73.6964
_cell_angle_beta     75.5562
_cell_angle_gamma    70.9855

_space_group_name_H-M_alt    "P 1"
_space_group_IT_number       1

loop_
  _space_group_symop_operation_xyz
  'x, y, z'

loop_
  _atom_site_type_symbol
  _atom_site_label
  _atom_site_symmetry_multiplicity
  _atom_site_fract_x
  _atom_site_fract_y
  _atom_site_fract_z
  _atom_site_occupancy
  Tb  Tb1       1.0  0.40693  0.31100  0.28813  1.0000
  Tb  Tb2       1.0  0.59307  0.68899  0.71188  1.0000
  Co  Co1       1.0  0.33603  0.29647  0.73908  1.0000
  Co  Co2       1.0  0.66397  0.70353  0.26092  1.0000
  H   H1        1.0  0.28845  0.75664  0.54073  1.0000
  H   H2        1.0  0.71154  0.24337  0.45927  1.0000
  H   H3        1.0  0.32724  0.90412  0.03085  1.0000
  H   H4        1.0  0.67276  0.09587  0.96917  1.0000
  H   H5        1.0  0.13313  0.51560  0.08368  1.0000
  H   H6        1.0  0.86687  0.48439  0.91632  1.0000
  H   H7        1.0  0.47501  0.65609  0.07177  1.0000
  H   H8        1.0  0.52499  0.34389  0.92823  1.0000
  H   H9        1.0  0.01669  0.68169  0.29625  1.0000
  H   H10       1.0  0.98332  0.31831  0.70375  1.0000
  H   H11       1.0  0.36697  0.54658  0.45660  1.0000
  H   H12       1.0  0.63303  0.45343  0.54341  1.0000
  H   H13       1.0  0.97219  0.75779  0.03694  1.0000
  H   H14       1.0  0.02781  0.24221  0.96306  1.0000
  H   H15       1.0  0.92244  0.89741  0.37234  1.0000
  H   H16       1.0  0.07756  0.10260  0.62766  1.0000
  H   H17       1.0  0.41825  0.08463  0.18048  1.0000
  H   H18       1.0  0.58175  0.91537  0.81951  1.0000
  H   H19       1.0  0.36164  0.22593  0.09739  1.0000
  H   H20       1.0  0.63835  0.77407  0.90261  1.0000
  H   H21       1.0  0.72187  0.25730  0.24327  1.0000
  H   H22       1.0  0.27813  0.74271  0.75672  1.0000
  H   H23       1.0  0.70737  0.10734  0.24979  1.0000
  H   H24       1.0  0.29264  0.89266  0.75021  1.0000
  H   H25       1.0  0.40443  0.00614  0.36467  1.0000
  H   H26       1.0  0.59555  0.99387  0.63532  1.0000
  H   H27       1.0  0.38918  0.05649  0.47712  1.0000
  H   H28       1.0  0.61094  0.94346  0.52288  1.0000
  H   H29       1.0  0.16827  0.20567  0.28789  1.0000
  H   H30       1.0  0.83172  0.79433  0.71212  1.0000
  H   H31       1.0  0.08590  0.35464  0.31178  1.0000
  H   H32       1.0  0.91409  0.64537  0.68821  1.0000
  C   C1        1.0  0.37937  0.29834  0.58428  1.0000
  C   C2        1.0  0.62064  0.70166  0.41572  1.0000
  C   C3        1.0  0.58610  0.56206  0.27515  1.0000
  C   C4        1.0  0.41390  0.43794  0.72485  1.0000
  C   C5        1.0  0.28990  0.28591  0.89609  1.0000
  C   C6        1.0  0.71009  0.71410  0.10391  1.0000
  C   C7        1.0  0.36342  0.68703  0.06471  1.0000
  C   C8        1.0  0.63658  0.31296  0.93529  1.0000
  C   C9        1.0  0.51037  0.16552  0.75085  1.0000
  C   C10       1.0  0.48962  0.83448  0.24915  1.0000
  C   C11       1.0  0.27087  0.62812  0.44244  1.0000
  C   C12       1.0  0.72912  0.37190  0.55756  1.0000
  C   C13       1.0  0.26167  0.15007  0.75705  1.0000
  C   C14       1.0  0.73834  0.84993  0.24295  1.0000
  C   C15       1.0  0.16489  0.43197  0.72024  1.0000
  C   C16       1.0  0.83510  0.56804  0.27975  1.0000
  C   C17       1.0  0.22501  0.74345  0.48748  1.0000
  C   C18       1.0  0.77498  0.25657  0.51252  1.0000
  C   C19       1.0  0.13823  0.84965  0.03195  1.0000
  C   C20       1.0  0.86177  0.15033  0.96806  1.0000
  C   C21       1.0  0.09861  0.84280  0.46380  1.0000
  C   C22       1.0  0.90138  0.15722  0.53621  1.0000
  C   C23       1.0  0.16737  0.60710  0.06959  1.0000
  C   C24       1.0  0.83263  0.39288  0.93042  1.0000
  C   C25       1.0  0.28091  0.82098  0.04171  1.0000
  C   C26       1.0  0.71908  0.17901  0.95830  1.0000
  C   C27       1.0  0.08249  0.73940  0.04438  1.0000
  C   C28       1.0  0.91751  0.26058  0.95563  1.0000
  C   C29       1.0  0.06964  0.70714  0.35014  1.0000
  C   C30       1.0  0.93037  0.29287  0.64987  1.0000
  C   C31       1.0  0.02060  0.82251  0.39367  1.0000
  C   C32       1.0  0.97940  0.17749  0.60633  1.0000
  N   N1        1.0  0.30551  0.58221  0.08101  1.0000
  N   N2        1.0  0.69449  0.41777  0.91899  1.0000
  N   N3        1.0  0.19364  0.61120  0.37440  1.0000
  N   N4        1.0  0.80637  0.38881  0.62560  1.0000
  N   N5        1.0  0.40712  0.29133  0.48818  1.0000
  N   N6        1.0  0.59290  0.70867  0.51182  1.0000
  N   N7        1.0  0.53984  0.47201  0.28016  1.0000
  N   N8        1.0  0.46016  0.52800  0.71983  1.0000
  N   N9        1.0  0.05865  0.95742  0.51157  1.0000
  N   N10       1.0  0.94134  0.04259  0.48844  1.0000
  N   N11       1.0  0.06200  0.52237  0.70703  1.0000
  N   N12       1.0  0.93800  0.47764  0.29297  1.0000
  N   N13       1.0  0.61754  0.07718  0.75035  1.0000
  N   N14       1.0  0.38245  0.92282  0.24965  1.0000
  N   N15       1.0  0.22701  0.05232  0.76371  1.0000
  N   N16       1.0  0.77299  0.94768  0.23629  1.0000
  N   N17       1.0  0.26134  0.28148  0.99451  1.0000
  N   N18       1.0  0.73865  0.71853  0.00549  1.0000
  N   N19       1.0  0.05958  0.98834  0.01437  1.0000
  N   N20       1.0  0.94042  0.01165  0.98565  1.0000
  O   O1        1.0  0.42631  0.17975  0.15562  1.0000
  O   O2        1.0  0.57369  0.82025  0.84437  1.0000
  O   O3        1.0  0.38244  0.45452  0.10869  1.0000
  O   O4        1.0  0.61755  0.54547  0.89131  1.0000
  O   O5        1.0  0.23345  0.50368  0.32998  1.0000
  O   O6        1.0  0.76655  0.49633  0.67003  1.0000
  O   O7        1.0  0.65488  0.20282  0.26314  1.0000
  O   O8        1.0  0.34512  0.79718  0.73686  1.0000
  O   O9        1.0  0.17615  0.27650  0.31971  1.0000
  O   O10       1.0  0.82385  0.72351  0.68028  1.0000
  O   O11       1.0  0.42896  0.07007  0.39595  1.0000
  O   O12       1.0  0.57103  0.92994  0.60403  1.0000
