data_image0
_chemical_formula_structural       Tm2Co2H32C32N20O12
_chemical_formula_sum              "Tm2 Co2 H32 C32 N20 O12"
_cell_length_a       10.0215
_cell_length_b       10.522
_cell_length_c       12.4185
_cell_angle_alpha    73.8383
_cell_angle_beta     76.2052
_cell_angle_gamma    71.2959

_space_group_name_H-M_alt    "P 1"
_space_group_IT_number       1

loop_
  _space_group_symop_operation_xyz
  'x, y, z'

loop_
  _atom_site_type_symbol
  _atom_site_label
  _atom_site_symmetry_multiplicity
  _atom_site_fract_x
  _atom_site_fract_y
  _atom_site_fract_z
  _atom_site_occupancy
  Tm  Tm1       1.0  0.40138  0.31241  0.29150  1.0000
  Tm  Tm2       1.0  0.59862  0.68759  0.70849  1.0000
  Co  Co1       1.0  0.34238  0.29383  0.73726  1.0000
  Co  Co2       1.0  0.65763  0.70616  0.26274  1.0000
  H   H1        1.0  0.28715  0.75352  0.54377  1.0000
  H   H2        1.0  0.71285  0.24649  0.45623  1.0000
  H   H3        1.0  0.33250  0.90278  0.02200  1.0000
  H   H4        1.0  0.66750  0.09722  0.97800  1.0000
  H   H5        1.0  0.12604  0.51399  0.09618  1.0000
  H   H6        1.0  0.87396  0.48602  0.90382  1.0000
  H   H7        1.0  0.47812  0.65302  0.06708  1.0000
  H   H8        1.0  0.52188  0.34699  0.93292  1.0000
  H   H9        1.0  0.01278  0.68129  0.29632  1.0000
  H   H10       1.0  0.98722  0.31872  0.70368  1.0000
  H   H11       1.0  0.36373  0.54269  0.46027  1.0000
  H   H12       1.0  0.63626  0.45731  0.53973  1.0000
  H   H13       1.0  0.96712  0.75760  0.04532  1.0000
  H   H14       1.0  0.03288  0.24241  0.95468  1.0000
  H   H15       1.0  0.92089  0.89837  0.37103  1.0000
  H   H16       1.0  0.07910  0.10163  0.62897  1.0000
  H   H17       1.0  0.41833  0.08580  0.18604  1.0000
  H   H18       1.0  0.58167  0.91420  0.81396  1.0000
  H   H19       1.0  0.36497  0.22629  0.10040  1.0000
  H   H20       1.0  0.63504  0.77371  0.89960  1.0000
  H   H21       1.0  0.71134  0.26395  0.24645  1.0000
  H   H22       1.0  0.28866  0.73604  0.75356  1.0000
  H   H23       1.0  0.69753  0.11248  0.25466  1.0000
  H   H24       1.0  0.30247  0.88752  0.74534  1.0000
  H   H25       1.0  0.39613  0.01062  0.36777  1.0000
  H   H26       1.0  0.60388  0.98938  0.63223  1.0000
  H   H27       1.0  0.38635  0.06214  0.47853  1.0000
  H   H28       1.0  0.61361  0.93788  0.52146  1.0000
  H   H29       1.0  0.16754  0.20579  0.28660  1.0000
  H   H30       1.0  0.83247  0.79420  0.71339  1.0000
  H   H31       1.0  0.08368  0.35559  0.30945  1.0000
  H   H32       1.0  0.91632  0.64440  0.69056  1.0000
  C   C1        1.0  0.38037  0.29748  0.58285  1.0000
  C   C2        1.0  0.61963  0.70251  0.41714  1.0000
  C   C3        1.0  0.57759  0.56452  0.27733  1.0000
  C   C4        1.0  0.42241  0.43547  0.72267  1.0000
  C   C5        1.0  0.30015  0.28161  0.89382  1.0000
  C   C6        1.0  0.69985  0.71839  0.10618  1.0000
  C   C7        1.0  0.36494  0.68449  0.06279  1.0000
  C   C8        1.0  0.63506  0.31551  0.93721  1.0000
  C   C9        1.0  0.51832  0.16318  0.74682  1.0000
  C   C10       1.0  0.48169  0.83680  0.25318  1.0000
  C   C11       1.0  0.26809  0.62516  0.44497  1.0000
  C   C12       1.0  0.73191  0.37485  0.55504  1.0000
  C   C13       1.0  0.26751  0.14618  0.75549  1.0000
  C   C14       1.0  0.73249  0.85381  0.24451  1.0000
  C   C15       1.0  0.17014  0.43048  0.72129  1.0000
  C   C16       1.0  0.82987  0.56952  0.27871  1.0000
  C   C17       1.0  0.22321  0.74095  0.48977  1.0000
  C   C18       1.0  0.77679  0.25905  0.51024  1.0000
  C   C19       1.0  0.13860  0.84879  0.03168  1.0000
  C   C20       1.0  0.86140  0.15121  0.96832  1.0000
  C   C21       1.0  0.09731  0.84171  0.46472  1.0000
  C   C22       1.0  0.90269  0.15829  0.53528  1.0000
  C   C23       1.0  0.16319  0.60534  0.07720  1.0000
  C   C24       1.0  0.83681  0.39466  0.92280  1.0000
  C   C25       1.0  0.28364  0.81936  0.03764  1.0000
  C   C26       1.0  0.71636  0.18065  0.96237  1.0000
  C   C27       1.0  0.07929  0.73837  0.04991  1.0000
  C   C28       1.0  0.92071  0.26163  0.95009  1.0000
  C   C29       1.0  0.06652  0.70628  0.35063  1.0000
  C   C30       1.0  0.93347  0.29373  0.64937  1.0000
  C   C31       1.0  0.01862  0.82231  0.39361  1.0000
  C   C32       1.0  0.98137  0.17770  0.60639  1.0000
  N   N1        1.0  0.30356  0.57984  0.08514  1.0000
  N   N2        1.0  0.69644  0.42016  0.91486  1.0000
  N   N3        1.0  0.19010  0.60887  0.37620  1.0000
  N   N4        1.0  0.80990  0.39114  0.62380  1.0000
  N   N5        1.0  0.40405  0.29237  0.48684  1.0000
  N   N6        1.0  0.59595  0.70762  0.51316  1.0000
  N   N7        1.0  0.52919  0.47487  0.28263  1.0000
  N   N8        1.0  0.47082  0.52512  0.71737  1.0000
  N   N9        1.0  0.05855  0.95683  0.51218  1.0000
  N   N10       1.0  0.94145  0.04317  0.48783  1.0000
  N   N11       1.0  0.06698  0.52207  0.71020  1.0000
  N   N12       1.0  0.93302  0.47792  0.28980  1.0000
  N   N13       1.0  0.62640  0.07534  0.74513  1.0000
  N   N14       1.0  0.37361  0.92467  0.25487  1.0000
  N   N15       1.0  0.23305  0.04741  0.76220  1.0000
  N   N16       1.0  0.76694  0.95258  0.23781  1.0000
  N   N17       1.0  0.27341  0.27670  0.99185  1.0000
  N   N18       1.0  0.72659  0.72331  0.00815  1.0000
  N   N19       1.0  0.06137  0.98856  0.01206  1.0000
  N   N20       1.0  0.93863  0.01145  0.98794  1.0000
  O   O1        1.0  0.42603  0.18138  0.16188  1.0000
  O   O2        1.0  0.57397  0.81862  0.83812  1.0000
  O   O3        1.0  0.37986  0.45152  0.11462  1.0000
  O   O4        1.0  0.62014  0.54849  0.88539  1.0000
  O   O5        1.0  0.22814  0.50070  0.33231  1.0000
  O   O6        1.0  0.77186  0.49930  0.66770  1.0000
  O   O7        1.0  0.64534  0.20726  0.27022  1.0000
  O   O8        1.0  0.35466  0.79274  0.72977  1.0000
  O   O9        1.0  0.17497  0.27823  0.31741  1.0000
  O   O10       1.0  0.82503  0.72176  0.68259  1.0000
  O   O11       1.0  0.42337  0.07506  0.39737  1.0000
  O   O12       1.0  0.57664  0.92493  0.60263  1.0000
