data_image0
_chemical_formula_structural       Cu3H16C12N22
_chemical_formula_sum              "Cu3 H16 C12 N22"
_cell_length_a       7.39977
_cell_length_b       9.07932
_cell_length_c       9.26942
_cell_angle_alpha    76.4971
_cell_angle_beta     75.6218
_cell_angle_gamma    71.0013

_space_group_name_H-M_alt    "P 1"
_space_group_IT_number       1

loop_
  _space_group_symop_operation_xyz
  'x, y, z'

loop_
  _atom_site_type_symbol
  _atom_site_label
  _atom_site_symmetry_multiplicity
  _atom_site_fract_x
  _atom_site_fract_y
  _atom_site_fract_z
  _atom_site_occupancy
  Cu  Cu1       1.0  0.00065  0.49991  0.50000  1.0000
  Cu  Cu2       1.0  0.43215  0.39791  0.28169  1.0000
  Cu  Cu3       1.0  0.56721  0.60207  0.71846  1.0000
  H   H1        1.0  0.67549  0.08993  0.38833  1.0000
  H   H2        1.0  0.32429  0.91007  0.61175  1.0000
  H   H3        1.0  0.89085  0.84044  0.00836  1.0000
  H   H4        1.0  0.10933  0.15984  0.99153  1.0000
  H   H5        1.0  0.67216  0.06773  0.86399  1.0000
  H   H6        1.0  0.32744  0.93249  0.13609  1.0000
  H   H7        1.0  0.46968  0.29896  0.98838  1.0000
  H   H8        1.0  0.52977  0.70100  0.01186  1.0000
  H   H9        1.0  0.08120  0.79439  0.24299  1.0000
  H   H10       1.0  0.91913  0.20634  0.75668  1.0000
  H   H11       1.0  0.92230  0.85183  0.40992  1.0000
  H   H12       1.0  0.07808  0.14860  0.58987  1.0000
  H   H13       1.0  0.92591  0.61477  0.23862  1.0000
  H   H14       1.0  0.07531  0.38527  0.76128  1.0000
  H   H15       1.0  0.73372  0.68300  0.36751  1.0000
  H   H16       1.0  0.26761  0.31652  0.63265  1.0000
  C   C1        1.0  0.67947  0.07905  0.27266  1.0000
  C   C2        1.0  0.32030  0.92097  0.72741  1.0000
  C   C3        1.0  0.79952  0.94634  0.21068  1.0000
  C   C4        1.0  0.20055  0.05383  0.78927  1.0000
  C   C5        1.0  0.79769  0.94175  0.06122  1.0000
  C   C6        1.0  0.20230  0.05845  0.93875  1.0000
  C   C7        1.0  0.67748  0.06822  0.98034  1.0000
  C   C8        1.0  0.32222  0.93187  0.01974  1.0000
  C   C9        1.0  0.56312  0.19709  0.04950  1.0000
  C   C10       1.0  0.43641  0.80289  0.95069  1.0000
  C   C11       1.0  0.93003  0.81547  0.30335  1.0000
  C   C12       1.0  0.07039  0.18489  0.69647  1.0000
  N   N1        1.0  0.30940  0.56487  0.40955  1.0000
  N   N2        1.0  0.69062  0.43505  0.58995  1.0000
  N   N3        1.0  0.37395  0.67078  0.40740  1.0000
  N   N4        1.0  0.62619  0.32909  0.59225  1.0000
  N   N5        1.0  0.43332  0.77563  0.40767  1.0000
  N   N6        1.0  0.56683  0.22418  0.59196  1.0000
  N   N7        1.0  0.17113  0.35385  0.34703  1.0000
  N   N8        1.0  0.82795  0.64603  0.65282  1.0000
  N   N9        1.0  0.12409  0.25182  0.31365  1.0000
  N   N10       1.0  0.87506  0.74779  0.68694  1.0000
  N   N11       1.0  0.07784  0.15433  0.28218  1.0000
  N   N12       1.0  0.92172  0.84483  0.71858  1.0000
  N   N13       1.0  0.65461  0.48691  0.19021  1.0000
  N   N14       1.0  0.34482  0.51303  0.80960  1.0000
  N   N15       1.0  0.76489  0.44244  0.07900  1.0000
  N   N16       1.0  0.23490  0.55748  0.92096  1.0000
  N   N17       1.0  0.87238  0.40434  0.96959  1.0000
  N   N18       1.0  0.12781  0.59567  0.03049  1.0000
  N   N19       1.0  0.56465  0.20194  0.19344  1.0000
  N   N20       1.0  0.43486  0.79799  0.80676  1.0000
  N   N21       1.0  0.88205  0.66355  0.33538  1.0000
  N   N22       1.0  0.11914  0.33648  0.66453  1.0000
