data_image0
_chemical_formula_structural       Cu2H40C30N10O6
_chemical_formula_sum              "Cu2 H40 C30 N10 O6"
_cell_length_a       9.00847
_cell_length_b       9.70928
_cell_length_c       11.0503
_cell_angle_alpha    90.4596
_cell_angle_beta     113.65
_cell_angle_gamma    98.0367

_space_group_name_H-M_alt    "P 1"
_space_group_IT_number       1

loop_
  _space_group_symop_operation_xyz
  'x, y, z'

loop_
  _atom_site_type_symbol
  _atom_site_label
  _atom_site_symmetry_multiplicity
  _atom_site_fract_x
  _atom_site_fract_y
  _atom_site_fract_z
  _atom_site_occupancy
  Cu  Cu1       1.0  0.60275  0.66288  0.14804  1.0000
  Cu  Cu2       1.0  0.74231  0.84724  0.74613  1.0000
  H   H1        1.0  0.37603  0.59179  0.29070  1.0000
  H   H2        1.0  0.97287  0.92600  0.60533  1.0000
  H   H3        1.0  0.78391  0.65977  0.52023  1.0000
  H   H4        1.0  0.55951  0.84671  0.38214  1.0000
  H   H5        1.0  0.18769  0.12423  0.99438  1.0000
  H   H6        1.0  0.12438  0.11710  0.12442  1.0000
  H   H7        1.0  0.22149  0.39831  0.78453  1.0000
  H   H8        1.0  0.15461  0.38655  0.91271  1.0000
  H   H9        1.0  0.31927  0.78937  0.91976  1.0000
  H   H10       1.0  0.38774  0.96647  0.90615  1.0000
  H   H11       1.0  0.18490  0.91428  0.89281  1.0000
  H   H12       1.0  0.20240  0.36021  0.38393  1.0000
  H   H13       1.0  0.05419  0.27311  0.23279  1.0000
  H   H14       1.0  0.07974  0.45797  0.25938  1.0000
  H   H15       1.0  0.02342  0.72729  0.98244  1.0000
  H   H16       1.0  0.16867  0.61248  0.00796  1.0000
  H   H17       1.0  0.97254  0.54801  0.00319  1.0000
  H   H18       1.0  0.33334  0.15392  0.71190  1.0000
  H   H19       1.0  0.21222  0.25319  0.58654  1.0000
  H   H20       1.0  0.18803  0.06854  0.55840  1.0000
  H   H21       1.0  0.42475  0.54638  0.65868  1.0000
  H   H22       1.0  0.71274  0.25120  0.78439  1.0000
  H   H23       1.0  0.88937  0.26875  0.93486  1.0000
  H   H24       1.0  0.75273  0.10706  0.88658  1.0000
  H   H25       1.0  0.45471  0.29781  0.94000  1.0000
  H   H26       1.0  0.56975  0.21307  0.08129  1.0000
  H   H27       1.0  0.64038  0.38951  0.06068  1.0000
  H   H28       1.0  0.34769  0.04335  0.44916  1.0000
  H   H29       1.0  0.43921  0.19770  0.40441  1.0000
  H   H30       1.0  0.56329  0.07748  0.50174  1.0000
  H   H31       1.0  0.82090  0.46480  0.39921  1.0000
  H   H32       1.0  0.82519  0.30678  0.48109  1.0000
  H   H33       1.0  0.00987  0.40403  0.48725  1.0000
  H   H34       1.0  0.87318  0.07189  0.14272  1.0000
  H   H35       1.0  0.95586  0.08438  0.32021  1.0000
  H   H36       1.0  0.74119  0.03182  0.22644  1.0000
  H   H37       1.0  0.23958  0.65942  0.73109  1.0000
  H   H38       1.0  0.17161  0.66054  0.55558  1.0000
  H   H39       1.0  0.27861  0.81489  0.65677  1.0000
  H   H40       1.0  0.01440  0.86830  0.23470  1.0000
  C   C1        1.0  0.74605  0.80191  0.99475  1.0000
  C   C2        1.0  0.59610  0.70888  0.89784  1.0000
  C   C3        1.0  0.23435  0.13859  0.10289  1.0000
  C   C4        1.0  0.99864  0.47846  0.74438  1.0000
  C   C5        1.0  0.88332  0.81122  0.35655  1.0000
  C   C6        1.0  0.45858  0.70611  0.53563  1.0000
  C   C7        1.0  0.34343  0.03150  0.16174  1.0000
  C   C8        1.0  0.11023  0.37372  0.80424  1.0000
  C   C9        1.0  0.37072  0.92220  0.09113  1.0000
  C   C10       1.0  0.97409  0.59106  0.81282  1.0000
  C   C11       1.0  0.26836  0.38259  0.21790  1.0000
  C   C12       1.0  0.31158  0.28770  0.14661  1.0000
  C   C13       1.0  0.08099  0.13385  0.68521  1.0000
  C   C14       1.0  0.91032  0.49455  0.61008  1.0000
  C   C15       1.0  0.03548  0.22500  0.75784  1.0000
  C   C16       1.0  0.43020  0.01131  0.29548  1.0000
  C   C17       1.0  0.90521  0.14684  0.77990  1.0000
  C   C18       1.0  0.31224  0.89672  0.94502  1.0000
  C   C19       1.0  0.14423  0.36736  0.27604  1.0000
  C   C20       1.0  0.44018  0.36366  0.12033  1.0000
  C   C21       1.0  0.03805  0.62157  0.95903  1.0000
  C   C22       1.0  0.21049  0.15346  0.63263  1.0000
  C   C23       1.0  0.43212  0.66100  0.65932  1.0000
  C   C24       1.0  0.80930  0.19522  0.85026  1.0000
  C   C25       1.0  0.53171  0.31352  0.04695  1.0000
  C   C26       1.0  0.44641  0.08685  0.41925  1.0000
  C   C27       1.0  0.88991  0.41324  0.48789  1.0000
  C   C28       1.0  0.86366  0.02565  0.23005  1.0000
  C   C29       1.0  0.27012  0.70103  0.65088  1.0000
  C   C30       1.0  0.89101  0.87290  0.23116  1.0000
  N   N1        1.0  0.57203  0.72695  0.77459  1.0000
  N   N2        1.0  0.47169  0.49630  0.17220  1.0000
  N   N3        1.0  0.76648  0.78891  0.11781  1.0000
  N   N4        1.0  0.87474  0.01557  0.72468  1.0000
  N   N5        1.0  0.87899  0.67243  0.72609  1.0000
  N   N6        1.0  0.46585  0.83934  0.17577  1.0000
  N   N7        1.0  0.36629  0.50556  0.23007  1.0000
  N   N8        1.0  0.98251  0.01001  0.66830  1.0000
  N   N9        1.0  0.84025  0.61030  0.60469  1.0000
  N   N10       1.0  0.50257  0.89739  0.29829  1.0000
  O   O1        1.0  0.76508  0.71123  0.34214  1.0000
  O   O2        1.0  0.58750  0.79545  0.55217  1.0000
  O   O3        1.0  0.83567  0.88289  0.95126  1.0000
  O   O4        1.0  0.50694  0.62807  0.94189  1.0000
  O   O5        1.0  0.98900  0.86283  0.46652  1.0000
  O   O6        1.0  0.35333  0.65707  0.42466  1.0000
