data_image0
_chemical_formula_structural       Cu2H12C16S4N8Cl2
_chemical_formula_sum              "Cu2 H12 C16 S4 N8 Cl2"
_cell_length_a       6.56997
_cell_length_b       10.2535
_cell_length_c       10.2536
_cell_angle_alpha    107.247
_cell_angle_beta     106.126
_cell_angle_gamma    106.127

_space_group_name_H-M_alt    "P 1"
_space_group_IT_number       1

loop_
  _space_group_symop_operation_xyz
  'x, y, z'

loop_
  _atom_site_type_symbol
  _atom_site_label
  _atom_site_symmetry_multiplicity
  _atom_site_fract_x
  _atom_site_fract_y
  _atom_site_fract_z
  _atom_site_occupancy
  Cu  Cu1       1.0  0.00001  0.89744  0.10257  1.0000
  Cu  Cu2       1.0  0.00000  0.10257  0.89742  1.0000
  H   H1        1.0  0.47930  0.81690  0.95524  1.0000
  H   H2        1.0  0.52071  0.04478  0.18311  1.0000
  H   H3        1.0  0.52069  0.18304  0.04475  1.0000
  H   H4        1.0  0.47932  0.95523  0.81696  1.0000
  H   H5        1.0  0.16030  0.57781  0.75769  1.0000
  H   H6        1.0  0.83973  0.24232  0.42219  1.0000
  H   H7        1.0  0.83957  0.42218  0.24229  1.0000
  H   H8        1.0  0.16041  0.75772  0.57781  1.0000
  H   H9        1.0  0.26076  0.34933  0.68606  1.0000
  H   H10       1.0  0.73925  0.31393  0.65067  1.0000
  H   H11       1.0  0.73925  0.65071  0.31396  1.0000
  H   H12       1.0  0.26073  0.68605  0.34927  1.0000
  C   C1        1.0  0.50660  0.71425  0.91898  1.0000
  C   C2        1.0  0.49341  0.08104  0.28576  1.0000
  C   C3        1.0  0.49340  0.28572  0.08101  1.0000
  C   C4        1.0  0.50659  0.91897  0.71427  1.0000
  C   C5        1.0  0.33185  0.58169  0.80943  1.0000
  C   C6        1.0  0.66818  0.19058  0.41831  1.0000
  C   C7        1.0  0.66806  0.41830  0.19054  1.0000
  C   C8        1.0  0.33192  0.80946  0.58170  1.0000
  C   C9        1.0  0.38610  0.45729  0.77209  1.0000
  C   C10       1.0  0.61391  0.22791  0.54272  1.0000
  C   C11       1.0  0.61393  0.54276  0.22794  1.0000
  C   C12       1.0  0.38605  0.77207  0.45723  1.0000
  C   C13       1.0  0.75322  0.59277  0.94478  1.0000
  C   C14       1.0  0.24679  0.05523  0.40723  1.0000
  C   C15       1.0  0.24685  0.40723  0.05525  1.0000
  C   C16       1.0  0.75314  0.94475  0.59277  1.0000
  S   S1        1.0  0.03303  0.61810  0.04590  1.0000
  S   S2        1.0  0.96695  0.95410  0.38190  1.0000
  S   S3        1.0  0.96707  0.38190  0.95412  1.0000
  S   S4        1.0  0.03293  0.04587  0.61810  1.0000
  N   N1        1.0  0.71905  0.72120  0.98479  1.0000
  N   N2        1.0  0.28096  0.01524  0.27880  1.0000
  N   N3        1.0  0.28096  0.27877  0.01521  1.0000
  N   N4        1.0  0.71902  0.98477  0.72123  1.0000
  N   N5        1.0  0.59638  0.46178  0.84061  1.0000
  N   N6        1.0  0.40363  0.15938  0.53821  1.0000
  N   N7        1.0  0.40363  0.53824  0.15940  1.0000
  N   N8        1.0  0.59635  0.84061  0.46175  1.0000
  Cl  Cl1       1.0  0.13582  0.90323  0.90323  1.0000
  Cl  Cl2       1.0  0.86418  0.09678  0.09677  1.0000
