data_image0
_chemical_formula_structural       Cu2H32C24S2N4O12
_chemical_formula_sum              "Cu2 H32 C24 S2 N4 O12"
_cell_length_a       7.1646
_cell_length_b       10.0744
_cell_length_c       10.0744
_cell_angle_alpha    76.2834
_cell_angle_beta     84.9194
_cell_angle_gamma    84.9197

_space_group_name_H-M_alt    "P 1"
_space_group_IT_number       1

loop_
  _space_group_symop_operation_xyz
  'x, y, z'

loop_
  _atom_site_type_symbol
  _atom_site_label
  _atom_site_symmetry_multiplicity
  _atom_site_fract_x
  _atom_site_fract_y
  _atom_site_fract_z
  _atom_site_occupancy
  Cu  Cu1       1.0  0.25000  0.78037  0.21963  1.0000
  Cu  Cu2       1.0  0.75000  0.21963  0.78037  1.0000
  H   H1        1.0  0.11513  0.93724  0.43628  1.0000
  H   H2        1.0  0.38487  0.56371  0.06276  1.0000
  H   H3        1.0  0.88487  0.06277  0.56371  1.0000
  H   H4        1.0  0.61514  0.43630  0.93723  1.0000
  H   H5        1.0  0.20085  0.45357  0.67780  1.0000
  H   H6        1.0  0.29916  0.32221  0.54643  1.0000
  H   H7        1.0  0.79915  0.54642  0.32221  1.0000
  H   H8        1.0  0.70084  0.67780  0.45358  1.0000
  H   H9        1.0  0.05607  0.87429  0.69210  1.0000
  H   H10       1.0  0.44393  0.30790  0.12571  1.0000
  H   H11       1.0  0.94392  0.12571  0.30789  1.0000
  H   H12       1.0  0.55607  0.69211  0.87428  1.0000
  H   H13       1.0  0.19498  0.65950  0.90711  1.0000
  H   H14       1.0  0.30502  0.09289  0.34050  1.0000
  H   H15       1.0  0.80502  0.34049  0.09289  1.0000
  H   H16       1.0  0.69498  0.90712  0.65950  1.0000
  H   H17       1.0  0.10307  0.50389  0.89308  1.0000
  H   H18       1.0  0.39692  0.10692  0.49612  1.0000
  H   H19       1.0  0.89693  0.49611  0.10691  1.0000
  H   H20       1.0  0.60307  0.89309  0.50388  1.0000
  H   H21       1.0  0.95418  0.65655  0.89220  1.0000
  H   H22       1.0  0.54582  0.10779  0.34346  1.0000
  H   H23       1.0  0.04582  0.34345  0.10779  1.0000
  H   H24       1.0  0.45418  0.89221  0.65654  1.0000
  H   H25       1.0  0.02473  0.98158  0.17404  1.0000
  H   H26       1.0  0.47527  0.82596  0.01842  1.0000
  H   H27       1.0  0.97527  0.01842  0.82596  1.0000
  H   H28       1.0  0.52473  0.17403  0.98158  1.0000
  H   H29       1.0  0.22416  0.04158  0.11202  1.0000
  H   H30       1.0  0.27584  0.88798  0.95841  1.0000
  H   H31       1.0  0.77584  0.95842  0.88798  1.0000
  H   H32       1.0  0.72416  0.11202  0.04159  1.0000
  C   C1        1.0  0.13304  0.83181  0.49467  1.0000
  C   C2        1.0  0.36696  0.50533  0.16818  1.0000
  C   C3        1.0  0.86697  0.16817  0.50534  1.0000
  C   C4        1.0  0.63304  0.49467  0.83183  1.0000
  C   C5        1.0  0.21721  0.60562  0.48572  1.0000
  C   C6        1.0  0.28280  0.51428  0.39437  1.0000
  C   C7        1.0  0.78280  0.39437  0.51429  1.0000
  C   C8        1.0  0.71721  0.48571  0.60563  1.0000
  C   C9        1.0  0.18393  0.56200  0.62731  1.0000
  C   C10       1.0  0.31608  0.37269  0.43801  1.0000
  C   C11       1.0  0.81607  0.43801  0.37269  1.0000
  C   C12       1.0  0.68393  0.62732  0.56198  1.0000
  C   C13       1.0  0.12530  0.65783  0.70552  1.0000
  C   C14       1.0  0.37471  0.29448  0.34216  1.0000
  C   C15       1.0  0.87471  0.34215  0.29448  1.0000
  C   C16       1.0  0.62529  0.70552  0.65785  1.0000
  C   C17       1.0  0.10027  0.79557  0.63599  1.0000
  C   C18       1.0  0.39973  0.36401  0.20444  1.0000
  C   C19       1.0  0.89972  0.20445  0.36400  1.0000
  C   C20       1.0  0.60028  0.63601  0.79554  1.0000
  C   C21       1.0  0.09248  0.61563  0.85767  1.0000
  C   C22       1.0  0.40751  0.14232  0.38437  1.0000
  C   C23       1.0  0.90751  0.38437  0.14232  1.0000
  C   C24       1.0  0.59249  0.85768  0.61562  1.0000
  S   S1        1.0  0.74999  0.84134  0.15866  1.0000
  S   S2        1.0  0.25000  0.15865  0.84134  1.0000
  N   N1        1.0  0.19090  0.73944  0.42112  1.0000
  N   N2        1.0  0.30909  0.57889  0.26057  1.0000
  N   N3        1.0  0.80909  0.26058  0.57889  1.0000
  N   N4        1.0  0.69092  0.42111  0.73942  1.0000
  O   O1        1.0  0.81049  0.98341  0.15443  1.0000
  O   O2        1.0  0.68950  0.84557  0.01660  1.0000
  O   O3        1.0  0.18951  0.01659  0.84557  1.0000
  O   O4        1.0  0.31049  0.15442  0.98341  1.0000
  O   O5        1.0  0.91157  0.74069  0.18982  1.0000
  O   O6        1.0  0.58841  0.81020  0.25932  1.0000
  O   O7        1.0  0.08842  0.25931  0.81019  1.0000
  O   O8        1.0  0.41159  0.18981  0.74069  1.0000
  O   O9        1.0  0.16246  0.97795  0.19391  1.0000
  O   O10       1.0  0.33753  0.80609  0.02205  1.0000
  O   O11       1.0  0.83754  0.02205  0.80610  1.0000
  O   O12       1.0  0.66246  0.19391  0.97795  1.0000
