data_image0
_chemical_formula_structural       ZnH12C12O8F4
_chemical_formula_sum              "Zn1 H12 C12 O8 F4"
_cell_length_a       5.08249
_cell_length_b       8.81537
_cell_length_c       9.36002
_cell_angle_alpha    116.2
_cell_angle_beta     95.6064
_cell_angle_gamma    93.7263

_space_group_name_H-M_alt    "P 1"
_space_group_IT_number       1

loop_
  _space_group_symop_operation_xyz
  'x, y, z'

loop_
  _atom_site_type_symbol
  _atom_site_label
  _atom_site_symmetry_multiplicity
  _atom_site_fract_x
  _atom_site_fract_y
  _atom_site_fract_z
  _atom_site_occupancy
  Zn  Zn1       1.0  0.00000  0.00000  0.50000  1.0000
  H   H1        1.0  0.60882  0.19880  0.36840  1.0000
  H   H2        1.0  0.39118  0.80119  0.63160  1.0000
  H   H3        1.0  0.61407  0.07142  0.15801  1.0000
  H   H4        1.0  0.38593  0.92858  0.84199  1.0000
  H   H5        1.0  0.10213  0.07829  0.20236  1.0000
  H   H6        1.0  0.89787  0.92171  0.79765  1.0000
  H   H7        1.0  0.01783  0.29165  0.28597  1.0000
  H   H8        1.0  0.98218  0.70835  0.71403  1.0000
  H   H9        1.0  0.52597  0.91750  0.31694  1.0000
  H   H10       1.0  0.47403  0.08250  0.68306  1.0000
  H   H11       1.0  0.08586  0.29805  0.54029  1.0000
  H   H12       1.0  0.91414  0.70195  0.45971  1.0000
  C   C1        1.0  0.19622  0.67252  0.26601  1.0000
  C   C2        1.0  0.80378  0.32748  0.73400  1.0000
  C   C3        1.0  0.34970  0.58271  0.12813  1.0000
  C   C4        1.0  0.65030  0.41729  0.87187  1.0000
  C   C5        1.0  0.48095  0.44378  0.11529  1.0000
  C   C6        1.0  0.51905  0.55622  0.88471  1.0000
  C   C7        1.0  0.62792  0.36348  0.99043  1.0000
  C   C8        1.0  0.37208  0.63652  0.00957  1.0000
  C   C9        1.0  0.71429  0.10409  0.27928  1.0000
  C   C10       1.0  0.28571  0.89591  0.72072  1.0000
  C   C11       1.0  0.00312  0.17210  0.29615  1.0000
  C   C12       1.0  0.99688  0.82790  0.70385  1.0000
  O   O1        1.0  0.24483  0.83595  0.33780  1.0000
  O   O2        1.0  0.75518  0.16405  0.66220  1.0000
  O   O3        1.0  0.03568  0.58397  0.30082  1.0000
  O   O4        1.0  0.96432  0.41603  0.69918  1.0000
  O   O5        1.0  0.71078  0.95315  0.30340  1.0000
  O   O6        1.0  0.28922  0.04685  0.69660  1.0000
  O   O7        1.0  0.14775  0.19821  0.44815  1.0000
  O   O8        1.0  0.85225  0.80179  0.55185  1.0000
  F   F1        1.0  0.47554  0.38870  0.22883  1.0000
  F   F2        1.0  0.52445  0.61130  0.77117  1.0000
  F   F3        1.0  0.75595  0.23214  0.98781  1.0000
  F   F4        1.0  0.24405  0.76786  0.01219  1.0000
