data_image0
_chemical_formula_structural       Cd4H12C20O20
_chemical_formula_sum              "Cd4 H12 C20 O20"
_cell_length_a       7.45142
_cell_length_b       9.52573
_cell_length_c       9.52574
_cell_angle_alpha    67.6283
_cell_angle_beta     71.6152
_cell_angle_gamma    71.6152

_space_group_name_H-M_alt    "P 1"
_space_group_IT_number       1

loop_
  _space_group_symop_operation_xyz
  'x, y, z'

loop_
  _atom_site_type_symbol
  _atom_site_label
  _atom_site_symmetry_multiplicity
  _atom_site_fract_x
  _atom_site_fract_y
  _atom_site_fract_z
  _atom_site_occupancy
  Cd  Cd1       1.0  0.54308  0.77325  0.60262  1.0000
  Cd  Cd2       1.0  0.95692  0.39739  0.22675  1.0000
  Cd  Cd3       1.0  0.45692  0.22675  0.39739  1.0000
  Cd  Cd4       1.0  0.04308  0.60261  0.77324  1.0000
  H   H1        1.0  0.76771  0.96873  0.18055  1.0000
  H   H2        1.0  0.73229  0.81945  0.03127  1.0000
  H   H3        1.0  0.23230  0.03127  0.81945  1.0000
  H   H4        1.0  0.26771  0.18055  0.96873  1.0000
  H   H5        1.0  0.90765  0.79893  0.44277  1.0000
  H   H6        1.0  0.59235  0.55723  0.20107  1.0000
  H   H7        1.0  0.09235  0.20107  0.55723  1.0000
  H   H8        1.0  0.40765  0.44277  0.79893  1.0000
  H   H9        1.0  0.88487  0.68285  0.37623  1.0000
  H   H10       1.0  0.61513  0.62376  0.31715  1.0000
  H   H11       1.0  0.11513  0.31715  0.62377  1.0000
  H   H12       1.0  0.38487  0.37623  0.68285  1.0000
  C   C1        1.0  0.76476  0.42391  0.75266  1.0000
  C   C2        1.0  0.73524  0.24734  0.57609  1.0000
  C   C3        1.0  0.23524  0.57609  0.24734  1.0000
  C   C4        1.0  0.26476  0.75266  0.42391  1.0000
  C   C5        1.0  0.76145  0.25379  0.83023  1.0000
  C   C6        1.0  0.73855  0.16977  0.74621  1.0000
  C   C7        1.0  0.23855  0.74621  0.16977  1.0000
  C   C8        1.0  0.26145  0.83023  0.25379  1.0000
  C   C9        1.0  0.77038  0.18184  0.98794  1.0000
  C   C10       1.0  0.72962  0.01206  0.81816  1.0000
  C   C11       1.0  0.22962  0.81816  0.01206  1.0000
  C   C12       1.0  0.27039  0.98794  0.18184  1.0000
  C   C13       1.0  0.75898  0.02539  0.05888  1.0000
  C   C14       1.0  0.74102  0.94111  0.97461  1.0000
  C   C15       1.0  0.24102  0.97461  0.94112  1.0000
  C   C16       1.0  0.25898  0.05889  0.02538  1.0000
  C   C17       1.0  0.80454  0.26354  0.08066  1.0000
  C   C18       1.0  0.69546  0.91934  0.73646  1.0000
  C   C19       1.0  0.19546  0.73646  0.91934  1.0000
  C   C20       1.0  0.30454  0.08066  0.26354  1.0000
  O   O1        1.0  0.60001  0.51796  0.76605  1.0000
  O   O2        1.0  0.89999  0.23394  0.48204  1.0000
  O   O3        1.0  0.39998  0.48204  0.23395  1.0000
  O   O4        1.0  0.10001  0.76606  0.51797  1.0000
  O   O5        1.0  0.92460  0.46350  0.67710  1.0000
  O   O6        1.0  0.57540  0.32290  0.53650  1.0000
  O   O7        1.0  0.07540  0.53650  0.32290  1.0000
  O   O8        1.0  0.42460  0.67710  0.46350  1.0000
  O   O9        1.0  0.75775  0.21209  0.22939  1.0000
  O   O10       1.0  0.74225  0.77060  0.78791  1.0000
  O   O11       1.0  0.24225  0.78791  0.77060  1.0000
  O   O12       1.0  0.25775  0.22940  0.21208  1.0000
  O   O13       1.0  0.89151  0.37625  0.01172  1.0000
  O   O14       1.0  0.60849  0.98828  0.62375  1.0000
  O   O15       1.0  0.10849  0.62375  0.98828  1.0000
  O   O16       1.0  0.39151  0.01172  0.37625  1.0000
  O   O17       1.0  0.81031  0.77918  0.40454  1.0000
  O   O18       1.0  0.68969  0.59545  0.22082  1.0000
  O   O19       1.0  0.18969  0.22082  0.59546  1.0000
  O   O20       1.0  0.31031  0.40455  0.77918  1.0000
