data_image0
_chemical_formula_structural       Ag2P2H34C22S4N4O4
_chemical_formula_sum              "Ag2 P2 H34 C22 S4 N4 O4"
_cell_length_a       9.54623
_cell_length_b       9.71862
_cell_length_c       9.93499
_cell_angle_alpha    70.8969
_cell_angle_beta     89.471
_cell_angle_gamma    62.621

_space_group_name_H-M_alt    "P 1"
_space_group_IT_number       1

loop_
  _space_group_symop_operation_xyz
  'x, y, z'

loop_
  _atom_site_type_symbol
  _atom_site_label
  _atom_site_symmetry_multiplicity
  _atom_site_fract_x
  _atom_site_fract_y
  _atom_site_fract_z
  _atom_site_occupancy
  Ag  Ag1       1.0  0.02509  0.13390  0.90090  1.0000
  Ag  Ag2       1.0  0.97491  0.86610  0.09910  1.0000
  P   P1        1.0  0.89993  0.21471  0.18516  1.0000
  P   P2        1.0  0.10007  0.78529  0.81484  1.0000
  H   H1        1.0  0.83059  0.13110  0.47191  1.0000
  H   H2        1.0  0.16942  0.86890  0.52809  1.0000
  H   H3        1.0  0.84827  0.97217  0.40934  1.0000
  H   H4        1.0  0.15174  0.02783  0.59066  1.0000
  H   H5        1.0  0.62220  0.05419  0.55270  1.0000
  H   H6        1.0  0.37781  0.94580  0.44730  1.0000
  H   H7        1.0  0.54826  0.09476  0.37306  1.0000
  H   H8        1.0  0.45174  0.90523  0.62694  1.0000
  H   H9        1.0  0.53043  0.26073  0.42569  1.0000
  H   H10       1.0  0.46958  0.73927  0.57431  1.0000
  H   H11       1.0  0.07951  0.39164  0.15774  1.0000
  H   H12       1.0  0.92050  0.60836  0.84226  1.0000
  H   H13       1.0  0.19616  0.18484  0.28480  1.0000
  H   H14       1.0  0.80384  0.81516  0.71520  1.0000
  H   H15       1.0  0.22872  0.38381  0.37003  1.0000
  H   H16       1.0  0.77128  0.61620  0.62997  1.0000
  H   H17       1.0  0.12792  0.29426  0.48936  1.0000
  H   H18       1.0  0.87208  0.70574  0.51064  1.0000
  H   H19       1.0  0.01860  0.50100  0.35921  1.0000
  H   H20       1.0  0.98140  0.49900  0.64080  1.0000
  H   H21       1.0  0.19505  0.38686  0.88632  1.0000
  H   H22       1.0  0.80494  0.61314  0.11368  1.0000
  H   H23       1.0  0.39466  0.91950  0.84145  1.0000
  H   H24       1.0  0.60535  0.08050  0.15855  1.0000
  H   H25       1.0  0.61530  0.03892  0.79432  1.0000
  H   H26       1.0  0.38470  0.96108  0.20568  1.0000
  H   H27       1.0  0.61120  0.28915  0.86991  1.0000
  H   H28       1.0  0.38879  0.71085  0.13008  1.0000
  H   H29       1.0  0.41621  0.45513  0.84810  1.0000
  H   H30       1.0  0.58378  0.54487  0.15190  1.0000
  H   H31       1.0  0.24452  0.52138  0.57659  1.0000
  H   H32       1.0  0.75547  0.47862  0.42341  1.0000
  H   H33       1.0  0.74507  0.35958  0.68248  1.0000
  H   H34       1.0  0.25492  0.64042  0.31752  1.0000
  C   C1        1.0  0.76998  0.10120  0.40140  1.0000
  C   C2        1.0  0.23002  0.89880  0.59860  1.0000
  C   C3        1.0  0.60752  0.13024  0.43895  1.0000
  C   C4        1.0  0.39248  0.86975  0.56105  1.0000
  C   C5        1.0  0.09424  0.30794  0.26912  1.0000
  C   C6        1.0  0.90576  0.69207  0.73088  1.0000
  C   C7        1.0  0.11787  0.37570  0.37871  1.0000
  C   C8        1.0  0.88213  0.62430  0.62129  1.0000
  C   C9        1.0  0.27536  0.27569  0.86559  1.0000
  C   C10       1.0  0.72463  0.72430  0.13441  1.0000
  C   C11       1.0  0.38479  0.03545  0.84069  1.0000
  C   C12       1.0  0.61521  0.96454  0.15931  1.0000
  C   C13       1.0  0.49394  0.09236  0.81626  1.0000
  C   C14       1.0  0.50606  0.90764  0.18374  1.0000
  C   C15       1.0  0.49026  0.35728  0.80638  1.0000
  C   C16       1.0  0.50973  0.64273  0.19361  1.0000
  C   C17       1.0  0.49472  0.43087  0.64772  1.0000
  C   C18       1.0  0.50527  0.56913  0.35228  1.0000
  C   C19       1.0  0.35722  0.51074  0.54356  1.0000
  C   C20       1.0  0.64277  0.48926  0.45644  1.0000
  C   C21       1.0  0.63711  0.42117  0.60229  1.0000
  C   C22       1.0  0.36288  0.57883  0.39771  1.0000
  S   S1        1.0  0.82257  0.37272  0.98203  1.0000
  S   S2        1.0  0.17744  0.62728  0.01796  1.0000
  S   S3        1.0  0.08476  0.98517  0.22389  1.0000
  S   S4        1.0  0.91524  0.01484  0.77611  1.0000
  N   N1        1.0  0.24874  0.15104  0.87091  1.0000
  N   N2        1.0  0.75126  0.84896  0.12909  1.0000
  N   N3        1.0  0.42287  0.24454  0.83254  1.0000
  N   N4        1.0  0.57713  0.75546  0.16747  1.0000
  O   O1        1.0  0.74750  0.20976  0.25112  1.0000
  O   O2        1.0  0.25250  0.79024  0.74888  1.0000
  O   O3        1.0  0.95100  0.29071  0.28673  1.0000
  O   O4        1.0  0.04900  0.70929  0.71327  1.0000
