data_image0
_chemical_formula_structural       Co2H36C28N8O8
_chemical_formula_sum              "Co2 H36 C28 N8 O8"
_cell_length_a       9.19083
_cell_length_b       9.1908
_cell_length_c       9.13173
_cell_angle_alpha    97.3514
_cell_angle_beta     97.3514
_cell_angle_gamma    95.179

_space_group_name_H-M_alt    "P 1"
_space_group_IT_number       1

loop_
  _space_group_symop_operation_xyz
  'x, y, z'

loop_
  _atom_site_type_symbol
  _atom_site_label
  _atom_site_symmetry_multiplicity
  _atom_site_fract_x
  _atom_site_fract_y
  _atom_site_fract_z
  _atom_site_occupancy
  Co  Co1       1.0  0.10913  0.89087  0.25000  1.0000
  Co  Co2       1.0  0.89087  0.10913  0.75000  1.0000
  H   H1        1.0  0.27589  0.77083  0.97630  1.0000
  H   H2        1.0  0.22918  0.72411  0.52371  1.0000
  H   H3        1.0  0.72411  0.22917  0.02370  1.0000
  H   H4        1.0  0.77083  0.27588  0.47629  1.0000
  H   H5        1.0  0.42125  0.00938  0.40315  1.0000
  H   H6        1.0  0.99063  0.57875  0.09686  1.0000
  H   H7        1.0  0.57875  0.99062  0.59685  1.0000
  H   H8        1.0  0.00937  0.42125  0.90314  1.0000
  H   H9        1.0  0.66796  0.95412  0.26225  1.0000
  H   H10       1.0  0.04589  0.33205  0.23776  1.0000
  H   H11       1.0  0.33204  0.04589  0.73775  1.0000
  H   H12       1.0  0.95411  0.66795  0.76224  1.0000
  H   H13       1.0  0.67171  0.87759  0.96097  1.0000
  H   H14       1.0  0.12241  0.32829  0.53903  1.0000
  H   H15       1.0  0.32828  0.12241  0.03903  1.0000
  H   H16       1.0  0.87759  0.67171  0.46096  1.0000
  H   H17       1.0  0.51654  0.75784  0.87038  1.0000
  H   H18       1.0  0.24217  0.48345  0.62962  1.0000
  H   H19       1.0  0.48346  0.24216  0.12962  1.0000
  H   H20       1.0  0.75784  0.51654  0.37038  1.0000
  H   H21       1.0  0.74505  0.70271  0.12862  1.0000
  H   H22       1.0  0.29729  0.25495  0.37137  1.0000
  H   H23       1.0  0.25495  0.29730  0.87138  1.0000
  H   H24       1.0  0.70270  0.74504  0.62861  1.0000
  H   H25       1.0  0.72670  0.61725  0.94259  1.0000
  H   H26       1.0  0.38275  0.27329  0.55740  1.0000
  H   H27       1.0  0.27329  0.38275  0.05741  1.0000
  H   H28       1.0  0.61725  0.72670  0.44258  1.0000
  H   H29       1.0  0.62048  0.45569  0.11400  1.0000
  H   H30       1.0  0.54431  0.37951  0.38601  1.0000
  H   H31       1.0  0.37952  0.54431  0.88601  1.0000
  H   H32       1.0  0.45569  0.62047  0.61399  1.0000
  H   H33       1.0  0.49507  0.58314  0.15556  1.0000
  H   H34       1.0  0.41687  0.50492  0.34444  1.0000
  H   H35       1.0  0.50493  0.41687  0.84444  1.0000
  H   H36       1.0  0.58313  0.49507  0.65556  1.0000
  C   C1        1.0  0.34783  0.82874  0.07344  1.0000
  C   C2        1.0  0.17127  0.65217  0.42656  1.0000
  C   C3        1.0  0.65217  0.17127  0.92656  1.0000
  C   C4        1.0  0.82873  0.34783  0.57343  1.0000
  C   C5        1.0  0.42922  0.95201  0.29381  1.0000
  C   C6        1.0  0.04799  0.57079  0.20620  1.0000
  C   C7        1.0  0.57078  0.04799  0.70620  1.0000
  C   C8        1.0  0.95201  0.42922  0.79380  1.0000
  C   C9        1.0  0.55065  0.92833  0.22380  1.0000
  C   C10       1.0  0.07168  0.44936  0.27621  1.0000
  C   C11       1.0  0.44936  0.07167  0.77620  1.0000
  C   C12       1.0  0.92832  0.55064  0.72379  1.0000
  C   C13       1.0  0.58864  0.78996  0.97719  1.0000
  C   C14       1.0  0.21004  0.41135  0.52281  1.0000
  C   C15       1.0  0.41135  0.21004  0.02281  1.0000
  C   C16       1.0  0.78996  0.58864  0.47719  1.0000
  C   C17       1.0  0.66339  0.66019  0.03006  1.0000
  C   C18       1.0  0.33981  0.33660  0.46994  1.0000
  C   C19       1.0  0.33660  0.33981  0.96994  1.0000
  C   C20       1.0  0.66018  0.66339  0.53005  1.0000
  C   C21       1.0  0.55555  0.53785  0.06648  1.0000
  C   C22       1.0  0.46215  0.44444  0.43352  1.0000
  C   C23       1.0  0.44445  0.46215  0.93353  1.0000
  C   C24       1.0  0.53785  0.55554  0.56647  1.0000
  C   C25       1.0  0.97696  0.92326  0.95370  1.0000
  C   C26       1.0  0.07672  0.02305  0.54630  1.0000
  C   C27       1.0  0.02304  0.07673  0.04629  1.0000
  C   C28       1.0  0.92327  0.97696  0.45370  1.0000
  N   N1        1.0  0.30352  0.88924  0.19894  1.0000
  N   N2        1.0  0.11077  0.69649  0.30108  1.0000
  N   N3        1.0  0.69648  0.11077  0.80107  1.0000
  N   N4        1.0  0.88924  0.30352  0.69893  1.0000
  N   N5        1.0  0.49747  0.85137  0.08467  1.0000
  N   N6        1.0  0.14864  0.50253  0.41533  1.0000
  N   N7        1.0  0.50253  0.14863  0.91533  1.0000
  N   N8        1.0  0.85136  0.49747  0.58467  1.0000
  O   O1        1.0  0.00787  0.81162  0.01353  1.0000
  O   O2        1.0  0.18838  0.99214  0.48647  1.0000
  O   O3        1.0  0.99214  0.18838  0.98647  1.0000
  O   O4        1.0  0.81162  0.00786  0.51353  1.0000
  O   O5        1.0  0.90931  0.91858  0.82101  1.0000
  O   O6        1.0  0.08142  0.09069  0.67899  1.0000
  O   O7        1.0  0.09069  0.08142  0.17899  1.0000
  O   O8        1.0  0.91858  0.90931  0.32101  1.0000
