data_image0
_chemical_formula_structural       Zn2H34C40Br2N4O10
_chemical_formula_sum              "Zn2 H34 C40 Br2 N4 O10"
_cell_length_a       7.95578
_cell_length_b       9.35632
_cell_length_c       14.5026
_cell_angle_alpha    107.211
_cell_angle_beta     90.5869
_cell_angle_gamma    111.803

_space_group_name_H-M_alt    "P 1"
_space_group_IT_number       1

loop_
  _space_group_symop_operation_xyz
  'x, y, z'

loop_
  _atom_site_type_symbol
  _atom_site_label
  _atom_site_symmetry_multiplicity
  _atom_site_fract_x
  _atom_site_fract_y
  _atom_site_fract_z
  _atom_site_occupancy
  Zn  Zn1       1.0  0.08126  0.32033  0.47280  1.0000
  Zn  Zn2       1.0  0.91873  0.67967  0.52720  1.0000
  H   H1        1.0  0.25794  0.20985  0.33598  1.0000
  H   H2        1.0  0.74206  0.79015  0.66402  1.0000
  H   H3        1.0  0.37456  0.26297  0.44088  1.0000
  H   H4        1.0  0.62543  0.73703  0.55912  1.0000
  H   H5        1.0  0.60120  0.90034  0.47093  1.0000
  H   H6        1.0  0.39879  0.09965  0.52907  1.0000
  H   H7        1.0  0.51657  0.94207  0.18932  1.0000
  H   H8        1.0  0.48343  0.05793  0.81067  1.0000
  H   H9        1.0  0.12660  0.54638  0.26859  1.0000
  H   H10       1.0  0.87340  0.45361  0.73140  1.0000
  H   H11       1.0  0.94253  0.09319  0.58098  1.0000
  H   H12       1.0  0.05746  0.90680  0.41903  1.0000
  H   H13       1.0  0.00790  0.07150  0.74140  1.0000
  H   H14       1.0  0.99209  0.92851  0.25861  1.0000
  H   H15       1.0  0.42940  0.55566  0.81831  1.0000
  H   H16       1.0  0.57060  0.44434  0.18169  1.0000
  H   H17       1.0  0.34340  0.55957  0.65238  1.0000
  H   H18       1.0  0.65660  0.44043  0.34761  1.0000
  H   H19       1.0  0.25850  0.41498  0.94923  1.0000
  H   H20       1.0  0.74150  0.58502  0.05077  1.0000
  H   H21       1.0  0.42546  0.34159  0.90587  1.0000
  H   H22       1.0  0.57454  0.65841  0.09413  1.0000
  H   H23       1.0  0.02425  0.11985  0.89654  1.0000
  H   H24       1.0  0.97575  0.88015  0.10346  1.0000
  H   H25       1.0  0.20660  0.05592  0.87020  1.0000
  H   H26       1.0  0.79340  0.94408  0.12980  1.0000
  H   H27       1.0  0.03492  0.27208  0.23674  1.0000
  H   H28       1.0  0.96510  0.72793  0.76327  1.0000
  H   H29       1.0  0.98406  0.25248  0.06219  1.0000
  H   H30       1.0  0.01596  0.74754  0.93782  1.0000
  H   H31       1.0  0.43568  0.10250  0.01262  1.0000
  H   H32       1.0  0.56432  0.89750  0.98738  1.0000
  H   H33       1.0  0.47723  0.14054  0.19121  1.0000
  H   H34       1.0  0.52277  0.85946  0.80879  1.0000
  C   C1        1.0  0.35831  0.71301  0.37659  1.0000
  C   C2        1.0  0.64169  0.28698  0.62340  1.0000
  C   C3        1.0  0.51773  0.85516  0.40053  1.0000
  C   C4        1.0  0.48227  0.14483  0.59947  1.0000
  C   C5        1.0  0.57139  0.93998  0.33384  1.0000
  C   C6        1.0  0.42861  0.06002  0.66616  1.0000
  C   C7        1.0  0.46864  0.87857  0.24170  1.0000
  C   C8        1.0  0.53136  0.12143  0.75830  1.0000
  C   C9        1.0  0.31156  0.73748  0.21896  1.0000
  C   C10       1.0  0.68845  0.26252  0.78104  1.0000
  C   C11       1.0  0.25183  0.65497  0.28545  1.0000
  C   C12       1.0  0.74817  0.34502  0.71455  1.0000
  C   C13       1.0  0.30130  0.61499  0.44487  1.0000
  C   C14       1.0  0.69869  0.38501  0.55513  1.0000
  C   C15       1.0  0.74166  0.09393  0.35474  1.0000
  C   C16       1.0  0.25834  0.90607  0.64526  1.0000
  C   C17       1.0  0.04940  0.19371  0.63561  1.0000
  C   C18       1.0  0.95060  0.80628  0.36439  1.0000
  C   C19       1.0  0.08748  0.18307  0.72650  1.0000
  C   C20       1.0  0.91252  0.81693  0.27350  1.0000
  C   C21       1.0  0.22621  0.31325  0.79509  1.0000
  C   C22       1.0  0.77379  0.68676  0.20491  1.0000
  C   C23       1.0  0.31978  0.45090  0.76778  1.0000
  C   C24       1.0  0.68022  0.54910  0.23222  1.0000
  C   C25       1.0  0.27434  0.45468  0.67627  1.0000
  C   C26       1.0  0.72566  0.54531  0.32373  1.0000
  C   C27       1.0  0.27772  0.31299  0.89518  1.0000
  C   C28       1.0  0.72228  0.68702  0.10482  1.0000
  C   C29       1.0  0.17115  0.15466  0.91618  1.0000
  C   C30       1.0  0.82885  0.84534  0.08382  1.0000
  C   C31       1.0  0.12414  0.23943  0.18511  1.0000
  C   C32       1.0  0.87588  0.76058  0.81489  1.0000
  C   C33       1.0  0.09510  0.22595  0.08761  1.0000
  C   C34       1.0  0.90491  0.77406  0.91240  1.0000
  C   C35       1.0  0.20427  0.17334  0.02194  1.0000
  C   C36       1.0  0.79574  0.82667  0.97806  1.0000
  C   C37       1.0  0.34420  0.14141  0.05988  1.0000
  C   C38       1.0  0.65580  0.85859  0.94012  1.0000
  C   C39       1.0  0.36653  0.16018  0.15881  1.0000
  C   C40       1.0  0.63347  0.83982  0.84119  1.0000
  Br  Br1       1.0  0.17798  0.65382  0.09081  1.0000
  Br  Br2       1.0  0.82202  0.34618  0.90919  1.0000
  N   N1        1.0  0.14111  0.32692  0.61056  1.0000
  N   N2        1.0  0.85888  0.67307  0.38944  1.0000
  N   N3        1.0  0.25732  0.20622  0.22047  1.0000
  N   N4        1.0  0.74269  0.79378  0.77953  1.0000
  O   O1        1.0  0.13704  0.50325  0.42206  1.0000
  O   O2        1.0  0.86296  0.49675  0.57794  1.0000
  O   O3        1.0  0.40991  0.63952  0.51649  1.0000
  O   O4        1.0  0.59008  0.36048  0.48352  1.0000
  O   O5        1.0  0.83912  0.13919  0.43812  1.0000
  O   O6        1.0  0.16088  0.86081  0.56188  1.0000
  O   O7        1.0  0.77811  0.16406  0.29186  1.0000
  O   O8        1.0  0.22189  0.83593  0.70814  1.0000
  O   O9        1.0  0.24616  0.20882  0.40581  1.0000
  O   O10       1.0  0.75384  0.79117  0.59419  1.0000
