data_image0
_chemical_formula_structural       CdH40C34S2N14O2
_chemical_formula_sum              "Cd1 H40 C34 S2 N14 O2"
_cell_length_a       9.34101
_cell_length_b       9.45212
_cell_length_c       11.2727
_cell_angle_alpha    109.428
_cell_angle_beta     96.6113
_cell_angle_gamma    91.9293

_space_group_name_H-M_alt    "P 1"
_space_group_IT_number       1

loop_
  _space_group_symop_operation_xyz
  'x, y, z'

loop_
  _atom_site_type_symbol
  _atom_site_label
  _atom_site_symmetry_multiplicity
  _atom_site_fract_x
  _atom_site_fract_y
  _atom_site_fract_z
  _atom_site_occupancy
  Cd  Cd1       1.0  0.50000  0.50000  0.50000  1.0000
  H   H1        1.0  0.65144  0.06220  0.98930  1.0000
  H   H2        1.0  0.34856  0.93779  0.01070  1.0000
  H   H3        1.0  0.83482  0.38164  0.38126  1.0000
  H   H4        1.0  0.16518  0.61836  0.61873  1.0000
  H   H5        1.0  0.41292  0.22048  0.19886  1.0000
  H   H6        1.0  0.58708  0.77951  0.80114  1.0000
  H   H7        1.0  0.85894  0.01686  0.13223  1.0000
  H   H8        1.0  0.14106  0.98314  0.86777  1.0000
  H   H9        1.0  0.96946  0.17899  0.23055  1.0000
  H   H10       1.0  0.03054  0.82101  0.76945  1.0000
  H   H11       1.0  0.03181  0.22381  0.73577  1.0000
  H   H12       1.0  0.96819  0.77619  0.26423  1.0000
  H   H13       1.0  0.10870  0.29966  0.13693  1.0000
  H   H14       1.0  0.89130  0.70034  0.86307  1.0000
  H   H15       1.0  0.84838  0.03282  0.60883  1.0000
  H   H16       1.0  0.15162  0.96718  0.39117  1.0000
  H   H17       1.0  0.72172  0.95135  0.67798  1.0000
  H   H18       1.0  0.27828  0.04865  0.32202  1.0000
  H   H19       1.0  0.45528  0.29860  0.92530  1.0000
  H   H20       1.0  0.54472  0.70140  0.07470  1.0000
  H   H21       1.0  0.32144  0.16352  0.82074  1.0000
  H   H22       1.0  0.67856  0.83648  0.17925  1.0000
  H   H23       1.0  0.35163  0.18130  0.98334  1.0000
  H   H24       1.0  0.64836  0.81870  0.01666  1.0000
  H   H25       1.0  0.14786  0.53013  0.87090  1.0000
  H   H26       1.0  0.85214  0.46988  0.12910  1.0000
  H   H27       1.0  0.20453  0.37257  0.75352  1.0000
  H   H28       1.0  0.79547  0.62744  0.24648  1.0000
  H   H29       1.0  0.33536  0.50732  0.86248  1.0000
  H   H30       1.0  0.66464  0.49268  0.13752  1.0000
  H   H31       1.0  0.29541  0.42498  0.15471  1.0000
  H   H32       1.0  0.70459  0.57502  0.84529  1.0000
  H   H33       1.0  0.19617  0.55853  0.10672  1.0000
  H   H34       1.0  0.80383  0.44147  0.89328  1.0000
  H   H35       1.0  0.38059  0.53991  0.08391  1.0000
  H   H36       1.0  0.61941  0.46009  0.91609  1.0000
  H   H37       1.0  0.78073  0.32693  0.61643  1.0000
  H   H38       1.0  0.21927  0.67307  0.38357  1.0000
  H   H39       1.0  0.33825  0.21131  0.59820  1.0000
  H   H40       1.0  0.66175  0.78869  0.40181  1.0000
  C   C1        1.0  0.74209  0.32111  0.31421  1.0000
  C   C2        1.0  0.25791  0.67889  0.68579  1.0000
  C   C3        1.0  0.52965  0.23744  0.21884  1.0000
  C   C4        1.0  0.47036  0.76256  0.78116  1.0000
  C   C5        1.0  0.87874  0.13873  0.15387  1.0000
  C   C6        1.0  0.12126  0.86127  0.84613  1.0000
  C   C7        1.0  0.91255  0.17202  0.03786  1.0000
  C   C8        1.0  0.08745  0.82798  0.96214  1.0000
  C   C9        1.0  0.82217  0.11209  0.92091  1.0000
  C   C10       1.0  0.17783  0.88791  0.07909  1.0000
  C   C11       1.0  0.86772  0.13036  0.81172  1.0000
  C   C12       1.0  0.13227  0.86964  0.18828  1.0000
  C   C13       1.0  0.99862  0.21274  0.82228  1.0000
  C   C14       1.0  0.00138  0.78726  0.17772  1.0000
  C   C15       1.0  0.08760  0.27899  0.93847  1.0000
  C   C16       1.0  0.91240  0.72100  0.06153  1.0000
  C   C17       1.0  0.04164  0.25514  0.04471  1.0000
  C   C18       1.0  0.95836  0.74486  0.95529  1.0000
  C   C19       1.0  0.77820  0.05732  0.68383  1.0000
  C   C20       1.0  0.22179  0.94268  0.31617  1.0000
  C   C21       1.0  0.23396  0.36217  0.94746  1.0000
  C   C22       1.0  0.76604  0.63783  0.05254  1.0000
  C   C23       1.0  0.34684  0.24463  0.91745  1.0000
  C   C24       1.0  0.65316  0.75537  0.08255  1.0000
  C   C25       1.0  0.22941  0.44728  0.85261  1.0000
  C   C26       1.0  0.77059  0.55272  0.14739  1.0000
  C   C27       1.0  0.27836  0.47718  0.08110  1.0000
  C   C28       1.0  0.72164  0.52282  0.91890  1.0000
  C   C29       1.0  0.67835  0.27154  0.62007  1.0000
  C   C30       1.0  0.32165  0.72846  0.37993  1.0000
  C   C31       1.0  0.45514  0.21042  0.61230  1.0000
  C   C32       1.0  0.54486  0.78958  0.38770  1.0000
  C   C33       1.0  0.17152  0.33231  0.44716  1.0000
  C   C34       1.0  0.82849  0.66770  0.55285  1.0000
  S   S1        1.0  0.04377  0.26197  0.50178  1.0000
  S   S2        1.0  0.95622  0.73803  0.49821  1.0000
  N   N1        1.0  0.60250  0.34223  0.32473  1.0000
  N   N2        1.0  0.39750  0.65777  0.67526  1.0000
  N   N3        1.0  0.61690  0.15347  0.14370  1.0000
  N   N4        1.0  0.38310  0.84653  0.85630  1.0000
  N   N5        1.0  0.75155  0.20766  0.20636  1.0000
  N   N6        1.0  0.24845  0.79234  0.79364  1.0000
  N   N7        1.0  0.66433  0.14767  0.65278  1.0000
  N   N8        1.0  0.33567  0.85233  0.34723  1.0000
  N   N9        1.0  0.54706  0.31441  0.59387  1.0000
  N   N10       1.0  0.45295  0.68560  0.40613  1.0000
  N   N11       1.0  0.52211  0.10697  0.64847  1.0000
  N   N12       1.0  0.47788  0.89304  0.35154  1.0000
  N   N13       1.0  0.26637  0.38218  0.40679  1.0000
  N   N14       1.0  0.73363  0.61782  0.59321  1.0000
  O   O1        1.0  0.69392  0.03212  0.90732  1.0000
  O   O2        1.0  0.30608  0.96787  0.09267  1.0000
