data_image0
_chemical_formula_structural       Ag4H16C24N4O8
_chemical_formula_sum              "Ag4 H16 C24 N4 O8"
_cell_length_a       3.58454
_cell_length_b       7.78653
_cell_length_c       20.157
_cell_angle_alpha    90.0006
_cell_angle_beta     89.9988
_cell_angle_gamma    89.9999

_space_group_name_H-M_alt    "P 1"
_space_group_IT_number       1

loop_
  _space_group_symop_operation_xyz
  'x, y, z'

loop_
  _atom_site_type_symbol
  _atom_site_label
  _atom_site_symmetry_multiplicity
  _atom_site_fract_x
  _atom_site_fract_y
  _atom_site_fract_z
  _atom_site_occupancy
  Ag  Ag1       1.0  0.12571  0.81176  0.05115  1.0000
  Ag  Ag2       1.0  0.37425  0.18825  0.55115  1.0000
  Ag  Ag3       1.0  0.62573  0.68824  0.94885  1.0000
  Ag  Ag4       1.0  0.87427  0.31177  0.44885  1.0000
  H   H1        1.0  0.94897  0.31675  0.96399  1.0000
  H   H2        1.0  0.55102  0.68326  0.46399  1.0000
  H   H3        1.0  0.44895  0.18325  0.03600  1.0000
  H   H4        1.0  0.05104  0.81676  0.53601  1.0000
  H   H5        1.0  0.39769  0.10740  0.78370  1.0000
  H   H6        1.0  0.10231  0.89258  0.28370  1.0000
  H   H7        1.0  0.89767  0.39259  0.21630  1.0000
  H   H8        1.0  0.60234  0.60741  0.71630  1.0000
  H   H9        1.0  0.30751  0.39587  0.73070  1.0000
  H   H10       1.0  0.19250  0.60412  0.23070  1.0000
  H   H11       1.0  0.80750  0.10412  0.26930  1.0000
  H   H12       1.0  0.69251  0.89588  0.76930  1.0000
  H   H13       1.0  0.07177  0.63883  0.80257  1.0000
  H   H14       1.0  0.42827  0.36116  0.30258  1.0000
  H   H15       1.0  0.57173  0.86116  0.19742  1.0000
  H   H16       1.0  0.92823  0.13884  0.69743  1.0000
  C   C1        1.0  0.03702  0.33013  0.91263  1.0000
  C   C2        1.0  0.46299  0.66987  0.41263  1.0000
  C   C3        1.0  0.53697  0.16987  0.08737  1.0000
  C   C4        1.0  0.96301  0.83014  0.58737  1.0000
  C   C5        1.0  0.18513  0.18997  0.87809  1.0000
  C   C6        1.0  0.31488  0.81003  0.37808  1.0000
  C   C7        1.0  0.68509  0.31003  0.12192  1.0000
  C   C8        1.0  0.81489  0.68997  0.62192  1.0000
  C   C9        1.0  0.23740  0.02116  0.91332  1.0000
  C   C10       1.0  0.26262  0.97884  0.41332  1.0000
  C   C11       1.0  0.73734  0.47883  0.08667  1.0000
  C   C12       1.0  0.76264  0.52117  0.58668  1.0000
  C   C13       1.0  0.28485  0.21432  0.81186  1.0000
  C   C14       1.0  0.21517  0.78568  0.31186  1.0000
  C   C15       1.0  0.78483  0.28568  0.18813  1.0000
  C   C16       1.0  0.71517  0.71433  0.68814  1.0000
  C   C17       1.0  0.23678  0.37512  0.78281  1.0000
  C   C18       1.0  0.26323  0.62487  0.28281  1.0000
  C   C19       1.0  0.73674  0.12487  0.21719  1.0000
  C   C20       1.0  0.76323  0.87514  0.71720  1.0000
  C   C21       1.0  0.09950  0.50865  0.82185  1.0000
  C   C22       1.0  0.40054  0.49134  0.32186  1.0000
  C   C23       1.0  0.59945  0.99134  0.17814  1.0000
  C   C24       1.0  0.90052  0.00867  0.67814  1.0000
  N   N1        1.0  0.99757  0.48674  0.88559  1.0000
  N   N2        1.0  0.50243  0.51325  0.38559  1.0000
  N   N3        1.0  0.49755  0.01324  0.11441  1.0000
  N   N4        1.0  0.00243  0.98676  0.61441  1.0000
  O   O1        1.0  0.09754  0.01400  0.97118  1.0000
  O   O2        1.0  0.40245  0.98601  0.47118  1.0000
  O   O3        1.0  0.59754  0.48600  0.02882  1.0000
  O   O4        1.0  0.90247  0.51400  0.52882  1.0000
  O   O5        1.0  0.41784  0.90353  0.88332  1.0000
  O   O6        1.0  0.08218  0.09647  0.38332  1.0000
  O   O7        1.0  0.91781  0.59648  0.11668  1.0000
  O   O8        1.0  0.58217  0.40353  0.61668  1.0000
