data_image0
_chemical_formula_structural       Co2H30C40Br2N4O8
_chemical_formula_sum              "Co2 H30 C40 Br2 N4 O8"
_cell_length_a       9.4953
_cell_length_b       10.1445
_cell_length_c       11.222
_cell_angle_alpha    76.2618
_cell_angle_beta     80.7969
_cell_angle_gamma    67.8279

_space_group_name_H-M_alt    "P 1"
_space_group_IT_number       1

loop_
  _space_group_symop_operation_xyz
  'x, y, z'

loop_
  _atom_site_type_symbol
  _atom_site_label
  _atom_site_symmetry_multiplicity
  _atom_site_fract_x
  _atom_site_fract_y
  _atom_site_fract_z
  _atom_site_occupancy
  Co  Co1       1.0  0.95604  0.36754  0.38357  1.0000
  Co  Co2       1.0  0.04396  0.63245  0.61643  1.0000
  H   H1        1.0  0.92360  0.92275  0.42243  1.0000
  H   H2        1.0  0.07638  0.07727  0.57757  1.0000
  H   H3        1.0  0.81512  0.76089  0.14074  1.0000
  H   H4        1.0  0.18488  0.23910  0.85927  1.0000
  H   H5        1.0  0.81699  0.19804  0.06706  1.0000
  H   H6        1.0  0.18299  0.80196  0.93293  1.0000
  H   H7        1.0  0.81862  0.14134  0.52794  1.0000
  H   H8        1.0  0.18138  0.85864  0.47206  1.0000
  H   H9        1.0  0.61764  0.12129  0.69356  1.0000
  H   H10       1.0  0.38236  0.87870  0.30644  1.0000
  H   H11       1.0  0.50303  0.57473  0.69608  1.0000
  H   H12       1.0  0.49698  0.42526  0.30392  1.0000
  H   H13       1.0  0.70885  0.57705  0.52934  1.0000
  H   H14       1.0  0.29116  0.42293  0.47066  1.0000
  H   H15       1.0  0.42866  0.22505  0.84542  1.0000
  H   H16       1.0  0.57134  0.77495  0.15459  1.0000
  H   H17       1.0  0.31683  0.41004  0.79405  1.0000
  H   H18       1.0  0.68317  0.58996  0.20595  1.0000
  H   H19       1.0  0.47169  0.48639  0.90502  1.0000
  H   H20       1.0  0.52833  0.51362  0.09497  1.0000
  H   H21       1.0  0.58250  0.30268  0.95909  1.0000
  H   H22       1.0  0.41751  0.69732  0.04091  1.0000
  H   H23       1.0  0.98349  0.55062  0.13367  1.0000
  H   H24       1.0  0.01652  0.44937  0.86633  1.0000
  H   H25       1.0  0.17291  0.55946  0.95218  1.0000
  H   H26       1.0  0.82709  0.44054  0.04781  1.0000
  H   H27       1.0  0.49771  0.18333  0.15828  1.0000
  H   H28       1.0  0.50231  0.81670  0.84172  1.0000
  H   H29       1.0  0.29286  0.19030  0.33066  1.0000
  H   H30       1.0  0.70716  0.80971  0.66934  1.0000
  C   C1        1.0  0.87446  0.07141  0.24857  1.0000
  C   C2        1.0  0.12552  0.92859  0.75143  1.0000
  C   C3        1.0  0.89179  0.93913  0.32952  1.0000
  C   C4        1.0  0.10820  0.06088  0.67048  1.0000
  C   C5        1.0  0.86814  0.82783  0.29165  1.0000
  C   C6        1.0  0.13186  0.17217  0.70836  1.0000
  C   C7        1.0  0.83058  0.84813  0.17122  1.0000
  C   C8        1.0  0.16942  0.15186  0.82879  1.0000
  C   C9        1.0  0.81185  0.98101  0.09233  1.0000
  C   C10       1.0  0.18813  0.01898  0.90768  1.0000
  C   C11       1.0  0.83107  0.09448  0.12947  1.0000
  C   C12       1.0  0.16891  0.90553  0.87052  1.0000
  C   C13       1.0  0.90475  0.18680  0.29036  1.0000
  C   C14       1.0  0.09523  0.81322  0.70964  1.0000
  C   C15       1.0  0.88368  0.68695  0.37853  1.0000
  C   C16       1.0  0.11631  0.31305  0.62148  1.0000
  C   C17       1.0  0.74532  0.23621  0.56583  1.0000
  C   C18       1.0  0.25469  0.76378  0.43417  1.0000
  C   C19       1.0  0.63332  0.22539  0.65994  1.0000
  C   C20       1.0  0.36667  0.77460  0.34006  1.0000
  C   C21       1.0  0.54473  0.34576  0.71255  1.0000
  C   C22       1.0  0.45527  0.65424  0.28745  1.0000
  C   C23       1.0  0.57086  0.47554  0.66195  1.0000
  C   C24       1.0  0.42914  0.52445  0.33805  1.0000
  C   C25       1.0  0.68445  0.47821  0.56756  1.0000
  C   C26       1.0  0.31557  0.52177  0.43243  1.0000
  C   C27       1.0  0.43085  0.33578  0.82047  1.0000
  C   C28       1.0  0.56916  0.66422  0.17953  1.0000
  C   C29       1.0  0.46837  0.37606  0.93269  1.0000
  C   C30       1.0  0.53164  0.62394  0.06731  1.0000
  C   C31       1.0  0.09883  0.47129  0.13499  1.0000
  C   C32       1.0  0.90117  0.52870  0.86501  1.0000
  C   C33       1.0  0.20470  0.47587  0.03486  1.0000
  C   C34       1.0  0.79530  0.52413  0.96513  1.0000
  C   C35       1.0  0.35256  0.37210  0.04029  1.0000
  C   C36       1.0  0.64745  0.62791  0.95971  1.0000
  C   C37       1.0  0.38475  0.26726  0.14866  1.0000
  C   C38       1.0  0.61526  0.73276  0.85134  1.0000
  C   C39       1.0  0.27172  0.27031  0.24506  1.0000
  C   C40       1.0  0.72829  0.72970  0.75494  1.0000
  Br  Br1       1.0  0.76033  0.00493  0.92934  1.0000
  Br  Br2       1.0  0.23966  0.99505  0.07066  1.0000
  N   N1        1.0  0.77307  0.36037  0.51996  1.0000
  N   N2        1.0  0.22693  0.63962  0.48004  1.0000
  N   N3        1.0  0.13030  0.37084  0.23944  1.0000
  N   N4        1.0  0.86971  0.62916  0.76056  1.0000
  O   O1        1.0  0.83006  0.32063  0.25182  1.0000
  O   O2        1.0  0.16993  0.67939  0.74816  1.0000
  O   O3        1.0  0.00491  0.14752  0.36807  1.0000
  O   O4        1.0  0.99507  0.85250  0.63192  1.0000
  O   O5        1.0  0.90056  0.67777  0.49101  1.0000
  O   O6        1.0  0.09943  0.32226  0.50900  1.0000
  O   O7        1.0  0.87285  0.58578  0.33586  1.0000
  O   O8        1.0  0.12716  0.41421  0.66415  1.0000
