data_image0
_chemical_formula_structural       Cd2H22C28S4N16Cl2O2
_chemical_formula_sum              "Cd2 H22 C28 S4 N16 Cl2 O2"
_cell_length_a       5.65435
_cell_length_b       13.5678
_cell_length_c       12.946
_cell_angle_alpha    90.3516
_cell_angle_beta     86.9746
_cell_angle_gamma    95.7197

_space_group_name_H-M_alt    "P 1"
_space_group_IT_number       1

loop_
  _space_group_symop_operation_xyz
  'x, y, z'

loop_
  _atom_site_type_symbol
  _atom_site_label
  _atom_site_symmetry_multiplicity
  _atom_site_fract_x
  _atom_site_fract_y
  _atom_site_fract_z
  _atom_site_occupancy
  Cd  Cd1       1.0  0.01210  0.66749  0.79270  1.0000
  Cd  Cd2       1.0  0.98791  0.33252  0.20730  1.0000
  H   H1        1.0  0.46875  0.81114  0.48832  1.0000
  H   H2        1.0  0.53123  0.18885  0.51169  1.0000
  H   H3        1.0  0.41091  0.00584  0.23164  1.0000
  H   H4        1.0  0.58911  0.99415  0.76837  1.0000
  H   H5        1.0  0.81383  0.89983  0.16435  1.0000
  H   H6        1.0  0.18619  0.10018  0.83565  1.0000
  H   H7        1.0  0.03843  0.99939  0.15036  1.0000
  H   H8        1.0  0.96158  0.00061  0.84964  1.0000
  H   H9        1.0  0.49030  0.84797  0.88550  1.0000
  H   H10       1.0  0.50971  0.15204  0.11449  1.0000
  H   H11       1.0  0.79896  0.77231  0.01333  1.0000
  H   H12       1.0  0.20106  0.22770  0.98666  1.0000
  H   H13       1.0  0.13812  0.69275  0.53734  1.0000
  H   H14       1.0  0.86185  0.30725  0.46267  1.0000
  H   H15       1.0  0.87035  0.68569  0.46934  1.0000
  H   H16       1.0  0.12962  0.31430  0.53066  1.0000
  H   H17       1.0  0.82054  0.54879  0.32454  1.0000
  H   H18       1.0  0.17947  0.45120  0.67546  1.0000
  H   H19       1.0  0.45849  0.42463  0.37452  1.0000
  H   H20       1.0  0.54150  0.57537  0.62549  1.0000
  H   H21       1.0  0.73103  0.78157  0.25333  1.0000
  H   H22       1.0  0.26896  0.21843  0.74667  1.0000
  C   C1        1.0  0.13372  0.88536  0.24933  1.0000
  C   C2        1.0  0.86627  0.11465  0.75067  1.0000
  C   C3        1.0  0.04514  0.80269  0.30939  1.0000
  C   C4        1.0  0.95485  0.19732  0.69060  1.0000
  C   C5        1.0  0.16665  0.77552  0.39530  1.0000
  C   C6        1.0  0.83334  0.22449  0.60470  1.0000
  C   C7        1.0  0.37689  0.83089  0.42069  1.0000
  C   C8        1.0  0.62311  0.16910  0.57931  1.0000
  C   C9        1.0  0.46447  0.91332  0.36112  1.0000
  C   C10       1.0  0.53553  0.08668  0.63889  1.0000
  C   C11       1.0  0.34446  0.94011  0.27604  1.0000
  C   C12       1.0  0.65556  0.05988  0.72396  1.0000
  C   C13       1.0  0.00771  0.91845  0.15793  1.0000
  C   C14       1.0  0.99231  0.08155  0.84207  1.0000
  C   C15       1.0  0.33161  0.84620  0.93670  1.0000
  C   C16       1.0  0.66841  0.15380  0.06330  1.0000
  C   C17       1.0  0.97950  0.80680  0.99982  1.0000
  C   C18       1.0  0.02051  0.19320  0.00018  1.0000
  C   C19       1.0  0.06484  0.68855  0.46059  1.0000
  C   C20       1.0  0.93514  0.31144  0.53941  1.0000
  C   C21       1.0  0.99251  0.53431  0.35098  1.0000
  C   C22       1.0  0.00748  0.46569  0.64902  1.0000
  C   C23       1.0  0.31981  0.47454  0.37655  1.0000
  C   C24       1.0  0.68018  0.52546  0.62346  1.0000
  C   C25       1.0  0.54159  0.76368  0.68858  1.0000
  C   C26       1.0  0.45838  0.23631  0.31142  1.0000
  C   C27       1.0  0.47830  0.59433  0.89150  1.0000
  C   C28       1.0  0.52170  0.40567  0.10850  1.0000
  S   S1        1.0  0.22356  0.52683  0.89469  1.0000
  S   S2        1.0  0.77645  0.47316  0.10531  1.0000
  S   S3        1.0  0.81176  0.81799  0.68328  1.0000
  S   S4        1.0  0.18823  0.18201  0.31672  1.0000
  N   N1        1.0  0.09283  0.87461  0.06102  1.0000
  N   N2        1.0  0.90720  0.12539  0.93898  1.0000
  N   N3        1.0  0.31912  0.90044  0.02237  1.0000
  N   N4        1.0  0.68089  0.09957  0.97763  1.0000
  N   N5        1.0  0.12652  0.78764  0.91980  1.0000
  N   N6        1.0  0.87350  0.21236  0.08020  1.0000
  N   N7        1.0  0.12095  0.59428  0.41457  1.0000
  N   N8        1.0  0.87904  0.40572  0.58544  1.0000
  N   N9        1.0  0.33149  0.55776  0.43147  1.0000
  N   N10       1.0  0.66848  0.44224  0.56854  1.0000
  N   N11       1.0  0.11378  0.45719  0.32552  1.0000
  N   N12       1.0  0.88621  0.54281  0.67449  1.0000
  N   N13       1.0  0.66131  0.64544  0.89115  1.0000
  N   N14       1.0  0.33870  0.35457  0.10886  1.0000
  N   N15       1.0  0.34586  0.72268  0.68998  1.0000
  N   N16       1.0  0.65415  0.27732  0.31001  1.0000
  Cl  Cl1       1.0  0.71730  0.98649  0.39552  1.0000
  Cl  Cl2       1.0  0.28269  0.01351  0.60449  1.0000
  O   O1        1.0  0.84041  0.74423  0.28915  1.0000
  O   O2        1.0  0.15958  0.25577  0.71084  1.0000
