data_image0
_chemical_formula_structural       Cd2H28C30S4N16O2
_chemical_formula_sum              "Cd2 H28 C30 S4 N16 O2"
_cell_length_a       5.78186
_cell_length_b       13.2613
_cell_length_c       13.2419
_cell_angle_alpha    89.6978
_cell_angle_beta     92.6956
_cell_angle_gamma    99.8672

_space_group_name_H-M_alt    "P 1"
_space_group_IT_number       1

loop_
  _space_group_symop_operation_xyz
  'x, y, z'

loop_
  _atom_site_type_symbol
  _atom_site_label
  _atom_site_symmetry_multiplicity
  _atom_site_fract_x
  _atom_site_fract_y
  _atom_site_fract_z
  _atom_site_occupancy
  Cd  Cd1       1.0  0.50033  0.17685  0.30192  1.0000
  Cd  Cd2       1.0  0.49973  0.82315  0.69808  1.0000
  H   H1        1.0  0.67420  0.95902  0.19953  1.0000
  H   H2        1.0  0.32585  0.04097  0.80045  1.0000
  H   H3        1.0  0.64321  0.82654  0.04360  1.0000
  H   H4        1.0  0.35677  0.17343  0.95638  1.0000
  H   H5        1.0  0.37598  0.81052  0.96789  1.0000
  H   H6        1.0  0.62399  0.18947  0.03209  1.0000
  H   H7        1.0  0.02610  0.69432  0.02072  1.0000
  H   H8        1.0  0.97384  0.30569  0.97928  1.0000
  H   H9        1.0  0.71693  0.47845  0.17187  1.0000
  H   H10       1.0  0.28302  0.52156  0.82814  1.0000
  H   H11       1.0  0.84062  0.45554  0.05754  1.0000
  H   H12       1.0  0.15935  0.54447  0.94247  1.0000
  H   H13       1.0  0.68970  0.56006  0.06564  1.0000
  H   H14       1.0  0.31027  0.43995  0.93437  1.0000
  H   H15       1.0  0.71931  0.73767  0.48367  1.0000
  H   H16       1.0  0.28070  0.26232  0.51634  1.0000
  H   H17       1.0  0.72405  0.60650  0.33793  1.0000
  H   H18       1.0  0.27592  0.39351  0.66207  1.0000
  H   H19       1.0  0.51174  0.49269  0.34137  1.0000
  H   H20       1.0  0.48822  0.50732  0.65862  1.0000
  H   H21       1.0  0.10998  0.48741  0.26552  1.0000
  H   H22       1.0  0.88997  0.51260  0.73449  1.0000
  H   H23       1.0  0.06356  0.07521  0.10835  1.0000
  H   H24       1.0  0.93651  0.92480  0.89165  1.0000
  H   H25       1.0  0.06192  0.60804  0.59124  1.0000
  H   H26       1.0  0.93808  0.39197  0.40876  1.0000
  H   H27       1.0  0.83322  0.71133  0.21037  1.0000
  H   H28       1.0  0.16675  0.28865  0.78961  1.0000
  C   C1        1.0  0.51154  0.97169  0.16135  1.0000
  C   C2        1.0  0.48851  0.02831  0.83863  1.0000
  C   C3        1.0  0.45146  0.81715  0.04552  1.0000
  C   C4        1.0  0.54852  0.18284  0.95447  1.0000
  C   C5        1.0  0.35461  0.72538  0.10737  1.0000
  C   C6        1.0  0.64537  0.27462  0.89263  1.0000
  C   C7        1.0  0.12957  0.67025  0.08483  1.0000
  C   C8        1.0  0.87039  0.32976  0.91517  1.0000
  C   C9        1.0  0.03749  0.58312  0.14003  1.0000
  C   C10       1.0  0.96246  0.41689  0.85998  1.0000
  C   C11       1.0  0.80820  0.51687  0.10777  1.0000
  C   C12       1.0  0.19177  0.48315  0.89224  1.0000
  C   C13       1.0  0.54977  0.68960  0.49294  1.0000
  C   C14       1.0  0.45023  0.31039  0.50707  1.0000
  C   C15       1.0  0.53521  0.57654  0.33789  1.0000
  C   C16       1.0  0.46475  0.42347  0.66210  1.0000
  C   C17       1.0  0.40013  0.60954  0.24700  1.0000
  C   C18       1.0  0.59983  0.39046  0.75300  1.0000
  C   C19       1.0  0.49111  0.69464  0.18867  1.0000
  C   C20       1.0  0.50886  0.30536  0.81133  1.0000
  C   C21       1.0  0.17627  0.55497  0.22144  1.0000
  C   C22       1.0  0.82368  0.44504  0.77858  1.0000
  C   C23       1.0  0.01452  0.27746  0.19522  1.0000
  C   C24       1.0  0.98555  0.72255  0.80480  1.0000
  C   C25       1.0  0.96323  0.09476  0.39137  1.0000
  C   C26       1.0  0.03682  0.90521  0.60863  1.0000
  C   C27       1.0  0.19802  0.02740  0.11533  1.0000
  C   C28       1.0  0.80204  0.97261  0.88466  1.0000
  C   C29       1.0  0.21532  0.62338  0.54592  1.0000
  C   C30       1.0  0.78468  0.37662  0.45409  1.0000
  S   S1        1.0  0.28642  0.30849  0.16426  1.0000
  S   S2        1.0  0.71364  0.69152  0.83576  1.0000
  S   S3        1.0  0.69816  0.03600  0.41111  1.0000
  S   S4        1.0  0.30188  0.96399  0.58888  1.0000
  N   N1        1.0  0.19314  0.94514  0.05772  1.0000
  N   N2        1.0  0.80690  0.05487  0.94227  1.0000
  N   N3        1.0  0.23636  0.56867  0.46395  1.0000
  N   N4        1.0  0.76361  0.43134  0.53605  1.0000
  N   N5        1.0  0.39115  0.04648  0.18017  1.0000
  N   N6        1.0  0.60892  0.95352  0.81981  1.0000
  N   N7        1.0  0.39505  0.91138  0.08773  1.0000
  N   N8        1.0  0.60498  0.08862  0.91226  1.0000
  N   N9        1.0  0.40467  0.69820  0.56685  1.0000
  N   N10       1.0  0.59534  0.30179  0.43316  1.0000
  N   N11       1.0  0.45077  0.61201  0.43162  1.0000
  N   N12       1.0  0.54922  0.38799  0.56839  1.0000
  N   N13       1.0  0.81508  0.25604  0.21635  1.0000
  N   N14       1.0  0.18496  0.74396  0.78366  1.0000
  N   N15       1.0  0.15475  0.13966  0.37865  1.0000
  N   N16       1.0  0.84533  0.86031  0.62134  1.0000
  O   O1        1.0  0.70939  0.75333  0.21089  1.0000
  O   O2        1.0  0.29059  0.24667  0.78909  1.0000
