data_image0
_chemical_formula_structural       Zn2H24C32S2N4O10
_chemical_formula_sum              "Zn2 H24 C32 S2 N4 O10"
_cell_length_a       7.53758
_cell_length_b       9.88331
_cell_length_c       12.7131
_cell_angle_alpha    65.2051
_cell_angle_beta     83.6345
_cell_angle_gamma    70.2203

_space_group_name_H-M_alt    "P 1"
_space_group_IT_number       1

loop_
  _space_group_symop_operation_xyz
  'x, y, z'

loop_
  _atom_site_type_symbol
  _atom_site_label
  _atom_site_symmetry_multiplicity
  _atom_site_fract_x
  _atom_site_fract_y
  _atom_site_fract_z
  _atom_site_occupancy
  Zn  Zn1       1.0  0.55983  0.05353  0.79260  1.0000
  Zn  Zn2       1.0  0.44017  0.94646  0.20740  1.0000
  H   H1        1.0  0.85960  0.92792  0.90449  1.0000
  H   H2        1.0  0.14040  0.07207  0.09551  1.0000
  H   H3        1.0  0.73119  0.98561  0.99135  1.0000
  H   H4        1.0  0.26880  0.01441  0.00865  1.0000
  H   H5        1.0  0.58345  0.39465  0.35781  1.0000
  H   H6        1.0  0.41654  0.60536  0.64219  1.0000
  H   H7        1.0  0.14532  0.15850  0.37352  1.0000
  H   H8        1.0  0.85467  0.84150  0.62648  1.0000
  H   H9        1.0  0.38055  0.28824  0.35772  1.0000
  H   H10       1.0  0.61943  0.71177  0.64227  1.0000
  H   H11       1.0  0.94104  0.43330  0.57829  1.0000
  H   H12       1.0  0.05895  0.56673  0.42171  1.0000
  H   H13       1.0  0.63401  0.40674  0.93923  1.0000
  H   H14       1.0  0.36601  0.59322  0.06078  1.0000
  H   H15       1.0  0.81217  0.50826  0.37701  1.0000
  H   H16       1.0  0.18781  0.49175  0.62299  1.0000
  H   H17       1.0  0.06816  0.98276  0.57417  1.0000
  H   H18       1.0  0.93183  0.01725  0.42582  1.0000
  H   H19       1.0  0.24414  0.94307  0.74693  1.0000
  H   H20       1.0  0.75588  0.05692  0.25308  1.0000
  H   H21       1.0  0.94071  0.18168  0.93239  1.0000
  H   H22       1.0  0.05929  0.81833  0.06761  1.0000
  H   H23       1.0  0.83217  0.23783  0.74857  1.0000
  H   H24       1.0  0.16782  0.76217  0.25144  1.0000
  C   C1        1.0  0.43792  0.18371  0.54369  1.0000
  C   C2        1.0  0.56209  0.81629  0.45631  1.0000
  C   C3        1.0  0.64030  0.35933  0.44391  1.0000
  C   C4        1.0  0.35968  0.64067  0.55609  1.0000
  C   C5        1.0  0.21298  0.13914  0.45245  1.0000
  C   C6        1.0  0.78701  0.86088  0.54755  1.0000
  C   C7        1.0  0.58402  0.25341  0.54398  1.0000
  C   C8        1.0  0.41597  0.74658  0.45603  1.0000
  C   C9        1.0  0.34725  0.21168  0.44276  1.0000
  C   C10       1.0  0.65276  0.78832  0.55724  1.0000
  C   C11       1.0  0.28358  0.27187  0.84813  1.0000
  C   C12       1.0  0.71643  0.72814  0.15186  1.0000
  C   C13       1.0  0.08983  0.35493  0.87076  1.0000
  C   C14       1.0  0.91018  0.64508  0.12923  1.0000
  C   C15       1.0  0.79930  0.56763  0.87182  1.0000
  C   C16       1.0  0.20070  0.43237  0.12819  1.0000
  C   C17       1.0  0.84112  0.38375  0.56503  1.0000
  C   C18       1.0  0.15887  0.61627  0.43496  1.0000
  C   C19       1.0  0.76951  0.42356  0.91038  1.0000
  C   C20       1.0  0.23052  0.57641  0.08963  1.0000
  C   C21       1.0  0.77072  0.42463  0.45516  1.0000
  C   C22       1.0  0.22926  0.57537  0.54484  1.0000
  C   C23       1.0  0.17200  0.04169  0.56213  1.0000
  C   C24       1.0  0.82800  0.95832  0.43786  1.0000
  C   C25       1.0  0.66178  0.72365  0.85705  1.0000
  C   C26       1.0  0.33820  0.27634  0.14296  1.0000
  C   C27       1.0  0.26667  0.01996  0.65889  1.0000
  C   C28       1.0  0.73333  0.98005  0.34111  1.0000
  C   C29       1.0  0.93551  0.30230  0.90934  1.0000
  C   C30       1.0  0.06452  0.69769  0.09065  1.0000
  C   C31       1.0  0.78203  0.27521  0.66047  1.0000
  C   C32       1.0  0.21797  0.72479  0.33953  1.0000
  S   S1        1.0  0.03042  0.55336  0.83641  1.0000
  S   S2        1.0  0.96958  0.44664  0.16359  1.0000
  N   N1        1.0  0.65835  0.21117  0.64961  1.0000
  N   N2        1.0  0.34167  0.78882  0.35039  1.0000
  N   N3        1.0  0.39567  0.08967  0.64912  1.0000
  N   N4        1.0  0.60434  0.91033  0.35088  1.0000
  O   O1        1.0  0.77651  0.02526  0.90981  1.0000
  O   O2        1.0  0.22349  0.97474  0.09018  1.0000
  O   O3        1.0  0.49318  0.73983  0.88106  1.0000
  O   O4        1.0  0.50680  0.26015  0.11894  1.0000
  O   O5        1.0  0.32939  0.11919  0.87899  1.0000
  O   O6        1.0  0.67064  0.88082  0.12101  1.0000
  O   O7        1.0  0.73502  0.83807  0.81475  1.0000
  O   O8        1.0  0.26496  0.16192  0.18526  1.0000
  O   O9        1.0  0.39238  0.34848  0.79672  1.0000
  O   O10       1.0  0.60764  0.65152  0.20327  1.0000
