data_image0
_chemical_formula_structural       Zn2H32C36N12O18
_chemical_formula_sum              "Zn2 H32 C36 N12 O18"
_cell_length_a       9.51842
_cell_length_b       10.9034
_cell_length_c       11.259
_cell_angle_alpha    100.161
_cell_angle_beta     100.812
_cell_angle_gamma    111.919

_space_group_name_H-M_alt    "P 1"
_space_group_IT_number       1

loop_
  _space_group_symop_operation_xyz
  'x, y, z'

loop_
  _atom_site_type_symbol
  _atom_site_label
  _atom_site_symmetry_multiplicity
  _atom_site_fract_x
  _atom_site_fract_y
  _atom_site_fract_z
  _atom_site_occupancy
  Zn  Zn1       1.0  0.29947  0.67948  0.11959  1.0000
  Zn  Zn2       1.0  0.70053  0.32052  0.88041  1.0000
  H   H1        1.0  0.05326  0.87839  0.00322  1.0000
  H   H2        1.0  0.94674  0.12160  0.99678  1.0000
  H   H3        1.0  0.90590  0.70558  0.96537  1.0000
  H   H4        1.0  0.09409  0.29441  0.03463  1.0000
  H   H5        1.0  0.53922  0.70441  0.66049  1.0000
  H   H6        1.0  0.46078  0.29559  0.33951  1.0000
  H   H7        1.0  0.52638  0.75169  0.81650  1.0000
  H   H8        1.0  0.47362  0.24831  0.18351  1.0000
  H   H9        1.0  0.73969  0.66774  0.79327  1.0000
  H   H10       1.0  0.26031  0.33226  0.20673  1.0000
  H   H11       1.0  0.83949  0.81846  0.74751  1.0000
  H   H12       1.0  0.16051  0.18154  0.25249  1.0000
  H   H13       1.0  0.63411  0.02026  0.92508  1.0000
  H   H14       1.0  0.36589  0.97974  0.07492  1.0000
  H   H15       1.0  0.63247  0.86759  0.08997  1.0000
  H   H16       1.0  0.36753  0.13241  0.91004  1.0000
  H   H17       1.0  0.71121  0.10365  0.24616  1.0000
  H   H18       1.0  0.28879  0.89635  0.75385  1.0000
  H   H19       1.0  0.00828  0.81831  0.19815  1.0000
  H   H20       1.0  0.99172  0.18169  0.80185  1.0000
  H   H21       1.0  0.94381  0.94833  0.17480  1.0000
  H   H22       1.0  0.05620  0.05167  0.82519  1.0000
  H   H23       1.0  0.80916  0.59000  0.20046  1.0000
  H   H24       1.0  0.19084  0.41000  0.79954  1.0000
  H   H25       1.0  0.13137  0.29533  0.55847  1.0000
  H   H26       1.0  0.86863  0.70467  0.44153  1.0000
  H   H27       1.0  0.66267  0.15891  0.59972  1.0000
  H   H28       1.0  0.33734  0.84110  0.40028  1.0000
  H   H29       1.0  0.60714  0.88270  0.54198  1.0000
  H   H30       1.0  0.39286  0.11730  0.45802  1.0000
  H   H31       1.0  0.48608  0.49066  0.18374  1.0000
  H   H32       1.0  0.51392  0.50934  0.81626  1.0000
  C   C1        1.0  0.93229  0.81446  0.00372  1.0000
  C   C2        1.0  0.06771  0.18553  0.99627  1.0000
  C   C3        1.0  0.60022  0.77880  0.75270  1.0000
  C   C4        1.0  0.39978  0.22120  0.24730  1.0000
  C   C5        1.0  0.75780  0.77542  0.80291  1.0000
  C   C6        1.0  0.24220  0.22458  0.19709  1.0000
  C   C7        1.0  0.63807  0.02258  0.83006  1.0000
  C   C8        1.0  0.36193  0.97742  0.16994  1.0000
  C   C9        1.0  0.63467  0.77841  0.11832  1.0000
  C   C10       1.0  0.36534  0.22160  0.88168  1.0000
  C   C11       1.0  0.02712  0.41121  0.30435  1.0000
  C   C12       1.0  0.97288  0.58879  0.69564  1.0000
  C   C13       1.0  0.09223  0.53235  0.25038  1.0000
  C   C14       1.0  0.90777  0.46765  0.74962  1.0000
  C   C15       1.0  0.82524  0.18870  0.29480  1.0000
  C   C16       1.0  0.17476  0.81130  0.70520  1.0000
  C   C17       1.0  0.92114  0.84047  0.13797  1.0000
  C   C18       1.0  0.07886  0.15953  0.86203  1.0000
  C   C19       1.0  0.77733  0.28401  0.11562  1.0000
  C   C20       1.0  0.22267  0.71598  0.88438  1.0000
  C   C21       1.0  0.88023  0.29853  0.24242  1.0000
  C   C22       1.0  0.11976  0.70147  0.75758  1.0000
  C   C23       1.0  0.11248  0.40563  0.41844  1.0000
  C   C24       1.0  0.88752  0.59437  0.58156  1.0000
  C   C25       1.0  0.72218  0.62988  0.17558  1.0000
  C   C26       1.0  0.27783  0.37012  0.82442  1.0000
  C   C27       1.0  0.06074  0.29623  0.47095  1.0000
  C   C28       1.0  0.93926  0.70377  0.52905  1.0000
  C   C29       1.0  0.64802  0.08879  0.65828  1.0000
  C   C30       1.0  0.35198  0.91121  0.34172  1.0000
  C   C31       1.0  0.62053  0.95281  0.62869  1.0000
  C   C32       1.0  0.37947  0.04719  0.37131  1.0000
  C   C33       1.0  0.56412  0.58286  0.16612  1.0000
  C   C34       1.0  0.43589  0.41714  0.83388  1.0000
  C   C35       1.0  0.91589  0.18827  0.40687  1.0000
  C   C36       1.0  0.08411  0.81173  0.59313  1.0000
  N   N1        1.0  0.26837  0.51589  0.48820  1.0000
  N   N2        1.0  0.73162  0.48411  0.51180  1.0000
  N   N3        1.0  0.86044  0.06931  0.45733  1.0000
  N   N4        1.0  0.13957  0.93069  0.54267  1.0000
  N   N5        1.0  0.51083  0.67626  0.13021  1.0000
  N   N6        1.0  0.48917  0.32374  0.86979  1.0000
  N   N7        1.0  0.76493  0.75426  0.14581  1.0000
  N   N8        1.0  0.23508  0.24574  0.85420  1.0000
  N   N9        1.0  0.65897  0.13117  0.78411  1.0000
  N   N10       1.0  0.34103  0.86883  0.21589  1.0000
  N   N11       1.0  0.61545  0.91303  0.73813  1.0000
  N   N12       1.0  0.38455  0.08697  0.26188  1.0000
  O   O1        1.0  0.04077  0.62133  0.26566  1.0000
  O   O2        1.0  0.95923  0.37867  0.73434  1.0000
  O   O3        1.0  0.19996  0.53032  0.19675  1.0000
  O   O4        1.0  0.80004  0.46968  0.80325  1.0000
  O   O5        1.0  0.29589  0.63460  0.48121  1.0000
  O   O6        1.0  0.70411  0.36541  0.51879  1.0000
  O   O7        1.0  0.36289  0.48297  0.55181  1.0000
  O   O8        1.0  0.63711  0.51703  0.44819  1.0000
  O   O9        1.0  0.82113  0.85137  0.93174  1.0000
  O   O10       1.0  0.17886  0.14863  0.06826  1.0000
  O   O11       1.0  0.84235  0.36567  0.05239  1.0000
  O   O12       1.0  0.15765  0.63433  0.94761  1.0000
  O   O13       1.0  0.63929  0.19179  0.07924  1.0000
  O   O14       1.0  0.36071  0.80821  0.92076  1.0000
  O   O15       1.0  0.93632  0.07783  0.56296  1.0000
  O   O16       1.0  0.06369  0.92218  0.43704  1.0000
  O   O17       1.0  0.74124  0.96641  0.39016  1.0000
  O   O18       1.0  0.25877  0.03359  0.60984  1.0000
