data_image0
_chemical_formula_structural       Cd2H36C36N8O10
_chemical_formula_sum              "Cd2 H36 C36 N8 O10"
_cell_length_a       8.40806
_cell_length_b       10.3624
_cell_length_c       10.7768
_cell_angle_alpha    98.6572
_cell_angle_beta     99.454
_cell_angle_gamma    94.9261

_space_group_name_H-M_alt    "P 1"
_space_group_IT_number       1

loop_
  _space_group_symop_operation_xyz
  'x, y, z'

loop_
  _atom_site_type_symbol
  _atom_site_label
  _atom_site_symmetry_multiplicity
  _atom_site_fract_x
  _atom_site_fract_y
  _atom_site_fract_z
  _atom_site_occupancy
  Cd  Cd1       1.0  0.51378  0.32144  0.38212  1.0000
  Cd  Cd2       1.0  0.48622  0.67856  0.61788  1.0000
  H   H1        1.0  0.63341  0.75659  0.94075  1.0000
  H   H2        1.0  0.36659  0.24341  0.05925  1.0000
  H   H3        1.0  0.61230  0.98225  0.05042  1.0000
  H   H4        1.0  0.38770  0.01775  0.94958  1.0000
  H   H5        1.0  0.54082  0.83165  0.38942  1.0000
  H   H6        1.0  0.45919  0.16834  0.61058  1.0000
  H   H7        1.0  0.70262  0.10420  0.54771  1.0000
  H   H8        1.0  0.29739  0.89580  0.45229  1.0000
  H   H9        1.0  0.86694  0.50215  0.55220  1.0000
  H   H10       1.0  0.13307  0.49785  0.44780  1.0000
  H   H11       1.0  0.10078  0.39257  0.70769  1.0000
  H   H12       1.0  0.89922  0.60743  0.29231  1.0000
  H   H13       1.0  0.12964  0.16591  0.75244  1.0000
  H   H14       1.0  0.87036  0.83409  0.24756  1.0000
  H   H15       1.0  0.99633  0.03326  0.65567  1.0000
  H   H16       1.0  0.00367  0.96674  0.34433  1.0000
  H   H17       1.0  0.78740  0.07867  0.79430  1.0000
  H   H18       1.0  0.21260  0.92134  0.20570  1.0000
  H   H19       1.0  0.96861  0.02718  0.87423  1.0000
  H   H20       1.0  0.03139  0.97283  0.12577  1.0000
  H   H21       1.0  0.78719  0.15015  0.02836  1.0000
  H   H22       1.0  0.21281  0.84985  0.97164  1.0000
  H   H23       1.0  0.70692  0.26287  0.93137  1.0000
  H   H24       1.0  0.29308  0.73713  0.06863  1.0000
  H   H25       1.0  0.61302  0.56766  0.05959  1.0000
  H   H26       1.0  0.38698  0.43234  0.94041  1.0000
  H   H27       1.0  0.85427  0.20717  0.29753  1.0000
  H   H28       1.0  0.14572  0.79283  0.70247  1.0000
  H   H29       1.0  0.91794  0.44166  0.06964  1.0000
  H   H30       1.0  0.08205  0.55835  0.93036  1.0000
  H   H31       1.0  0.76794  0.37492  0.14892  1.0000
  H   H32       1.0  0.23206  0.62508  0.85108  1.0000
  H   H33       1.0  0.21679  0.41087  0.14792  1.0000
  H   H34       1.0  0.78320  0.58912  0.85208  1.0000
  H   H35       1.0  0.16390  0.18407  0.43451  1.0000
  H   H36       1.0  0.83609  0.81593  0.56549  1.0000
  C   C1        1.0  0.61632  0.77258  0.03953  1.0000
  C   C2        1.0  0.38368  0.22742  0.96048  1.0000
  C   C3        1.0  0.60179  0.89864  0.09983  1.0000
  C   C4        1.0  0.39821  0.10136  0.90017  1.0000
  C   C5        1.0  0.56887  0.91986  0.22428  1.0000
  C   C6        1.0  0.43113  0.08013  0.77572  1.0000
  C   C7        1.0  0.56113  0.81437  0.29130  1.0000
  C   C8        1.0  0.43887  0.18562  0.70870  1.0000
  C   C9        1.0  0.53950  0.05494  0.28321  1.0000
  C   C10       1.0  0.46050  0.94506  0.71679  1.0000
  C   C11       1.0  0.77914  0.19768  0.56648  1.0000
  C   C12       1.0  0.22086  0.80232  0.43352  1.0000
  C   C13       1.0  0.86819  0.40356  0.57431  1.0000
  C   C14       1.0  0.13181  0.59644  0.42569  1.0000
  C   C15       1.0  0.98400  0.35132  0.65119  1.0000
  C   C16       1.0  0.01601  0.64868  0.34881  1.0000
  C   C17       1.0  0.00181  0.12801  0.71836  1.0000
  C   C18       1.0  0.99819  0.87199  0.28164  1.0000
  C   C19       1.0  0.91822  0.10785  0.82968  1.0000
  C   C20       1.0  0.08178  0.89215  0.17032  1.0000
  C   C21       1.0  0.81760  0.24123  0.99142  1.0000
  C   C22       1.0  0.18240  0.75877  0.00858  1.0000
  C   C23       1.0  0.58042  0.68791  0.23259  1.0000
  C   C24       1.0  0.41958  0.31209  0.76741  1.0000
  C   C25       1.0  0.57480  0.57367  0.30319  1.0000
  C   C26       1.0  0.42520  0.42633  0.69681  1.0000
  C   C27       1.0  0.60416  0.66727  0.10535  1.0000
  C   C28       1.0  0.39584  0.33273  0.89465  1.0000
  C   C29       1.0  0.97628  0.24414  0.28932  1.0000
  C   C30       1.0  0.02371  0.75585  0.71068  1.0000
  C   C31       1.0  0.87199  0.35275  0.10271  1.0000
  C   C32       1.0  0.12801  0.64725  0.89729  1.0000
  C   C33       1.0  0.16289  0.35080  0.20754  1.0000
  C   C34       1.0  0.83711  0.64920  0.79246  1.0000
  C   C35       1.0  0.12828  0.23270  0.35373  1.0000
  C   C36       1.0  0.87171  0.76730  0.64627  1.0000
  N   N1        1.0  0.92630  0.22112  0.64477  1.0000
  N   N2        1.0  0.07370  0.77888  0.35523  1.0000
  N   N3        1.0  0.74153  0.30688  0.52241  1.0000
  N   N4        1.0  0.25847  0.69312  0.47759  1.0000
  N   N5        1.0  0.00061  0.31986  0.19733  1.0000
  N   N6        1.0  0.99939  0.68014  0.80267  1.0000
  N   N7        1.0  0.24326  0.29931  0.30171  1.0000
  N   N8        1.0  0.75674  0.70068  0.69829  1.0000
  O   O1        1.0  0.59622  0.15200  0.23652  1.0000
  O   O2        1.0  0.40377  0.84800  0.76348  1.0000
  O   O3        1.0  0.46049  0.06647  0.37433  1.0000
  O   O4        1.0  0.53951  0.93353  0.62567  1.0000
  O   O5        1.0  0.94498  0.22736  0.91936  1.0000
  O   O6        1.0  0.05503  0.77265  0.08064  1.0000
  O   O7        1.0  0.55624  0.45855  0.23576  1.0000
  O   O8        1.0  0.44376  0.54145  0.76424  1.0000
  O   O9        1.0  0.59110  0.59328  0.42382  1.0000
  O   O10       1.0  0.40890  0.40672  0.57618  1.0000
