data_image0
_chemical_formula_structural       Sr2H20C12N16O24
_chemical_formula_sum              "Sr2 H20 C12 N16 O24"
_cell_length_a       6.32617
_cell_length_b       8.9656
_cell_length_c       14.7745
_cell_angle_alpha    74.8773
_cell_angle_beta     77.6547
_cell_angle_gamma    69.3568

_space_group_name_H-M_alt    "P 1"
_space_group_IT_number       1

loop_
  _space_group_symop_operation_xyz
  'x, y, z'

loop_
  _atom_site_type_symbol
  _atom_site_label
  _atom_site_symmetry_multiplicity
  _atom_site_fract_x
  _atom_site_fract_y
  _atom_site_fract_z
  _atom_site_occupancy
  Sr  Sr1       1.0  0.16424  0.24999  0.75000  1.0000
  Sr  Sr2       1.0  0.83576  0.75001  0.25000  1.0000
  H   H1        1.0  0.39518  0.33777  0.90990  1.0000
  H   H2        1.0  0.64253  0.16227  0.59003  1.0000
  H   H3        1.0  0.60482  0.66223  0.09010  1.0000
  H   H4        1.0  0.35746  0.83773  0.40997  1.0000
  H   H5        1.0  0.46207  0.41062  0.80355  1.0000
  H   H6        1.0  0.67574  0.08940  0.69640  1.0000
  H   H7        1.0  0.53794  0.58938  0.19645  1.0000
  H   H8        1.0  0.32426  0.91060  0.30360  1.0000
  H   H9        1.0  0.89974  0.01461  0.89825  1.0000
  H   H10       1.0  0.81227  0.48537  0.60179  1.0000
  H   H11       1.0  0.10026  0.98539  0.10175  1.0000
  H   H12       1.0  0.18773  0.51462  0.39821  1.0000
  H   H13       1.0  0.71818  0.16874  0.84840  1.0000
  H   H14       1.0  0.73500  0.33123  0.65160  1.0000
  H   H15       1.0  0.28182  0.83126  0.15160  1.0000
  H   H16       1.0  0.26500  0.66877  0.34840  1.0000
  H   H17       1.0  0.75130  0.66595  0.74100  1.0000
  H   H18       1.0  0.15788  0.83411  0.75902  1.0000
  H   H19       1.0  0.24869  0.33405  0.25900  1.0000
  H   H20       1.0  0.84211  0.16590  0.24098  1.0000
  C   C1        1.0  0.81366  0.46463  0.94987  1.0000
  C   C2        1.0  0.22792  0.03535  0.55014  1.0000
  C   C3        1.0  0.18634  0.53537  0.05013  1.0000
  C   C4        1.0  0.77208  0.96465  0.44986  1.0000
  C   C5        1.0  0.75129  0.62153  0.81666  1.0000
  C   C6        1.0  0.18912  0.87852  0.68336  1.0000
  C   C7        1.0  0.24872  0.37846  0.18334  1.0000
  C   C8        1.0  0.81088  0.12149  0.31664  1.0000
  C   C9        1.0  0.64158  0.70437  0.89152  1.0000
  C   C10       1.0  0.23731  0.79559  0.60852  1.0000
  C   C11       1.0  0.35843  0.29563  0.10848  1.0000
  C   C12       1.0  0.76268  0.20441  0.39148  1.0000
  N   N1        1.0  0.86252  0.46710  0.85533  1.0000
  N   N2        1.0  0.18462  0.03296  0.64467  1.0000
  N   N3        1.0  0.13748  0.53290  0.14466  1.0000
  N   N4        1.0  0.81538  0.96704  0.35533  1.0000
  N   N5        1.0  0.68074  0.60380  0.97639  1.0000
  N   N6        1.0  0.26084  0.89612  0.52364  1.0000
  N   N7        1.0  0.31926  0.39620  0.02361  1.0000
  N   N8        1.0  0.73917  0.10389  0.47636  1.0000
  N   N9        1.0  0.89495  0.31981  0.01824  1.0000
  N   N10       1.0  0.23292  0.18011  0.48174  1.0000
  N   N11       1.0  0.10505  0.68019  0.98176  1.0000
  N   N12       1.0  0.76708  0.81989  0.51826  1.0000
  N   N13       1.0  0.49591  0.86711  0.88577  1.0000
  N   N14       1.0  0.24873  0.63280  0.61435  1.0000
  N   N15       1.0  0.50409  0.13289  0.11423  1.0000
  N   N16       1.0  0.75127  0.36720  0.38565  1.0000
  O   O1        1.0  0.02908  0.19614  0.98937  1.0000
  O   O2        1.0  0.21434  0.30385  0.51058  1.0000
  O   O3        1.0  0.97092  0.80385  0.01063  1.0000
  O   O4        1.0  0.78566  0.69615  0.48941  1.0000
  O   O5        1.0  0.82674  0.32479  0.10346  1.0000
  O   O6        1.0  0.25528  0.17501  0.39650  1.0000
  O   O7        1.0  0.17325  0.67521  0.89654  1.0000
  O   O8        1.0  0.74472  0.82499  0.60350  1.0000
  O   O9        1.0  0.47170  0.95341  0.80383  1.0000
  O   O10       1.0  0.22830  0.54678  0.69634  1.0000
  O   O11       1.0  0.52830  0.04659  0.19617  1.0000
  O   O12       1.0  0.77169  0.45323  0.30366  1.0000
  O   O13       1.0  0.39640  0.91644  0.95915  1.0000
  O   O14       1.0  0.27257  0.58318  0.54102  1.0000
  O   O15       1.0  0.60360  0.08355  0.04085  1.0000
  O   O16       1.0  0.72744  0.41682  0.45899  1.0000
  O   O17       1.0  0.44274  0.31066  0.84535  1.0000
  O   O18       1.0  0.59816  0.18932  0.65460  1.0000
  O   O19       1.0  0.55726  0.68934  0.15465  1.0000
  O   O20       1.0  0.40184  0.81068  0.34540  1.0000
  O   O21       1.0  0.87633  0.09308  0.83827  1.0000
  O   O22       1.0  0.80739  0.40688  0.66177  1.0000
  O   O23       1.0  0.12367  0.90692  0.16173  1.0000
  O   O24       1.0  0.19261  0.59312  0.33823  1.0000
