data_image0
_chemical_formula_structural       Cs4H40C36Cl4O16
_chemical_formula_sum              "Cs4 H40 C36 Cl4 O16"
_cell_length_a       7.13713
_cell_length_b       8.77343
_cell_length_c       18.1099
_cell_angle_alpha    89.9999
_cell_angle_beta     94.5673
_cell_angle_gamma    89.9996

_space_group_name_H-M_alt    "P 1"
_space_group_IT_number       1

loop_
  _space_group_symop_operation_xyz
  'x, y, z'

loop_
  _atom_site_type_symbol
  _atom_site_label
  _atom_site_symmetry_multiplicity
  _atom_site_fract_x
  _atom_site_fract_y
  _atom_site_fract_z
  _atom_site_occupancy
  Cs  Cs1       1.0  0.27573  0.56460  0.56558  1.0000
  Cs  Cs2       1.0  0.22426  0.06461  0.43442  1.0000
  Cs  Cs3       1.0  0.72427  0.43540  0.43442  1.0000
  Cs  Cs4       1.0  0.77574  0.93540  0.56558  1.0000
  H   H1        1.0  0.21141  0.55262  0.98742  1.0000
  H   H2        1.0  0.28859  0.05263  0.01258  1.0000
  H   H3        1.0  0.78858  0.44738  0.01258  1.0000
  H   H4        1.0  0.71142  0.94737  0.98742  1.0000
  H   H5        1.0  0.49411  0.71161  0.96889  1.0000
  H   H6        1.0  0.00588  0.21161  0.03111  1.0000
  H   H7        1.0  0.50589  0.28839  0.03111  1.0000
  H   H8        1.0  0.99412  0.78839  0.96889  1.0000
  H   H9        1.0  0.63943  0.70586  0.85008  1.0000
  H   H10       1.0  0.86056  0.20586  0.14992  1.0000
  H   H11       1.0  0.36057  0.29414  0.14992  1.0000
  H   H12       1.0  0.13944  0.79414  0.85008  1.0000
  H   H13       1.0  0.10539  0.66633  0.41419  1.0000
  H   H14       1.0  0.39461  0.16632  0.58581  1.0000
  H   H15       1.0  0.89461  0.33367  0.58581  1.0000
  H   H16       1.0  0.60539  0.83368  0.41419  1.0000
  H   H17       1.0  0.94316  0.79361  0.40623  1.0000
  H   H18       1.0  0.55683  0.29361  0.59377  1.0000
  H   H19       1.0  0.05683  0.20639  0.59377  1.0000
  H   H20       1.0  0.44317  0.70639  0.40624  1.0000
  H   H21       1.0  0.79451  0.57536  0.77276  1.0000
  H   H22       1.0  0.70548  0.07536  0.22724  1.0000
  H   H23       1.0  0.20549  0.42464  0.22724  1.0000
  H   H24       1.0  0.29452  0.92464  0.77276  1.0000
  H   H25       1.0  0.67100  0.72807  0.72515  1.0000
  H   H26       1.0  0.82899  0.22807  0.27485  1.0000
  H   H27       1.0  0.32900  0.27193  0.27485  1.0000
  H   H28       1.0  0.17101  0.77193  0.72515  1.0000
  H   H29       1.0  0.30904  0.32279  0.70905  1.0000
  H   H30       1.0  0.19096  0.82279  0.29095  1.0000
  H   H31       1.0  0.69096  0.67721  0.29094  1.0000
  H   H32       1.0  0.80904  0.17721  0.70905  1.0000
  H   H33       1.0  0.08323  0.40568  0.71365  1.0000
  H   H34       1.0  0.41676  0.90568  0.28635  1.0000
  H   H35       1.0  0.91677  0.59432  0.28635  1.0000
  H   H36       1.0  0.58324  0.09432  0.71365  1.0000
  H   H37       1.0  0.14686  0.24358  0.76774  1.0000
  H   H38       1.0  0.35314  0.74358  0.23226  1.0000
  H   H39       1.0  0.85315  0.75642  0.23226  1.0000
  H   H40       1.0  0.64686  0.25641  0.76774  1.0000
  C   C1        1.0  0.44066  0.54153  0.79979  1.0000
  C   C2        1.0  0.05933  0.04154  0.20021  1.0000
  C   C3        1.0  0.55934  0.45847  0.20021  1.0000
  C   C4        1.0  0.94067  0.95846  0.79978  1.0000
  C   C5        1.0  0.27848  0.45241  0.80783  1.0000
  C   C6        1.0  0.22152  0.95241  0.19217  1.0000
  C   C7        1.0  0.72152  0.54759  0.19217  1.0000
  C   C8        1.0  0.77848  0.04759  0.80783  1.0000
  C   C9        1.0  0.19937  0.46257  0.87605  1.0000
  C   C10       1.0  0.30063  0.96258  0.12395  1.0000
  C   C11       1.0  0.80063  0.53743  0.12395  1.0000
  C   C12       1.0  0.69937  0.03742  0.87605  1.0000
  C   C13       1.0  0.27537  0.55210  0.93482  1.0000
  C   C14       1.0  0.22462  0.05211  0.06518  1.0000
  C   C15       1.0  0.72463  0.44790  0.06518  1.0000
  C   C16       1.0  0.77538  0.94789  0.93482  1.0000
  C   C17       1.0  0.43362  0.63948  0.92417  1.0000
  C   C18       1.0  0.06637  0.13948  0.07583  1.0000
  C   C19       1.0  0.56637  0.36052  0.07583  1.0000
  C   C20       1.0  0.93363  0.86052  0.92417  1.0000
  C   C21       1.0  0.51621  0.63598  0.85688  1.0000
  C   C22       1.0  0.98378  0.13598  0.14312  1.0000
  C   C23       1.0  0.48379  0.36402  0.14312  1.0000
  C   C24       1.0  0.01622  0.86402  0.85688  1.0000
  C   C25       1.0  0.69260  0.60388  0.72571  1.0000
  C   C26       1.0  0.80739  0.10388  0.27429  1.0000
  C   C27       1.0  0.30740  0.39612  0.27429  1.0000
  C   C28       1.0  0.19261  0.89612  0.72571  1.0000
  C   C29       1.0  0.78068  0.55754  0.65499  1.0000
  C   C30       1.0  0.71931  0.05754  0.34501  1.0000
  C   C31       1.0  0.21932  0.44245  0.34501  1.0000
  C   C32       1.0  0.28069  0.94246  0.65499  1.0000
  C   C33       1.0  0.20069  0.35045  0.74643  1.0000
  C   C34       1.0  0.29930  0.85045  0.25357  1.0000
  C   C35       1.0  0.79931  0.64955  0.25357  1.0000
  C   C36       1.0  0.70070  0.14955  0.74643  1.0000
  Cl  Cl1       1.0  0.99708  0.35771  0.88888  1.0000
  Cl  Cl2       1.0  0.50292  0.85772  0.11112  1.0000
  Cl  Cl3       1.0  0.00293  0.64228  0.11112  1.0000
  Cl  Cl4       1.0  0.49707  0.14228  0.88888  1.0000
  O   O1        1.0  0.01476  0.72585  0.44171  1.0000
  O   O2        1.0  0.48524  0.22585  0.55829  1.0000
  O   O3        1.0  0.98524  0.27415  0.55829  1.0000
  O   O4        1.0  0.51476  0.77415  0.44172  1.0000
  O   O5        1.0  0.51817  0.52708  0.73291  1.0000
  O   O6        1.0  0.98183  0.02708  0.26709  1.0000
  O   O7        1.0  0.48184  0.47292  0.26709  1.0000
  O   O8        1.0  0.01817  0.97292  0.73291  1.0000
  O   O9        1.0  0.71430  0.44411  0.61701  1.0000
  O   O10       1.0  0.78570  0.94411  0.38299  1.0000
  O   O11       1.0  0.28571  0.55589  0.38299  1.0000
  O   O12       1.0  0.21430  0.05589  0.61701  1.0000
  O   O13       1.0  0.92037  0.63644  0.63984  1.0000
  O   O14       1.0  0.57964  0.13644  0.36016  1.0000
  O   O15       1.0  0.07964  0.36356  0.36016  1.0000
  O   O16       1.0  0.42037  0.86356  0.63984  1.0000
