data_image0
_chemical_formula_structural       Cd3H24C30S12N30
_chemical_formula_sum              "Cd3 H24 C30 S12 N30"
_cell_length_a       7.60234
_cell_length_b       7.60236
_cell_length_c       24.9763
_cell_angle_alpha    89.9998
_cell_angle_beta     90.0001
_cell_angle_gamma    119.999

_space_group_name_H-M_alt    "P 1"
_space_group_IT_number       1

loop_
  _space_group_symop_operation_xyz
  'x, y, z'

loop_
  _atom_site_type_symbol
  _atom_site_label
  _atom_site_symmetry_multiplicity
  _atom_site_fract_x
  _atom_site_fract_y
  _atom_site_fract_z
  _atom_site_occupancy
  Cd  Cd1       1.0  0.93400  0.93400  1.00000  1.0000
  Cd  Cd2       1.0  0.06601  0.00001  0.33333  1.0000
  Cd  Cd3       1.0  0.00001  0.06601  0.66667  1.0000
  H   H1        1.0  0.00359  0.14698  0.87245  1.0000
  H   H2        1.0  0.85302  0.85661  0.20578  1.0000
  H   H3        1.0  0.14339  0.99641  0.53911  1.0000
  H   H4        1.0  0.14698  0.00359  0.12755  1.0000
  H   H5        1.0  0.85660  0.85302  0.79422  1.0000
  H   H6        1.0  0.99641  0.14339  0.46089  1.0000
  H   H7        1.0  0.46776  0.18391  0.97313  1.0000
  H   H8        1.0  0.81609  0.28386  0.30647  1.0000
  H   H9        1.0  0.71617  0.53226  0.63980  1.0000
  H   H10       1.0  0.18392  0.46776  0.02686  1.0000
  H   H11       1.0  0.28386  0.81608  0.69353  1.0000
  H   H12       1.0  0.53226  0.71617  0.36020  1.0000
  H   H13       1.0  0.76033  0.34545  0.90533  1.0000
  H   H14       1.0  0.65452  0.41487  0.23867  1.0000
  H   H15       1.0  0.58512  0.23968  0.57200  1.0000
  H   H16       1.0  0.34545  0.76033  0.09467  1.0000
  H   H17       1.0  0.41487  0.65453  0.76133  1.0000
  H   H18       1.0  0.23968  0.58512  0.42800  1.0000
  H   H19       1.0  0.73376  0.53385  0.86981  1.0000
  H   H20       1.0  0.46614  0.19990  0.20314  1.0000
  H   H21       1.0  0.80009  0.26624  0.53648  1.0000
  H   H22       1.0  0.53385  0.73376  0.13019  1.0000
  H   H23       1.0  0.19990  0.46614  0.79686  1.0000
  H   H24       1.0  0.26624  0.80009  0.46352  1.0000
  C   C1        1.0  0.15002  0.17698  0.88755  1.0000
  C   C2        1.0  0.82302  0.97304  0.22088  1.0000
  C   C3        1.0  0.02696  0.84999  0.55421  1.0000
  C   C4        1.0  0.17698  0.15003  0.11245  1.0000
  C   C5        1.0  0.97305  0.82301  0.77912  1.0000
  C   C6        1.0  0.84998  0.02696  0.44579  1.0000
  C   C7        1.0  0.38207  0.19617  0.93990  1.0000
  C   C8        1.0  0.80383  0.18590  0.27324  1.0000
  C   C9        1.0  0.81410  0.61794  0.60657  1.0000
  C   C10       1.0  0.19617  0.38207  0.06009  1.0000
  C   C11       1.0  0.18590  0.80383  0.72676  1.0000
  C   C12       1.0  0.61794  0.81410  0.39343  1.0000
  C   C13       1.0  0.67323  0.36951  0.87413  1.0000
  C   C14       1.0  0.63047  0.30371  0.20746  1.0000
  C   C15       1.0  0.69629  0.32678  0.54080  1.0000
  C   C16       1.0  0.36951  0.67323  0.12587  1.0000
  C   C17       1.0  0.30371  0.63047  0.79254  1.0000
  C   C18       1.0  0.32678  0.69629  0.45920  1.0000
  C   C19       1.0  0.69585  0.28235  0.82259  1.0000
  C   C20       1.0  0.71764  0.41350  0.15593  1.0000
  C   C21       1.0  0.58650  0.30415  0.48926  1.0000
  C   C22       1.0  0.28235  0.69585  0.17741  1.0000
  C   C23       1.0  0.41350  0.71764  0.84407  1.0000
  C   C24       1.0  0.30415  0.58650  0.51074  1.0000
  C   C25       1.0  0.71089  0.17283  0.73285  1.0000
  C   C26       1.0  0.82717  0.53807  0.06619  1.0000
  C   C27       1.0  0.46193  0.28911  0.39952  1.0000
  C   C28       1.0  0.17283  0.71090  0.26715  1.0000
  C   C29       1.0  0.53807  0.82717  0.93381  1.0000
  C   C30       1.0  0.28911  0.46194  0.60048  1.0000
  S   S1        1.0  0.56097  0.25770  0.76432  1.0000
  S   S2        1.0  0.74228  0.30327  0.09765  1.0000
  S   S3        1.0  0.69673  0.43903  0.43099  1.0000
  S   S4        1.0  0.25770  0.56098  0.23568  1.0000
  S   S5        1.0  0.30327  0.74229  0.90234  1.0000
  S   S6        1.0  0.43903  0.69673  0.56901  1.0000
  S   S7        1.0  0.67806  0.09189  0.66745  1.0000
  S   S8        1.0  0.90811  0.58617  0.00079  1.0000
  S   S9        1.0  0.41383  0.32194  0.33412  1.0000
  S   S10       1.0  0.09189  0.67807  0.33255  1.0000
  S   S11       1.0  0.58617  0.90811  0.99921  1.0000
  S   S12       1.0  0.32194  0.41383  0.66588  1.0000
  N   N1        1.0  0.18242  0.13021  0.93810  1.0000
  N   N2        1.0  0.86979  0.05221  0.27143  1.0000
  N   N3        1.0  0.94780  0.81759  0.60476  1.0000
  N   N4        1.0  0.13021  0.18242  0.06190  1.0000
  N   N5        1.0  0.05221  0.86979  0.72857  1.0000
  N   N6        1.0  0.81759  0.94780  0.39524  1.0000
  N   N7        1.0  0.31816  0.26802  0.85843  1.0000
  N   N8        1.0  0.73196  0.05013  0.19177  1.0000
  N   N9        1.0  0.94986  0.68184  0.52510  1.0000
  N   N10       1.0  0.26802  0.31816  0.14157  1.0000
  N   N11       1.0  0.05013  0.73197  0.80823  1.0000
  N   N12       1.0  0.68184  0.94987  0.47490  1.0000
  N   N13       1.0  0.46333  0.27767  0.89217  1.0000
  N   N14       1.0  0.72233  0.18566  0.22550  1.0000
  N   N15       1.0  0.81434  0.53668  0.55883  1.0000
  N   N16       1.0  0.27767  0.46333  0.10783  1.0000
  N   N17       1.0  0.18566  0.72233  0.77450  1.0000
  N   N18       1.0  0.53668  0.81435  0.44117  1.0000
  N   N19       1.0  0.83687  0.23311  0.81640  1.0000
  N   N20       1.0  0.76689  0.60377  0.14974  1.0000
  N   N21       1.0  0.39624  0.16313  0.48307  1.0000
  N   N22       1.0  0.23311  0.83688  0.18360  1.0000
  N   N23       1.0  0.60377  0.76689  0.85026  1.0000
  N   N24       1.0  0.16313  0.39624  0.51693  1.0000
  N   N25       1.0  0.84726  0.17130  0.76595  1.0000
  N   N26       1.0  0.82870  0.67596  0.09929  1.0000
  N   N27       1.0  0.32404  0.15274  0.43262  1.0000
  N   N28       1.0  0.17130  0.84726  0.23405  1.0000
  N   N29       1.0  0.67596  0.82870  0.90071  1.0000
  N   N30       1.0  0.15274  0.32405  0.56738  1.0000
