data_image0
_chemical_formula_structural       Cu2H20C28Br4N8
_chemical_formula_sum              "Cu2 H20 C28 Br4 N8"
_cell_length_a       4.07063
_cell_length_b       12.5384
_cell_length_c       13.3815
_cell_angle_alpha    89.999
_cell_angle_beta     95.4419
_cell_angle_gamma    90

_space_group_name_H-M_alt    "P 1"
_space_group_IT_number       1

loop_
  _space_group_symop_operation_xyz
  'x, y, z'

loop_
  _atom_site_type_symbol
  _atom_site_label
  _atom_site_symmetry_multiplicity
  _atom_site_fract_x
  _atom_site_fract_y
  _atom_site_fract_z
  _atom_site_occupancy
  Cu  Cu1       1.0  0.00000  1.00000  1.00000  1.0000
  Cu  Cu2       1.0  0.00000  0.50000  0.50000  1.0000
  H   H1        1.0  0.24328  0.20812  0.96505  1.0000
  H   H2        1.0  0.75670  0.70812  0.53495  1.0000
  H   H3        1.0  0.75672  0.79188  0.03495  1.0000
  H   H4        1.0  0.24330  0.29188  0.46505  1.0000
  H   H5        1.0  0.05684  0.39621  0.22654  1.0000
  H   H6        1.0  0.94317  0.89621  0.27346  1.0000
  H   H7        1.0  0.94317  0.60379  0.77346  1.0000
  H   H8        1.0  0.05682  0.10379  0.72654  1.0000
  H   H9        1.0  0.83840  0.22920  0.29170  1.0000
  H   H10       1.0  0.16161  0.72920  0.20830  1.0000
  H   H11       1.0  0.16161  0.77080  0.70830  1.0000
  H   H12       1.0  0.83839  0.27080  0.79170  1.0000
  H   H13       1.0  0.32971  0.34469  0.89291  1.0000
  H   H14       1.0  0.67030  0.84468  0.60708  1.0000
  H   H15       1.0  0.67030  0.65531  0.10708  1.0000
  H   H16       1.0  0.32969  0.15532  0.39292  1.0000
  H   H17       1.0  0.40561  0.50468  0.18095  1.0000
  H   H18       1.0  0.59438  0.00469  0.31905  1.0000
  H   H19       1.0  0.59440  0.49532  0.81905  1.0000
  H   H20       1.0  0.40562  0.99531  0.68095  1.0000
  C   C1        1.0  0.15713  0.22169  0.03862  1.0000
  C   C2        1.0  0.84287  0.72169  0.46137  1.0000
  C   C3        1.0  0.84288  0.77831  0.96138  1.0000
  C   C4        1.0  0.15713  0.27831  0.53863  1.0000
  C   C5        1.0  0.18779  0.32064  0.08815  1.0000
  C   C6        1.0  0.81221  0.82064  0.41184  1.0000
  C   C7        1.0  0.81222  0.67936  0.91185  1.0000
  C   C8        1.0  0.18778  0.17936  0.58816  1.0000
  C   C9        1.0  0.06299  0.32381  0.18181  1.0000
  C   C10       1.0  0.93702  0.82381  0.31819  1.0000
  C   C11       1.0  0.93702  0.67619  0.81819  1.0000
  C   C12       1.0  0.06298  0.17619  0.68181  1.0000
  C   C13       1.0  0.93800  0.22956  0.21878  1.0000
  C   C14       1.0  0.06200  0.72956  0.28121  1.0000
  C   C15       1.0  0.06200  0.77044  0.78122  1.0000
  C   C16       1.0  0.93800  0.27044  0.71879  1.0000
  C   C17       1.0  0.34383  0.41228  0.04277  1.0000
  C   C18       1.0  0.65617  0.91228  0.45723  1.0000
  C   C19       1.0  0.65618  0.58772  0.95723  1.0000
  C   C20       1.0  0.34382  0.08772  0.54277  1.0000
  C   C21       1.0  0.40530  0.41210  0.94100  1.0000
  C   C22       1.0  0.59470  0.91210  0.55899  1.0000
  C   C23       1.0  0.59470  0.58790  0.05900  1.0000
  C   C24       1.0  0.40529  0.08790  0.44101  1.0000
  C   C25       1.0  0.44137  0.50224  0.10117  1.0000
  C   C26       1.0  0.55862  0.00224  0.39883  1.0000
  C   C27       1.0  0.55863  0.49776  0.89883  1.0000
  C   C28       1.0  0.44138  0.99776  0.60117  1.0000
  Br  Br1       1.0  0.40348  0.91791  0.12371  1.0000
  Br  Br2       1.0  0.59653  0.41790  0.37629  1.0000
  Br  Br3       1.0  0.59651  0.08209  0.87629  1.0000
  Br  Br4       1.0  0.40347  0.58211  0.62372  1.0000
  N   N1        1.0  0.92682  0.13624  0.17015  1.0000
  N   N2        1.0  0.07318  0.63625  0.32984  1.0000
  N   N3        1.0  0.07318  0.86376  0.82985  1.0000
  N   N4        1.0  0.92682  0.36376  0.67016  1.0000
  N   N5        1.0  0.03220  0.13522  0.07922  1.0000
  N   N6        1.0  0.96779  0.63523  0.42077  1.0000
  N   N7        1.0  0.96781  0.86478  0.92077  1.0000
  N   N8        1.0  0.03221  0.36477  0.57923  1.0000
