data_image0
_chemical_formula_structural       Cu2H22C22N4O8
_chemical_formula_sum              "Cu2 H22 C22 N4 O8"
_cell_length_a       7.27273
_cell_length_b       8.165
_cell_length_c       10.6942
_cell_angle_alpha    83.0662
_cell_angle_beta     105.376
_cell_angle_gamma    89.6164

_space_group_name_H-M_alt    "P 1"
_space_group_IT_number       1

loop_
  _space_group_symop_operation_xyz
  'x, y, z'

loop_
  _atom_site_type_symbol
  _atom_site_label
  _atom_site_symmetry_multiplicity
  _atom_site_fract_x
  _atom_site_fract_y
  _atom_site_fract_z
  _atom_site_occupancy
  Cu  Cu1       1.0  0.36738  0.44146  0.40796  1.0000
  Cu  Cu2       1.0  0.63261  0.55854  0.59203  1.0000
  H   H1        1.0  0.95044  0.24984  0.97986  1.0000
  H   H2        1.0  0.04956  0.75018  0.02015  1.0000
  H   H3        1.0  0.69036  0.20521  0.30142  1.0000
  H   H4        1.0  0.30961  0.79485  0.69858  1.0000
  H   H5        1.0  0.98333  0.33796  0.42354  1.0000
  H   H6        1.0  0.01668  0.66204  0.57647  1.0000
  H   H7        1.0  0.43254  0.18057  0.15527  1.0000
  H   H8        1.0  0.56745  0.81944  0.84472  1.0000
  H   H9        1.0  0.81014  0.00516  0.94427  1.0000
  H   H10       1.0  0.18987  0.99486  0.05573  1.0000
  H   H11       1.0  0.77653  0.99290  0.49020  1.0000
  H   H12       1.0  0.22345  0.00709  0.50981  1.0000
  H   H13       1.0  0.94164  0.06583  0.62806  1.0000
  H   H14       1.0  0.05834  0.93419  0.37193  1.0000
  H   H15       1.0  0.72332  0.97458  0.64172  1.0000
  H   H16       1.0  0.27667  0.02542  0.35829  1.0000
  H   H17       1.0  0.28411  0.38099  0.86807  1.0000
  H   H18       1.0  0.71591  0.61899  0.13192  1.0000
  H   H19       1.0  0.08684  0.32493  0.73924  1.0000
  H   H20       1.0  0.91319  0.67508  0.26072  1.0000
  H   H21       1.0  0.29135  0.18961  0.80583  1.0000
  H   H22       1.0  0.70864  0.81036  0.19416  1.0000
  C   C1        1.0  0.94973  0.25871  0.08080  1.0000
  C   C2        1.0  0.05027  0.74130  0.91922  1.0000
  C   C3        1.0  0.79570  0.20290  0.12949  1.0000
  C   C4        1.0  0.20429  0.79711  0.87052  1.0000
  C   C5        1.0  0.80405  0.23754  0.25526  1.0000
  C   C6        1.0  0.19595  0.76248  0.74476  1.0000
  C   C7        1.0  0.96514  0.31126  0.32363  1.0000
  C   C8        1.0  0.03487  0.68875  0.67638  1.0000
  C   C9        1.0  0.64173  0.10582  0.05873  1.0000
  C   C10       1.0  0.35827  0.89420  0.94128  1.0000
  C   C11       1.0  0.46537  0.09892  0.08988  1.0000
  C   C12       1.0  0.53463  0.90109  0.91012  1.0000
  C   C13       1.0  0.67288  0.00594  0.96733  1.0000
  C   C14       1.0  0.32712  0.99407  0.03268  1.0000
  C   C15       1.0  0.68571  0.22049  0.54557  1.0000
  C   C16       1.0  0.31425  0.77949  0.45442  1.0000
  C   C17       1.0  0.79122  0.05393  0.57788  1.0000
  C   C18       1.0  0.20876  0.94607  0.42212  1.0000
  C   C19       1.0  0.33888  0.39353  0.67829  1.0000
  C   C20       1.0  0.66115  0.60643  0.32171  1.0000
  C   C21       1.0  0.24228  0.31983  0.77980  1.0000
  C   C22       1.0  0.75774  0.68015  0.22019  1.0000
  N   N1        1.0  0.11355  0.34839  0.27452  1.0000
  N   N2        1.0  0.88647  0.65161  0.72549  1.0000
  N   N3        1.0  0.10384  0.32612  0.15107  1.0000
  N   N4        1.0  0.89617  0.67388  0.84895  1.0000
  O   O1        1.0  0.53296  0.23368  0.45216  1.0000
  O   O2        1.0  0.46697  0.76627  0.54786  1.0000
  O   O3        1.0  0.75713  0.33205  0.61521  1.0000
  O   O4        1.0  0.24287  0.66796  0.38474  1.0000
  O   O5        1.0  0.26354  0.36572  0.56112  1.0000
  O   O6        1.0  0.73647  0.63429  0.43888  1.0000
  O   O7        1.0  0.48809  0.47326  0.71868  1.0000
  O   O8        1.0  0.51198  0.52666  0.28132  1.0000
