data_image0
_chemical_formula_structural       Zn2H16C20S8N20
_chemical_formula_sum              "Zn2 H16 C20 S8 N20"
_cell_length_a       7.66497
_cell_length_b       9.54315
_cell_length_c       13.0387
_cell_angle_alpha    79.3381
_cell_angle_beta     72.9034
_cell_angle_gamma    66.3031

_space_group_name_H-M_alt    "P 1"
_space_group_IT_number       1

loop_
  _space_group_symop_operation_xyz
  'x, y, z'

loop_
  _atom_site_type_symbol
  _atom_site_label
  _atom_site_symmetry_multiplicity
  _atom_site_fract_x
  _atom_site_fract_y
  _atom_site_fract_z
  _atom_site_occupancy
  Zn  Zn1       1.0  0.14946  0.23777  0.25380  1.0000
  Zn  Zn2       1.0  0.64121  0.76219  0.74624  1.0000
  H   H1        1.0  0.85747  0.28242  0.10020  1.0000
  H   H2        1.0  0.24029  0.71781  0.89969  1.0000
  H   H3        1.0  0.01009  0.60927  0.19340  1.0000
  H   H4        1.0  0.81290  0.39051  0.80657  1.0000
  H   H5        1.0  0.79207  0.79616  0.96195  1.0000
  H   H6        1.0  0.54987  0.20385  0.03788  1.0000
  H   H7        1.0  0.83574  0.84409  0.07653  1.0000
  H   H8        1.0  0.75613  0.15582  0.92332  1.0000
  H   H9        1.0  0.02686  0.33305  0.49754  1.0000
  H   H10       1.0  0.85752  0.66656  0.50269  1.0000
  H   H11       1.0  0.77243  0.11819  0.36066  1.0000
  H   H12       1.0  0.25116  0.88177  0.63940  1.0000
  H   H13       1.0  0.55675  0.09635  0.64730  1.0000
  H   H14       1.0  0.30062  0.90345  0.35267  1.0000
  H   H15       1.0  0.47869  0.12306  0.52657  1.0000
  H   H16       1.0  0.12834  0.87709  0.47344  1.0000
  C   C1        1.0  0.86931  0.39089  0.10477  1.0000
  C   C2        1.0  0.36507  0.60924  0.89514  1.0000
  C   C3        1.0  0.95151  0.55368  0.15376  1.0000
  C   C4        1.0  0.65908  0.44623  0.84619  1.0000
  C   C5        1.0  0.75897  0.78617  0.05053  1.0000
  C   C6        1.0  0.59541  0.21390  0.94931  1.0000
  C   C7        1.0  0.54327  0.86012  0.09818  1.0000
  C   C8        1.0  0.50125  0.14010  0.90163  1.0000
  C   C9        1.0  0.18295  0.95820  0.15375  1.0000
  C   C10       1.0  0.29464  0.04195  0.84610  1.0000
  C   C11       1.0  0.92790  0.28474  0.48698  1.0000
  C   C12       1.0  0.69964  0.71494  0.51319  1.0000
  C   C13       1.0  0.80170  0.17373  0.41614  1.0000
  C   C14       1.0  0.39152  0.82624  0.58393  1.0000
  C   C15       1.0  0.52022  0.17723  0.57794  1.0000
  C   C16       1.0  0.27542  0.82275  0.42212  1.0000
  C   C17       1.0  0.34852  0.32038  0.61447  1.0000
  C   C18       1.0  0.28325  0.67958  0.38571  1.0000
  C   C19       1.0  0.09750  0.55469  0.68534  1.0000
  C   C20       1.0  0.33723  0.44534  0.31485  1.0000
  S   S1        1.0  0.36505  0.79977  0.08625  1.0000
  S   S2        1.0  0.25074  0.20046  0.91351  1.0000
  S   S3        1.0  0.94195  0.99667  0.17820  1.0000
  S   S4        1.0  0.11658  0.00350  0.82164  1.0000
  S   S5        1.0  0.35394  0.47318  0.66600  1.0000
  S   S6        1.0  0.49303  0.52664  0.33417  1.0000
  S   S7        1.0  0.96170  0.73214  0.73497  1.0000
  S   S8        1.0  0.42849  0.26796  0.26515  1.0000
  N   N1        1.0  0.97776  0.40466  0.16661  1.0000
  N   N2        1.0  0.54924  0.59531  0.83336  1.0000
  N   N3        1.0  0.83476  0.62395  0.08609  1.0000
  N   N4        1.0  0.54472  0.37609  0.91379  1.0000
  N   N5        1.0  0.78011  0.52260  0.05404  1.0000
  N   N6        1.0  0.35667  0.47757  0.94580  1.0000
  N   N7        1.0  0.47117  0.98410  0.14954  1.0000
  N   N8        1.0  0.60459  0.01605  0.85032  1.0000
  N   N9        1.0  0.27089  0.03971  0.18086  1.0000
  N   N10       1.0  0.49128  0.96038  0.81906  1.0000
  N   N11       1.0  0.95143  0.22227  0.39505  1.0000
  N   N12       1.0  0.56872  0.77756  0.60507  1.0000
  N   N13       1.0  0.69610  0.20585  0.51691  1.0000
  N   N14       1.0  0.41889  0.79404  0.48317  1.0000
  N   N15       1.0  0.77409  0.27574  0.56357  1.0000
  N   N16       1.0  0.61350  0.72401  0.43657  1.0000
  N   N17       1.0  0.17132  0.33473  0.61494  1.0000
  N   N18       1.0  0.12078  0.66539  0.38526  1.0000
  N   N19       1.0  0.02786  0.46599  0.65527  1.0000
  N   N20       1.0  0.14881  0.53416  0.34496  1.0000
