data_image0
_chemical_formula_structural       Zn4H28C16N12O28
_chemical_formula_sum              "Zn4 H28 C16 N12 O28"
_cell_length_a       6.61981
_cell_length_b       10.5883
_cell_length_c       12.4387
_cell_angle_alpha    107.089
_cell_angle_beta     89.9999
_cell_angle_gamma    89.9999

_space_group_name_H-M_alt    "P 1"
_space_group_IT_number       1

loop_
  _space_group_symop_operation_xyz
  'x, y, z'

loop_
  _atom_site_type_symbol
  _atom_site_label
  _atom_site_symmetry_multiplicity
  _atom_site_fract_x
  _atom_site_fract_y
  _atom_site_fract_z
  _atom_site_occupancy
  Zn  Zn1       1.0  0.69348  0.33164  0.54551  1.0000
  Zn  Zn2       1.0  0.19348  0.16836  0.95449  1.0000
  Zn  Zn3       1.0  0.30652  0.66836  0.45449  1.0000
  Zn  Zn4       1.0  0.80652  0.83164  0.04551  1.0000
  H   H1        1.0  0.85784  0.84011  0.28929  1.0000
  H   H2        1.0  0.35784  0.65989  0.21071  1.0000
  H   H3        1.0  0.14216  0.15989  0.71071  1.0000
  H   H4        1.0  0.64216  0.34011  0.78929  1.0000
  H   H5        1.0  0.02475  0.41158  0.69031  1.0000
  H   H6        1.0  0.52474  0.08843  0.80969  1.0000
  H   H7        1.0  0.97525  0.58843  0.30969  1.0000
  H   H8        1.0  0.47525  0.91157  0.19031  1.0000
  H   H9        1.0  0.05705  0.44208  0.57649  1.0000
  H   H10       1.0  0.55705  0.05792  0.92351  1.0000
  H   H11       1.0  0.94295  0.55791  0.42351  1.0000
  H   H12       1.0  0.44296  0.94209  0.07649  1.0000
  H   H13       1.0  0.32497  0.22139  0.49515  1.0000
  H   H14       1.0  0.82497  0.27861  0.00485  1.0000
  H   H15       1.0  0.67503  0.77861  0.50485  1.0000
  H   H16       1.0  0.17503  0.72139  0.99515  1.0000
  H   H17       1.0  0.39145  0.27649  0.39353  1.0000
  H   H18       1.0  0.89144  0.22351  0.10647  1.0000
  H   H19       1.0  0.60856  0.72351  0.60648  1.0000
  H   H20       1.0  0.10856  0.77649  0.89352  1.0000
  H   H21       1.0  0.81570  0.34243  0.35507  1.0000
  H   H22       1.0  0.31570  0.15757  0.14493  1.0000
  H   H23       1.0  0.18430  0.65757  0.64493  1.0000
  H   H24       1.0  0.68430  0.84243  0.85507  1.0000
  H   H25       1.0  0.64977  0.45738  0.39514  1.0000
  H   H26       1.0  0.14977  0.04262  0.10486  1.0000
  H   H27       1.0  0.35023  0.54262  0.60486  1.0000
  H   H28       1.0  0.85023  0.95738  0.89514  1.0000
  C   C1        1.0  0.66383  0.09970  0.63175  1.0000
  C   C2        1.0  0.16382  0.40031  0.86824  1.0000
  C   C3        1.0  0.33617  0.90029  0.36825  1.0000
  C   C4        1.0  0.83617  0.59970  0.13175  1.0000
  C   C5        1.0  0.73945  0.04930  0.51363  1.0000
  C   C6        1.0  0.23944  0.45070  0.98637  1.0000
  C   C7        1.0  0.26055  0.95070  0.48636  1.0000
  C   C8        1.0  0.76055  0.54930  0.01363  1.0000
  C   C9        1.0  0.83275  0.05340  0.35077  1.0000
  C   C10       1.0  0.33275  0.44660  0.14924  1.0000
  C   C11       1.0  0.16725  0.94660  0.64923  1.0000
  C   C12       1.0  0.66726  0.55340  0.85076  1.0000
  C   C13       1.0  0.88955  0.09158  0.24813  1.0000
  C   C14       1.0  0.38955  0.40842  0.25187  1.0000
  C   C15       1.0  0.11046  0.90841  0.75187  1.0000
  C   C16       1.0  0.61046  0.59160  0.74813  1.0000
  N   N1        1.0  0.77107  0.92235  0.45721  1.0000
  N   N2        1.0  0.27107  0.57764  0.04279  1.0000
  N   N3        1.0  0.22892  0.07765  0.54279  1.0000
  N   N4        1.0  0.72892  0.42235  0.95721  1.0000
  N   N5        1.0  0.83121  0.92710  0.35538  1.0000
  N   N6        1.0  0.33120  0.57290  0.14462  1.0000
  N   N7        1.0  0.16880  0.07290  0.64462  1.0000
  N   N8        1.0  0.66880  0.42710  0.85538  1.0000
  N   N9        1.0  0.77625  0.13257  0.45112  1.0000
  N   N10       1.0  0.27625  0.36743  0.04888  1.0000
  N   N11       1.0  0.22375  0.86743  0.54888  1.0000
  N   N12       1.0  0.72375  0.63257  0.95112  1.0000
  O   O1        1.0  0.63751  0.22561  0.66605  1.0000
  O   O2        1.0  0.13751  0.27438  0.83395  1.0000
  O   O3        1.0  0.36248  0.77438  0.33395  1.0000
  O   O4        1.0  0.86249  0.72561  0.16605  1.0000
  O   O5        1.0  0.62851  0.01942  0.68581  1.0000
  O   O6        1.0  0.12851  0.48058  0.81420  1.0000
  O   O7        1.0  0.37149  0.98058  0.31419  1.0000
  O   O8        1.0  0.87149  0.51942  0.18580  1.0000
  O   O9        1.0  0.88356  0.21145  0.25117  1.0000
  O   O10       1.0  0.38356  0.28855  0.24883  1.0000
  O   O11       1.0  0.11644  0.78856  0.74883  1.0000
  O   O12       1.0  0.61644  0.71143  0.75117  1.0000
  O   O13       1.0  0.94643  0.99696  0.16351  1.0000
  O   O14       1.0  0.44643  0.50305  0.33649  1.0000
  O   O15       1.0  0.05357  0.00306  0.83650  1.0000
  O   O16       1.0  0.55357  0.49694  0.66350  1.0000
  O   O17       1.0  0.98131  0.38178  0.60920  1.0000
  O   O18       1.0  0.48131  0.11822  0.89079  1.0000
  O   O19       1.0  0.01869  0.61822  0.39079  1.0000
  O   O20       1.0  0.51869  0.88178  0.10921  1.0000
  O   O21       1.0  0.39699  0.29420  0.47630  1.0000
  O   O22       1.0  0.89699  0.20580  0.02369  1.0000
  O   O23       1.0  0.60301  0.70580  0.52369  1.0000
  O   O24       1.0  0.10301  0.79420  0.97631  1.0000
  O   O25       1.0  0.77311  0.41907  0.42061  1.0000
  O   O26       1.0  0.27311  0.08093  0.07939  1.0000
  O   O27       1.0  0.22690  0.58092  0.57939  1.0000
  O   O28       1.0  0.72690  0.91908  0.92062  1.0000
