data_image0
_chemical_formula_structural       Cu4H18C22Br6N4O4
_chemical_formula_sum              "Cu4 H18 C22 Br6 N4 O4"
_cell_length_a       8.80051
_cell_length_b       9.5836
_cell_length_c       10.1122
_cell_angle_alpha    73.4516
_cell_angle_beta     70.8233
_cell_angle_gamma    63.6218

_space_group_name_H-M_alt    "P 1"
_space_group_IT_number       1

loop_
  _space_group_symop_operation_xyz
  'x, y, z'

loop_
  _atom_site_type_symbol
  _atom_site_label
  _atom_site_symmetry_multiplicity
  _atom_site_fract_x
  _atom_site_fract_y
  _atom_site_fract_z
  _atom_site_occupancy
  Cu  Cu1       1.0  0.32800  0.96870  0.63941  1.0000
  Cu  Cu2       1.0  0.67200  0.03130  0.36058  1.0000
  Cu  Cu3       1.0  0.96148  0.05019  0.82126  1.0000
  Cu  Cu4       1.0  0.03851  0.94981  0.17874  1.0000
  H   H1        1.0  0.99780  0.87337  0.49891  1.0000
  H   H2        1.0  0.00220  0.12662  0.50109  1.0000
  H   H3        1.0  0.25700  0.46578  0.68849  1.0000
  H   H4        1.0  0.74300  0.53422  0.31152  1.0000
  H   H5        1.0  0.56673  0.28753  0.68013  1.0000
  H   H6        1.0  0.43328  0.71247  0.31986  1.0000
  H   H7        1.0  0.67568  0.95420  0.03716  1.0000
  H   H8        1.0  0.32432  0.04581  0.96283  1.0000
  H   H9        1.0  0.67374  0.69803  0.63992  1.0000
  H   H10       1.0  0.32626  0.30197  0.36007  1.0000
  H   H11       1.0  0.58228  0.73064  0.07896  1.0000
  H   H12       1.0  0.41771  0.26936  0.92104  1.0000
  H   H13       1.0  0.75443  0.52115  0.92262  1.0000
  H   H14       1.0  0.24557  0.47885  0.07738  1.0000
  H   H15       1.0  0.78268  0.40369  0.65547  1.0000
  H   H16       1.0  0.21732  0.59631  0.34452  1.0000
  H   H17       1.0  0.99592  0.55821  0.71981  1.0000
  H   H18       1.0  0.00408  0.44178  0.28019  1.0000
  C   C1        1.0  0.11757  0.79809  0.65584  1.0000
  C   C2        1.0  0.88244  0.20191  0.34416  1.0000
  C   C3        1.0  0.97079  0.76802  0.77825  1.0000
  C   C4        1.0  0.02922  0.23198  0.22176  1.0000
  C   C5        1.0  0.30144  0.67610  0.66814  1.0000
  C   C6        1.0  0.69856  0.32390  0.33186  1.0000
  C   C7        1.0  0.35145  0.51411  0.67951  1.0000
  C   C8        1.0  0.64856  0.48589  0.32049  1.0000
  C   C9        1.0  0.52515  0.41396  0.67582  1.0000
  C   C10       1.0  0.47485  0.58605  0.32418  1.0000
  C   C11       1.0  0.74471  0.86152  0.97168  1.0000
  C   C12       1.0  0.25529  0.13848  0.02832  1.0000
  C   C13       1.0  0.58704  0.63988  0.65185  1.0000
  C   C14       1.0  0.41296  0.36013  0.34815  1.0000
  C   C15       1.0  0.69516  0.73613  0.99476  1.0000
  C   C16       1.0  0.30484  0.26387  0.00525  1.0000
  C   C17       1.0  0.78897  0.62204  0.90665  1.0000
  C   C18       1.0  0.21102  0.37796  0.09335  1.0000
  C   C19       1.0  0.64532  0.47783  0.66166  1.0000
  C   C20       1.0  0.35468  0.52217  0.33833  1.0000
  C   C21       1.0  0.92639  0.64031  0.79534  1.0000
  C   C22       1.0  0.07361  0.35969  0.20466  1.0000
  Br  Br1       1.0  0.12138  0.22528  0.71082  1.0000
  Br  Br2       1.0  0.87861  0.77472  0.28918  1.0000
  Br  Br3       1.0  0.76114  0.20242  0.99786  1.0000
  Br  Br4       1.0  0.23886  0.79758  0.00214  1.0000
  Br  Br5       1.0  0.57572  0.99827  0.65770  1.0000
  Br  Br6       1.0  0.42428  0.00172  0.34230  1.0000
  N   N1        1.0  0.41909  0.73595  0.65538  1.0000
  N   N2        1.0  0.58091  0.26405  0.34462  1.0000
  N   N3        1.0  0.88105  0.87530  0.86673  1.0000
  N   N4        1.0  0.11895  0.12470  0.13327  1.0000
  O   O1        1.0  0.10659  0.95093  0.65043  1.0000
  O   O2        1.0  0.89342  0.04907  0.34957  1.0000
  O   O3        1.0  0.10081  0.78342  0.52610  1.0000
  O   O4        1.0  0.89919  0.21657  0.47390  1.0000
