data_image0
_chemical_formula_structural       Cd2H60C56S4N4O12
_chemical_formula_sum              "Cd2 H60 C56 S4 N4 O12"
_cell_length_a       10.9278
_cell_length_b       11.77
_cell_length_c       12.1799
_cell_angle_alpha    118.904
_cell_angle_beta     94.5046
_cell_angle_gamma    89.9841

_space_group_name_H-M_alt    "P 1"
_space_group_IT_number       1

loop_
  _space_group_symop_operation_xyz
  'x, y, z'

loop_
  _atom_site_type_symbol
  _atom_site_label
  _atom_site_symmetry_multiplicity
  _atom_site_fract_x
  _atom_site_fract_y
  _atom_site_fract_z
  _atom_site_occupancy
  Cd  Cd1       1.0  0.75000  0.95235  0.00004  1.0000
  Cd  Cd2       1.0  0.25000  0.04765  0.99996  1.0000
  H   H1        1.0  0.62184  0.80333  0.78134  1.0000
  H   H2        1.0  0.87823  0.02217  0.21876  1.0000
  H   H3        1.0  0.37816  0.19668  0.21866  1.0000
  H   H4        1.0  0.12178  0.97783  0.78124  1.0000
  H   H5        1.0  0.51111  0.90603  0.84061  1.0000
  H   H6        1.0  0.98884  0.06560  0.15940  1.0000
  H   H7        1.0  0.48889  0.09397  0.15939  1.0000
  H   H8        1.0  0.01116  0.93440  0.84060  1.0000
  H   H9        1.0  0.81405  0.48058  0.59014  1.0000
  H   H10       1.0  0.68594  0.89052  0.40989  1.0000
  H   H11       1.0  0.18595  0.51941  0.40986  1.0000
  H   H12       1.0  0.31406  0.10948  0.59011  1.0000
  H   H13       1.0  0.75688  0.26245  0.55157  1.0000
  H   H14       1.0  0.74302  0.71098  0.44860  1.0000
  H   H15       1.0  0.24312  0.73755  0.44843  1.0000
  H   H16       1.0  0.25697  0.28902  0.55140  1.0000
  H   H17       1.0  0.10734  0.23926  0.72510  1.0000
  H   H18       1.0  0.39264  0.51430  0.27486  1.0000
  H   H19       1.0  0.89266  0.76074  0.27490  1.0000
  H   H20       1.0  0.60736  0.48570  0.72514  1.0000
  H   H21       1.0  0.16888  0.45568  0.75813  1.0000
  H   H22       1.0  0.33113  0.69768  0.24178  1.0000
  H   H23       1.0  0.83112  0.54432  0.24187  1.0000
  H   H24       1.0  0.66886  0.30232  0.75822  1.0000
  H   H25       1.0  0.86781  0.03501  0.50991  1.0000
  H   H26       1.0  0.63212  0.52539  0.49021  1.0000
  H   H27       1.0  0.13219  0.96499  0.49009  1.0000
  H   H28       1.0  0.36788  0.47461  0.50978  1.0000
  H   H29       1.0  0.80646  0.10016  0.65702  1.0000
  H   H30       1.0  0.69349  0.44322  0.34311  1.0000
  H   H31       1.0  0.19354  0.89984  0.34298  1.0000
  H   H32       1.0  0.30650  0.55678  0.65689  1.0000
  H   H33       1.0  0.96301  0.05816  0.64594  1.0000
  H   H34       1.0  0.53695  0.41239  0.35421  1.0000
  H   H35       1.0  0.03699  0.94184  0.35406  1.0000
  H   H36       1.0  0.46305  0.58761  0.64579  1.0000
  H   H37       1.0  0.98277  0.76207  0.61212  1.0000
  H   H38       1.0  0.51719  0.15010  0.38794  1.0000
  H   H39       1.0  0.01723  0.23794  0.38789  1.0000
  H   H40       1.0  0.48281  0.84990  0.61206  1.0000
  H   H41       1.0  0.89552  0.61268  0.54205  1.0000
  H   H42       1.0  0.60444  0.07074  0.45796  1.0000
  H   H43       1.0  0.10448  0.38732  0.45795  1.0000
  H   H44       1.0  0.39556  0.92926  0.54204  1.0000
  H   H45       1.0  0.59069  0.20505  0.09354  1.0000
  H   H46       1.0  0.90925  0.11145  0.90648  1.0000
  H   H47       1.0  0.40930  0.79495  0.90646  1.0000
  H   H48       1.0  0.09075  0.88855  0.09352  1.0000
  H   H49       1.0  0.58564  0.41616  0.10001  1.0000
  H   H50       1.0  0.91424  0.31612  0.90009  1.0000
  H   H51       1.0  0.41436  0.58384  0.90000  1.0000
  H   H52       1.0  0.08576  0.68387  0.09991  1.0000
  H   H53       1.0  0.58296  0.58266  0.09636  1.0000
  H   H54       1.0  0.91688  0.48619  0.90374  1.0000
  H   H55       1.0  0.41705  0.41734  0.90364  1.0000
  H   H56       1.0  0.08312  0.51381  0.09626  1.0000
  H   H57       1.0  0.91134  0.69928  0.91184  1.0000
  H   H58       1.0  0.58860  0.78767  0.08829  1.0000
  H   H59       1.0  0.08866  0.30072  0.08815  1.0000
  H   H60       1.0  0.41140  0.21233  0.91171  1.0000
  C   C1        1.0  0.99683  0.48442  0.67642  1.0000
  C   C2        1.0  0.50312  0.80813  0.32353  1.0000
  C   C3        1.0  0.00317  0.51558  0.32358  1.0000
  C   C4        1.0  0.49688  0.19187  0.67647  1.0000
  C   C5        1.0  0.87979  0.42873  0.61941  1.0000
  C   C6        1.0  0.62016  0.80944  0.38064  1.0000
  C   C7        1.0  0.12021  0.57127  0.38059  1.0000
  C   C8        1.0  0.37984  0.19055  0.61935  1.0000
  C   C9        1.0  0.84710  0.30493  0.59873  1.0000
  C   C10       1.0  0.65283  0.70632  0.40137  1.0000
  C   C11       1.0  0.15289  0.69507  0.40126  1.0000
  C   C12       1.0  0.34717  0.29368  0.59863  1.0000
  C   C13       1.0  0.92664  0.23357  0.63597  1.0000
  C   C14       1.0  0.57330  0.59774  0.36411  1.0000
  C   C15       1.0  0.07336  0.76644  0.36403  1.0000
  C   C16       1.0  0.42670  0.40226  0.63589  1.0000
  C   C17       1.0  0.04220  0.29191  0.69566  1.0000
  C   C18       1.0  0.45778  0.59637  0.30437  1.0000
  C   C19       1.0  0.95779  0.70809  0.30434  1.0000
  C   C20       1.0  0.54222  0.40362  0.69563  1.0000
  C   C21       1.0  0.07713  0.41472  0.71515  1.0000
  C   C22       1.0  0.42286  0.69968  0.28483  1.0000
  C   C23       1.0  0.92286  0.58529  0.28485  1.0000
  C   C24       1.0  0.57713  0.30032  0.71516  1.0000
  C   C25       1.0  0.88965  0.09973  0.61141  1.0000
  C   C26       1.0  0.61030  0.48849  0.38871  1.0000
  C   C27       1.0  0.11035  0.90027  0.38859  1.0000
  C   C28       1.0  0.38970  0.51151  0.61129  1.0000
  C   C29       1.0  0.93495  0.69256  0.63201  1.0000
  C   C30       1.0  0.56505  0.06066  0.36798  1.0000
  C   C31       1.0  0.06506  0.30744  0.36799  1.0000
  C   C32       1.0  0.43495  0.93934  0.63202  1.0000
  C   C33       1.0  0.83561  0.76142  0.72081  1.0000
  C   C34       1.0  0.66443  0.04075  0.27927  1.0000
  C   C35       1.0  0.16439  0.23858  0.27919  1.0000
  C   C36       1.0  0.33557  0.95924  0.72073  1.0000
  C   C37       1.0  0.66185  0.23321  0.05227  1.0000
  C   C38       1.0  0.83803  0.18089  0.94775  1.0000
  C   C39       1.0  0.33815  0.76679  0.94773  1.0000
  C   C40       1.0  0.16197  0.81911  0.05225  1.0000
  C   C41       1.0  0.65905  0.35222  0.05445  1.0000
  C   C42       1.0  0.84077  0.29774  0.94557  1.0000
  C   C43       1.0  0.34095  0.64778  0.94555  1.0000
  C   C44       1.0  0.15923  0.70226  0.05443  1.0000
  C   C45       1.0  0.74991  0.38749  0.00001  1.0000
  C   C46       1.0  0.25009  0.61251  0.99999  1.0000
  C   C47       1.0  0.74990  0.51309  0.00002  1.0000
  C   C48       1.0  0.25011  0.48691  0.99998  1.0000
  C   C49       1.0  0.65746  0.60161  0.05229  1.0000
  C   C50       1.0  0.84240  0.54928  0.94783  1.0000
  C   C51       1.0  0.34254  0.39840  0.94772  1.0000
  C   C52       1.0  0.15761  0.45073  0.05217  1.0000
  C   C53       1.0  0.66031  0.71820  0.04949  1.0000
  C   C54       1.0  0.83961  0.66869  0.95066  1.0000
  C   C55       1.0  0.33969  0.28180  0.95051  1.0000
  C   C56       1.0  0.16039  0.33131  0.04934  1.0000
  S   S1        1.0  0.05642  0.63435  0.69927  1.0000
  S   S2        1.0  0.44363  0.93520  0.30064  1.0000
  S   S3        1.0  0.94358  0.36565  0.30074  1.0000
  S   S4        1.0  0.55637  0.06480  0.69936  1.0000
  N   N1        1.0  0.74994  0.14850  0.99997  1.0000
  N   N2        1.0  0.25006  0.85150  0.00003  1.0000
  N   N3        1.0  0.74998  0.75194  0.00009  1.0000
  N   N4        1.0  0.25002  0.24806  0.99991  1.0000
  O   O1        1.0  0.87313  0.85927  0.82764  1.0000
  O   O2        1.0  0.62694  0.03183  0.17245  1.0000
  O   O3        1.0  0.12688  0.14073  0.17236  1.0000
  O   O4        1.0  0.37306  0.96817  0.82755  1.0000
  O   O5        1.0  0.57660  0.85616  0.85804  1.0000
  O   O6        1.0  0.92340  0.99832  0.14205  1.0000
  O   O7        1.0  0.42340  0.14384  0.14196  1.0000
  O   O8        1.0  0.07660  0.00168  0.85795  1.0000
  O   O9        1.0  0.72598  0.71890  0.68428  1.0000
  O   O10       1.0  0.77404  0.03470  0.31581  1.0000
  O   O11       1.0  0.27402  0.28110  0.31572  1.0000
  O   O12       1.0  0.22596  0.96529  0.68419  1.0000
