data_image0
_chemical_formula_structural       Cu6H20C24N4Cl4O12
_chemical_formula_sum              "Cu6 H20 C24 N4 Cl4 O12"
_cell_length_a       6.94476
_cell_length_b       10.0214
_cell_length_c       12.993
_cell_angle_alpha    89.9985
_cell_angle_beta     90.0034
_cell_angle_gamma    109.729

_space_group_name_H-M_alt    "P 1"
_space_group_IT_number       1

loop_
  _space_group_symop_operation_xyz
  'x, y, z'

loop_
  _atom_site_type_symbol
  _atom_site_label
  _atom_site_symmetry_multiplicity
  _atom_site_fract_x
  _atom_site_fract_y
  _atom_site_fract_z
  _atom_site_occupancy
  Cu  Cu1       1.0  0.73973  0.80957  0.32326  1.0000
  Cu  Cu2       1.0  0.76025  0.19043  0.82327  1.0000
  Cu  Cu3       1.0  0.26027  0.19043  0.67678  1.0000
  Cu  Cu4       1.0  0.23973  0.80955  0.17672  1.0000
  Cu  Cu5       1.0  0.00011  0.00001  0.50003  1.0000
  Cu  Cu6       1.0  0.49999  0.99997  1.00000  1.0000
  H   H1        1.0  0.71200  0.01603  0.40473  1.0000
  H   H2        1.0  0.78793  0.98394  0.90468  1.0000
  H   H3        1.0  0.28809  0.98399  0.59531  1.0000
  H   H4        1.0  0.21202  0.01603  0.09530  1.0000
  H   H5        1.0  0.65523  0.20767  0.60360  1.0000
  H   H6        1.0  0.84479  0.79235  0.10358  1.0000
  H   H7        1.0  0.34474  0.79235  0.39640  1.0000
  H   H8        1.0  0.15515  0.20765  0.89641  1.0000
  H   H9        1.0  0.67780  0.40306  0.47835  1.0000
  H   H10       1.0  0.82226  0.59695  0.97834  1.0000
  H   H11       1.0  0.32230  0.59695  0.52164  1.0000
  H   H12       1.0  0.17772  0.40306  0.02166  1.0000
  H   H13       1.0  0.00717  0.70232  0.70933  1.0000
  H   H14       1.0  0.49278  0.29765  0.20935  1.0000
  H   H15       1.0  0.99292  0.29766  0.29067  1.0000
  H   H16       1.0  0.50721  0.70235  0.79064  1.0000
  H   H17       1.0  0.95566  0.49524  0.82858  1.0000
  H   H18       1.0  0.54421  0.50474  0.32859  1.0000
  H   H19       1.0  0.04428  0.50475  0.17144  1.0000
  H   H20       1.0  0.45576  0.49525  0.67139  1.0000
  C   C1        1.0  0.72805  0.31874  0.62427  1.0000
  C   C2        1.0  0.77194  0.68127  0.12428  1.0000
  C   C3        1.0  0.27194  0.68126  0.37573  1.0000
  C   C4        1.0  0.22802  0.31872  0.87572  1.0000
  C   C5        1.0  0.74392  0.42769  0.55484  1.0000
  C   C6        1.0  0.75608  0.57231  0.05482  1.0000
  C   C7        1.0  0.25609  0.57230  0.44517  1.0000
  C   C8        1.0  0.24388  0.42768  0.94517  1.0000
  C   C9        1.0  0.84459  0.56798  0.58483  1.0000
  C   C10       1.0  0.65542  0.43202  0.08481  1.0000
  C   C11       1.0  0.15548  0.43199  0.41519  1.0000
  C   C12       1.0  0.34456  0.56798  0.91518  1.0000
  C   C13       1.0  0.92701  0.59410  0.68398  1.0000
  C   C14       1.0  0.57294  0.40589  0.18396  1.0000
  C   C15       1.0  0.07305  0.40590  0.31604  1.0000
  C   C16       1.0  0.42703  0.59411  0.81601  1.0000
  C   C17       1.0  0.90070  0.48025  0.74968  1.0000
  C   C18       1.0  0.59923  0.51975  0.24970  1.0000
  C   C19       1.0  0.09928  0.51977  0.25033  1.0000
  C   C20       1.0  0.40076  0.48023  0.75030  1.0000
  C   C21       1.0  0.86331  0.69109  0.51449  1.0000
  C   C22       1.0  0.63669  0.30889  0.01446  1.0000
  C   C23       1.0  0.13678  0.30890  0.48554  1.0000
  C   C24       1.0  0.36325  0.69109  0.98553  1.0000
  N   N1        1.0  0.80236  0.34521  0.72082  1.0000
  N   N2        1.0  0.69757  0.65480  0.22083  1.0000
  N   N3        1.0  0.19758  0.65483  0.27918  1.0000
  N   N4        1.0  0.30238  0.34518  0.77917  1.0000
  Cl  Cl1       1.0  0.63526  0.94822  0.21008  1.0000
  Cl  Cl2       1.0  0.86477  0.05181  0.71009  1.0000
  Cl  Cl3       1.0  0.36468  0.05176  0.78991  1.0000
  Cl  Cl4       1.0  0.13526  0.94824  0.28988  1.0000
  O   O1        1.0  0.98281  0.81021  0.54628  1.0000
  O   O2        1.0  0.51712  0.18983  0.04632  1.0000
  O   O3        1.0  0.01721  0.18983  0.45369  1.0000
  O   O4        1.0  0.48287  0.81016  0.95369  1.0000
  O   O5        1.0  0.75972  0.66505  0.43205  1.0000
  O   O6        1.0  0.74032  0.33498  0.93203  1.0000
  O   O7        1.0  0.24042  0.33504  0.56796  1.0000
  O   O8        1.0  0.25962  0.66501  0.06796  1.0000
  O   O9        1.0  0.73124  0.93273  0.43611  1.0000
  O   O10       1.0  0.76873  0.06727  0.93609  1.0000
  O   O11       1.0  0.26878  0.06729  0.56386  1.0000
  O   O12       1.0  0.23119  0.93269  0.06390  1.0000
