data_image0
_chemical_formula_structural       Cu6H20C24Br4N4O12
_chemical_formula_sum              "Cu6 H20 C24 Br4 N4 O12"
_cell_length_a       7.0953
_cell_length_b       10.1782
_cell_length_c       13.0939
_cell_angle_alpha    89.8843
_cell_angle_beta     89.9718
_cell_angle_gamma    112.677

_space_group_name_H-M_alt    "P 1"
_space_group_IT_number       1

loop_
  _space_group_symop_operation_xyz
  'x, y, z'

loop_
  _atom_site_type_symbol
  _atom_site_label
  _atom_site_symmetry_multiplicity
  _atom_site_fract_x
  _atom_site_fract_y
  _atom_site_fract_z
  _atom_site_occupancy
  Cu  Cu1       1.0  0.24448  0.19313  0.67930  1.0000
  Cu  Cu2       1.0  0.25608  0.80815  0.17856  1.0000
  Cu  Cu3       1.0  0.75624  0.80697  0.32084  1.0000
  Cu  Cu4       1.0  0.74451  0.19232  0.82162  1.0000
  Cu  Cu5       1.0  0.00111  0.99960  0.49871  1.0000
  Cu  Cu6       1.0  0.49983  0.00018  0.99980  1.0000
  H   H1        1.0  0.27564  0.99079  0.59967  1.0000
  H   H2        1.0  0.22246  0.00946  0.09752  1.0000
  H   H3        1.0  0.72372  0.00848  0.40030  1.0000
  H   H4        1.0  0.77774  0.99129  0.90204  1.0000
  H   H5        1.0  0.36901  0.79449  0.39696  1.0000
  H   H6        1.0  0.13084  0.20622  0.89757  1.0000
  H   H7        1.0  0.63124  0.20536  0.60319  1.0000
  H   H8        1.0  0.86913  0.79393  0.10244  1.0000
  H   H9        1.0  0.33576  0.59985  0.52149  1.0000
  H   H10       1.0  0.16400  0.40044  0.02183  1.0000
  H   H11       1.0  0.66409  0.39994  0.47858  1.0000
  H   H12       1.0  0.83613  0.59970  0.97821  1.0000
  H   H13       1.0  0.98162  0.29707  0.29576  1.0000
  H   H14       1.0  0.51768  0.70405  0.79525  1.0000
  H   H15       1.0  0.01811  0.70304  0.70419  1.0000
  H   H16       1.0  0.48261  0.29610  0.20480  1.0000
  H   H17       1.0  0.04016  0.50381  0.17744  1.0000
  H   H18       1.0  0.45896  0.49771  0.67716  1.0000
  H   H19       1.0  0.95987  0.49639  0.82259  1.0000
  H   H20       1.0  0.54092  0.50242  0.32284  1.0000
  C   C1        1.0  0.28677  0.68297  0.37723  1.0000
  C   C2        1.0  0.21295  0.31778  0.87758  1.0000
  C   C3        1.0  0.71326  0.31693  0.62289  1.0000
  C   C4        1.0  0.78709  0.68239  0.12246  1.0000
  C   C5        1.0  0.26565  0.57426  0.44642  1.0000
  C   C6        1.0  0.23412  0.42629  0.94664  1.0000
  C   C7        1.0  0.73419  0.42557  0.55366  1.0000
  C   C8        1.0  0.76605  0.57388  0.05342  1.0000
  C   C9        1.0  0.15604  0.43300  0.41777  1.0000
  C   C10       1.0  0.34363  0.56763  0.91770  1.0000
  C   C11       1.0  0.84375  0.56687  0.58223  1.0000
  C   C12       1.0  0.65662  0.43255  0.08239  1.0000
  C   C13       1.0  0.06871  0.40592  0.32038  1.0000
  C   C14       1.0  0.43071  0.59511  0.82011  1.0000
  C   C15       1.0  0.93108  0.59415  0.67962  1.0000
  C   C16       1.0  0.56946  0.40505  0.17996  1.0000
  C   C17       1.0  0.09930  0.51972  0.25496  1.0000
  C   C18       1.0  0.39995  0.48151  0.75482  1.0000
  C   C19       1.0  0.90067  0.48041  0.74507  1.0000
  C   C20       1.0  0.59999  0.51864  0.24519  1.0000
  C   C21       1.0  0.13479  0.30992  0.48733  1.0000
  C   C22       1.0  0.36512  0.69035  0.98721  1.0000
  C   C23       1.0  0.86549  0.68962  0.51230  1.0000
  C   C24       1.0  0.63490  0.30984  0.01288  1.0000
  Br  Br1       1.0  0.32064  0.03447  0.80002  1.0000
  Br  Br2       1.0  0.17938  0.96703  0.29899  1.0000
  Br  Br3       1.0  0.67761  0.96550  0.20054  1.0000
  Br  Br4       1.0  0.82006  0.03249  0.70203  1.0000
  N   N1        1.0  0.20772  0.65581  0.28223  1.0000
  N   N2        1.0  0.29180  0.34529  0.78243  1.0000
  N   N3        1.0  0.79242  0.34427  0.71785  1.0000
  N   N4        1.0  0.70813  0.65486  0.21758  1.0000
  O   O1        1.0  0.02045  0.18838  0.45322  1.0000
  O   O2        1.0  0.48060  0.81190  0.95323  1.0000
  O   O3        1.0  0.98094  0.81124  0.54579  1.0000
  O   O4        1.0  0.51989  0.18828  0.04704  1.0000
  O   O5        1.0  0.23222  0.33815  0.57094  1.0000
  O   O6        1.0  0.26664  0.66196  0.07063  1.0000
  O   O7        1.0  0.76768  0.66113  0.42883  1.0000
  O   O8        1.0  0.73235  0.33819  0.92916  1.0000
  O   O9        1.0  0.26250  0.07436  0.56852  1.0000
  O   O10       1.0  0.23527  0.92556  0.06694  1.0000
  O   O11       1.0  0.73633  0.92499  0.43191  1.0000
  O   O12       1.0  0.76511  0.07489  0.93325  1.0000
