data_image0
_chemical_formula_structural       Zn2H12C16I2O12
_chemical_formula_sum              "Zn2 H12 C16 I2 O12"
_cell_length_a       7.46154
_cell_length_b       7.4615
_cell_length_c       10.971
_cell_angle_alpha    82.7719
_cell_angle_beta     82.7737
_cell_angle_gamma    83.9458

_space_group_name_H-M_alt    "P 1"
_space_group_IT_number       1

loop_
  _space_group_symop_operation_xyz
  'x, y, z'

loop_
  _atom_site_type_symbol
  _atom_site_label
  _atom_site_symmetry_multiplicity
  _atom_site_fract_x
  _atom_site_fract_y
  _atom_site_fract_z
  _atom_site_occupancy
  Zn  Zn1       1.0  0.54306  0.45694  0.50001  1.0000
  Zn  Zn2       1.0  0.96436  0.03564  0.50000  1.0000
  H   H1        1.0  0.70171  0.86366  0.43488  1.0000
  H   H2        1.0  0.13633  0.29830  0.56513  1.0000
  H   H3        1.0  0.74511  0.03427  0.34054  1.0000
  H   H4        1.0  0.96572  0.25489  0.65945  1.0000
  H   H5        1.0  0.32669  0.92986  0.45275  1.0000
  H   H6        1.0  0.07013  0.67330  0.54725  1.0000
  H   H7        1.0  0.26028  0.06703  0.33931  1.0000
  H   H8        1.0  0.93295  0.73971  0.66069  1.0000
  H   H9        1.0  0.73483  0.59899  0.18313  1.0000
  H   H10       1.0  0.40105  0.26516  0.81687  1.0000
  H   H11       1.0  0.37926  0.73330  0.14500  1.0000
  H   H12       1.0  0.26666  0.62074  0.85498  1.0000
  C   C1        1.0  0.90758  0.42953  0.37320  1.0000
  C   C2        1.0  0.57050  0.09241  0.62680  1.0000
  C   C3        1.0  0.27632  0.53730  0.36116  1.0000
  C   C4        1.0  0.46271  0.72365  0.63885  1.0000
  C   C5        1.0  0.16452  0.60061  0.25871  1.0000
  C   C6        1.0  0.39939  0.83548  0.74129  1.0000
  C   C7        1.0  0.98348  0.55983  0.26811  1.0000
  C   C8        1.0  0.44019  0.01651  0.73189  1.0000
  C   C9        1.0  0.87590  0.62935  0.17459  1.0000
  C   C10       1.0  0.37067  0.12409  0.82541  1.0000
  C   C11       1.0  0.95108  0.73522  0.07022  1.0000
  C   C12       1.0  0.26481  0.04891  0.92978  1.0000
  C   C13       1.0  0.13381  0.77245  0.05708  1.0000
  C   C14       1.0  0.22755  0.86619  0.94291  1.0000
  C   C15       1.0  0.23761  0.70483  0.15314  1.0000
  C   C16       1.0  0.29516  0.76239  0.84685  1.0000
  I   I1        1.0  0.78600  0.83957  0.93071  1.0000
  I   I2        1.0  0.16050  0.21399  0.06929  1.0000
  O   O1        1.0  0.80344  0.49416  0.46138  1.0000
  O   O2        1.0  0.50583  0.19656  0.53861  1.0000
  O   O3        1.0  0.95157  0.26268  0.36260  1.0000
  O   O4        1.0  0.73733  0.04842  0.63741  1.0000
  O   O5        1.0  0.19890  0.50386  0.47116  1.0000
  O   O6        1.0  0.49616  0.80109  0.52884  1.0000
  O   O7        1.0  0.44938  0.52072  0.33588  1.0000
  O   O8        1.0  0.47928  0.55061  0.66414  1.0000
  O   O9        1.0  0.80217  0.92678  0.38552  1.0000
  O   O10       1.0  0.07322  0.19783  0.61448  1.0000
  O   O11       1.0  0.22344  0.97109  0.40329  1.0000
  O   O12       1.0  0.02890  0.77655  0.59672  1.0000
