data_image0
_chemical_formula_structural       Tl8H48C28O16
_chemical_formula_sum              "Tl8 H48 C28 O16"
_cell_length_a       6.73352
_cell_length_b       10.1792
_cell_length_c       15.5358
_cell_angle_alpha    90.0006
_cell_angle_beta     102.287
_cell_angle_gamma    89.9998

_space_group_name_H-M_alt    "P 1"
_space_group_IT_number       1

loop_
  _space_group_symop_operation_xyz
  'x, y, z'

loop_
  _atom_site_type_symbol
  _atom_site_label
  _atom_site_symmetry_multiplicity
  _atom_site_fract_x
  _atom_site_fract_y
  _atom_site_fract_z
  _atom_site_occupancy
  Tl  Tl1       1.0  0.39502  0.22621  0.11823  1.0000
  Tl  Tl2       1.0  0.10500  0.72622  0.38178  1.0000
  Tl  Tl3       1.0  0.60498  0.77378  0.88178  1.0000
  Tl  Tl4       1.0  0.89501  0.27378  0.61822  1.0000
  Tl  Tl5       1.0  0.88601  0.04481  0.10577  1.0000
  Tl  Tl6       1.0  0.61400  0.54481  0.39424  1.0000
  Tl  Tl7       1.0  0.11399  0.95519  0.89423  1.0000
  Tl  Tl8       1.0  0.38600  0.45519  0.60577  1.0000
  H   H1        1.0  0.22810  0.51264  0.25488  1.0000
  H   H2        1.0  0.27194  0.01264  0.24514  1.0000
  H   H3        1.0  0.77190  0.48736  0.74512  1.0000
  H   H4        1.0  0.72807  0.98735  0.75487  1.0000
  H   H5        1.0  0.97656  0.56385  0.20329  1.0000
  H   H6        1.0  0.52348  0.06385  0.29671  1.0000
  H   H7        1.0  0.02344  0.43615  0.79670  1.0000
  H   H8        1.0  0.47653  0.93615  0.70329  1.0000
  H   H9        1.0  0.07857  0.41505  0.17039  1.0000
  H   H10       1.0  0.42147  0.91505  0.32963  1.0000
  H   H11       1.0  0.92142  0.58494  0.82961  1.0000
  H   H12       1.0  0.57854  0.08494  0.67038  1.0000
  H   H13       1.0  0.14657  0.22000  0.28540  1.0000
  H   H14       1.0  0.35346  0.72000  0.21461  1.0000
  H   H15       1.0  0.85342  0.77999  0.71460  1.0000
  H   H16       1.0  0.64656  0.28000  0.78540  1.0000
  H   H17       1.0  0.29331  0.34017  0.35212  1.0000
  H   H18       1.0  0.20672  0.84017  0.14789  1.0000
  H   H19       1.0  0.70669  0.65982  0.64788  1.0000
  H   H20       1.0  0.79329  0.15983  0.85211  1.0000
  H   H21       1.0  0.27951  0.11261  0.52882  1.0000
  H   H22       1.0  0.22047  0.61261  0.97118  1.0000
  H   H23       1.0  0.72047  0.88739  0.47118  1.0000
  H   H24       1.0  0.77952  0.38739  0.02882  1.0000
  H   H25       1.0  0.43160  0.21036  0.47339  1.0000
  H   H26       1.0  0.06841  0.71038  0.02662  1.0000
  H   H27       1.0  0.56840  0.78963  0.52661  1.0000
  H   H28       1.0  0.93159  0.28963  0.97338  1.0000
  H   H29       1.0  0.31960  0.06315  0.42351  1.0000
  H   H30       1.0  0.18041  0.56317  0.07650  1.0000
  H   H31       1.0  0.68038  0.93684  0.57649  1.0000
  H   H32       1.0  0.81958  0.43684  0.92350  1.0000
  H   H33       1.0  0.78102  0.19216  0.37589  1.0000
  H   H34       1.0  0.71899  0.69216  0.12410  1.0000
  H   H35       1.0  0.21897  0.80785  0.62410  1.0000
  H   H36       1.0  0.28101  0.30784  0.87590  1.0000
  H   H37       1.0  0.90162  0.08612  0.46178  1.0000
  H   H38       1.0  0.59837  0.58613  0.03820  1.0000
  H   H39       1.0  0.09835  0.91389  0.53821  1.0000
  H   H40       1.0  0.40162  0.41388  0.96180  1.0000
  H   H41       1.0  0.93494  0.06014  0.35241  1.0000
  H   H42       1.0  0.56507  0.56014  0.14758  1.0000
  H   H43       1.0  0.06504  0.93986  0.64759  1.0000
  H   H44       1.0  0.43492  0.43985  0.85242  1.0000
  H   H45       1.0  0.02161  0.40670  0.44146  1.0000
  H   H46       1.0  0.47840  0.90670  0.05854  1.0000
  H   H47       1.0  0.97839  0.59330  0.55853  1.0000
  H   H48       1.0  0.52160  0.09330  0.94146  1.0000
  C   C1        1.0  0.78287  0.34273  0.24741  1.0000
  C   C2        1.0  0.71718  0.84272  0.25260  1.0000
  C   C3        1.0  0.21715  0.65728  0.75258  1.0000
  C   C4        1.0  0.28282  0.15728  0.74741  1.0000
  C   C5        1.0  0.98821  0.40376  0.29722  1.0000
  C   C6        1.0  0.51182  0.90376  0.20279  1.0000
  C   C7        1.0  0.01178  0.59624  0.70278  1.0000
  C   C8        1.0  0.48819  0.09624  0.79722  1.0000
  C   C9        1.0  0.07287  0.47860  0.22686  1.0000
  C   C10       1.0  0.42717  0.97860  0.27316  1.0000
  C   C11       1.0  0.92713  0.52140  0.77314  1.0000
  C   C12       1.0  0.57284  0.02140  0.72685  1.0000
  C   C13       1.0  0.14182  0.29426  0.33635  1.0000
  C   C14       1.0  0.35821  0.79426  0.16366  1.0000
  C   C15       1.0  0.85818  0.70574  0.66365  1.0000
  C   C16       1.0  0.64180  0.20574  0.83635  1.0000
  C   C17       1.0  0.10660  0.22556  0.42031  1.0000
  C   C18       1.0  0.39341  0.72557  0.07969  1.0000
  C   C19       1.0  0.89339  0.77443  0.57969  1.0000
  C   C20       1.0  0.60660  0.27443  0.92031  1.0000
  C   C21       1.0  0.29546  0.14780  0.46381  1.0000
  C   C22       1.0  0.20455  0.64781  0.03620  1.0000
  C   C23       1.0  0.70453  0.85219  0.53619  1.0000
  C   C24       1.0  0.79544  0.35220  0.96380  1.0000
  C   C25       1.0  0.91999  0.13572  0.40117  1.0000
  C   C26       1.0  0.58001  0.63572  0.09883  1.0000
  C   C27       1.0  0.08000  0.86429  0.59883  1.0000
  C   C28       1.0  0.41998  0.36428  0.90117  1.0000
  O   O1        1.0  0.79075  0.26397  0.18426  1.0000
  O   O2        1.0  0.70929  0.76396  0.31574  1.0000
  O   O3        1.0  0.20926  0.73604  0.81574  1.0000
  O   O4        1.0  0.29072  0.23604  0.68426  1.0000
  O   O5        1.0  0.61669  0.37583  0.26756  1.0000
  O   O6        1.0  0.88335  0.87582  0.23244  1.0000
  O   O7        1.0  0.38331  0.62418  0.73243  1.0000
  O   O8        1.0  0.11666  0.12419  0.76756  1.0000
  O   O9        1.0  0.96241  0.49117  0.36525  1.0000
  O   O10       1.0  0.53762  0.99117  0.13476  1.0000
  O   O11       1.0  0.03760  0.50883  0.63475  1.0000
  O   O12       1.0  0.46238  0.00883  0.86524  1.0000
  O   O13       1.0  0.07595  0.32648  0.48271  1.0000
  O   O14       1.0  0.42405  0.82649  0.01730  1.0000
  O   O15       1.0  0.92405  0.67352  0.51729  1.0000
  O   O16       1.0  0.57596  0.17351  0.98271  1.0000
