data_image0
_chemical_formula_structural       Ag4H36C24N16O20
_chemical_formula_sum              "Ag4 H36 C24 N16 O20"
_cell_length_a       9.38678
_cell_length_b       9.38678
_cell_length_c       12.3711
_cell_angle_alpha    68.4543
_cell_angle_beta     68.4544
_cell_angle_gamma    74.7523

_space_group_name_H-M_alt    "P 1"
_space_group_IT_number       1

loop_
  _space_group_symop_operation_xyz
  'x, y, z'

loop_
  _atom_site_type_symbol
  _atom_site_label
  _atom_site_symmetry_multiplicity
  _atom_site_fract_x
  _atom_site_fract_y
  _atom_site_fract_z
  _atom_site_occupancy
  Ag  Ag1       1.0  0.69858  0.55743  0.45285  1.0000
  Ag  Ag2       1.0  0.44257  0.30142  0.04715  1.0000
  Ag  Ag3       1.0  0.30142  0.44257  0.54715  1.0000
  Ag  Ag4       1.0  0.55743  0.69858  0.95285  1.0000
  H   H1        1.0  0.27447  0.97921  0.61521  1.0000
  H   H2        1.0  0.02079  0.72554  0.88478  1.0000
  H   H3        1.0  0.72554  0.02079  0.38479  1.0000
  H   H4        1.0  0.97921  0.27447  0.11521  1.0000
  H   H5        1.0  0.16744  0.09998  0.88063  1.0000
  H   H6        1.0  0.90002  0.83256  0.61936  1.0000
  H   H7        1.0  0.83256  0.90002  0.11937  1.0000
  H   H8        1.0  0.09998  0.16744  0.38063  1.0000
  H   H9        1.0  0.10840  0.01401  0.79890  1.0000
  H   H10       1.0  0.98599  0.89160  0.70110  1.0000
  H   H11       1.0  0.89160  0.98599  0.20110  1.0000
  H   H12       1.0  0.01401  0.10840  0.29890  1.0000
  H   H13       1.0  0.25062  0.14337  0.71747  1.0000
  H   H14       1.0  0.85663  0.74937  0.78253  1.0000
  H   H15       1.0  0.74937  0.85663  0.28253  1.0000
  H   H16       1.0  0.14337  0.25063  0.21747  1.0000
  H   H17       1.0  0.32745  0.93825  0.32839  1.0000
  H   H18       1.0  0.06175  0.67255  0.17161  1.0000
  H   H19       1.0  0.67255  0.06175  0.67161  1.0000
  H   H20       1.0  0.93825  0.32745  0.82839  1.0000
  H   H21       1.0  0.32683  0.04263  0.42433  1.0000
  H   H22       1.0  0.95737  0.67317  0.07567  1.0000
  H   H23       1.0  0.67317  0.95737  0.57567  1.0000
  H   H24       1.0  0.04263  0.32683  0.92433  1.0000
  H   H25       1.0  0.20010  0.89892  0.48177  1.0000
  H   H26       1.0  0.10108  0.79990  0.01823  1.0000
  H   H27       1.0  0.79990  0.10108  0.51823  1.0000
  H   H28       1.0  0.89892  0.20010  0.98177  1.0000
  H   H29       1.0  0.71267  0.51091  0.81669  1.0000
  H   H30       1.0  0.48909  0.28733  0.68331  1.0000
  H   H31       1.0  0.28733  0.48909  0.18331  1.0000
  H   H32       1.0  0.51091  0.71267  0.31669  1.0000
  H   H33       1.0  0.75625  0.45944  0.68259  1.0000
  H   H34       1.0  0.54056  0.24375  0.81741  1.0000
  H   H35       1.0  0.24375  0.54056  0.31741  1.0000
  H   H36       1.0  0.45944  0.75625  0.18259  1.0000
  C   C1        1.0  0.45427  0.79364  0.56463  1.0000
  C   C2        1.0  0.20636  0.54573  0.93537  1.0000
  C   C3        1.0  0.54574  0.20636  0.43537  1.0000
  C   C4        1.0  0.79364  0.45427  0.06463  1.0000
  C   C5        1.0  0.59058  0.65035  0.70191  1.0000
  C   C6        1.0  0.34965  0.40942  0.79809  1.0000
  C   C7        1.0  0.40942  0.34965  0.29809  1.0000
  C   C8        1.0  0.65035  0.59058  0.20191  1.0000
  C   C9        1.0  0.39903  0.85108  0.74764  1.0000
  C   C10       1.0  0.14892  0.60097  0.75236  1.0000
  C   C11       1.0  0.60097  0.14892  0.25237  1.0000
  C   C12       1.0  0.85108  0.39903  0.24764  1.0000
  C   C13       1.0  0.36522  0.88625  0.63885  1.0000
  C   C14       1.0  0.11375  0.63479  0.86115  1.0000
  C   C15       1.0  0.63479  0.11375  0.36115  1.0000
  C   C16       1.0  0.88625  0.36521  0.13885  1.0000
  C   C17       1.0  0.20484  0.05512  0.80328  1.0000
  C   C18       1.0  0.94489  0.79516  0.69671  1.0000
  C   C19       1.0  0.79516  0.94488  0.19672  1.0000
  C   C20       1.0  0.05512  0.20484  0.30329  1.0000
  C   C21       1.0  0.31315  0.93169  0.42172  1.0000
  C   C22       1.0  0.06831  0.68685  0.07828  1.0000
  C   C23       1.0  0.68685  0.06831  0.57828  1.0000
  C   C24       1.0  0.93169  0.31315  0.92172  1.0000
  N   N1        1.0  0.56688  0.67777  0.59315  1.0000
  N   N2        1.0  0.32223  0.43312  0.90685  1.0000
  N   N3        1.0  0.43312  0.32223  0.40685  1.0000
  N   N4        1.0  0.67777  0.56688  0.09315  1.0000
  N   N5        1.0  0.50933  0.73541  0.78011  1.0000
  N   N6        1.0  0.26459  0.49067  0.71989  1.0000
  N   N7        1.0  0.49067  0.26459  0.21989  1.0000
  N   N8        1.0  0.73541  0.50933  0.28011  1.0000
  N   N9        1.0  0.69813  0.53417  0.73411  1.0000
  N   N10       1.0  0.46583  0.30187  0.76589  1.0000
  N   N11       1.0  0.30187  0.46583  0.26589  1.0000
  N   N12       1.0  0.53417  0.69813  0.23411  1.0000
  N   N13       1.0  0.02142  0.71472  0.40183  1.0000
  N   N14       1.0  0.28528  0.97858  0.09816  1.0000
  N   N15       1.0  0.97857  0.28528  0.59816  1.0000
  N   N16       1.0  0.71472  0.02142  0.90184  1.0000
  O   O1        1.0  0.96852  0.62618  0.37345  1.0000
  O   O2        1.0  0.37382  0.03148  0.12655  1.0000
  O   O3        1.0  0.03148  0.37382  0.62655  1.0000
  O   O4        1.0  0.62617  0.96852  0.87345  1.0000
  O   O5        1.0  0.16467  0.68609  0.39546  1.0000
  O   O6        1.0  0.31390  0.83533  0.10454  1.0000
  O   O7        1.0  0.83533  0.31390  0.60454  1.0000
  O   O8        1.0  0.68610  0.16467  0.89546  1.0000
  O   O9        1.0  0.93623  0.82989  0.43323  1.0000
  O   O10       1.0  0.17011  0.06377  0.06677  1.0000
  O   O11       1.0  0.06377  0.17011  0.56677  1.0000
  O   O12       1.0  0.82989  0.93623  0.93323  1.0000
  O   O13       1.0  0.32523  0.92735  0.82947  1.0000
  O   O14       1.0  0.07265  0.67478  0.67052  1.0000
  O   O15       1.0  0.67478  0.07265  0.17052  1.0000
  O   O16       1.0  0.92735  0.32523  0.32947  1.0000
  O   O17       1.0  0.43536  0.81203  0.45748  1.0000
  O   O18       1.0  0.18797  0.56464  0.04251  1.0000
  O   O19       1.0  0.56464  0.18798  0.54251  1.0000
  O   O20       1.0  0.81202  0.43536  0.95749  1.0000
