data_image0
_chemical_formula_structural       Ag4H36C24N16O16
_chemical_formula_sum              "Ag4 H36 C24 N16 O16"
_cell_length_a       8.75767
_cell_length_b       9.18449
_cell_length_c       12.1751
_cell_angle_alpha    90
_cell_angle_beta     90
_cell_angle_gamma    106.295

_space_group_name_H-M_alt    "P 1"
_space_group_IT_number       1

loop_
  _space_group_symop_operation_xyz
  'x, y, z'

loop_
  _atom_site_type_symbol
  _atom_site_label
  _atom_site_symmetry_multiplicity
  _atom_site_fract_x
  _atom_site_fract_y
  _atom_site_fract_z
  _atom_site_occupancy
  Ag  Ag1       1.0  0.83068  0.07657  0.20161  1.0000
  Ag  Ag2       1.0  0.66932  0.92342  0.70161  1.0000
  Ag  Ag3       1.0  0.16932  0.92342  0.79839  1.0000
  Ag  Ag4       1.0  0.33068  0.07658  0.29839  1.0000
  H   H1        1.0  0.58697  0.87067  0.92516  1.0000
  H   H2        1.0  0.91303  0.12933  0.42515  1.0000
  H   H3        1.0  0.41303  0.12934  0.07485  1.0000
  H   H4        1.0  0.08697  0.87067  0.57485  1.0000
  H   H5        1.0  0.65485  0.91000  0.06179  1.0000
  H   H6        1.0  0.84515  0.09000  0.56179  1.0000
  H   H7        1.0  0.34515  0.09000  0.93821  1.0000
  H   H8        1.0  0.15485  0.91000  0.43821  1.0000
  H   H9        1.0  0.22456  0.41622  0.03447  1.0000
  H   H10       1.0  0.27544  0.58378  0.53447  1.0000
  H   H11       1.0  0.77544  0.58378  0.96553  1.0000
  H   H12       1.0  0.72456  0.41622  0.46553  1.0000
  H   H13       1.0  0.16862  0.26355  0.13013  1.0000
  H   H14       1.0  0.33138  0.73645  0.63013  1.0000
  H   H15       1.0  0.83138  0.73645  0.86987  1.0000
  H   H16       1.0  0.66862  0.26355  0.36987  1.0000
  H   H17       1.0  0.05527  0.39558  0.12249  1.0000
  H   H18       1.0  0.44473  0.60442  0.62249  1.0000
  H   H19       1.0  0.94473  0.60442  0.87751  1.0000
  H   H20       1.0  0.55527  0.39558  0.37751  1.0000
  H   H21       1.0  0.14514  0.36572  0.85272  1.0000
  H   H22       1.0  0.35486  0.63428  0.35272  1.0000
  H   H23       1.0  0.85486  0.63428  0.14728  1.0000
  H   H24       1.0  0.64514  0.36572  0.64728  1.0000
  H   H25       1.0  0.05778  0.32735  0.56378  1.0000
  H   H26       1.0  0.44222  0.67265  0.06378  1.0000
  H   H27       1.0  0.94222  0.67265  0.43622  1.0000
  H   H28       1.0  0.55778  0.32735  0.93623  1.0000
  H   H29       1.0  0.19265  0.30538  0.67011  1.0000
  H   H30       1.0  0.30735  0.69462  0.17011  1.0000
  H   H31       1.0  0.80735  0.69462  0.32989  1.0000
  H   H32       1.0  0.69265  0.30538  0.82989  1.0000
  H   H33       1.0  0.07165  0.43337  0.68815  1.0000
  H   H34       1.0  0.42835  0.56663  0.18815  1.0000
  H   H35       1.0  0.92834  0.56663  0.31185  1.0000
  H   H36       1.0  0.57166  0.43337  0.81185  1.0000
  C   C1        1.0  0.79594  0.04050  0.94623  1.0000
  C   C2        1.0  0.70406  0.95950  0.44623  1.0000
  C   C3        1.0  0.20406  0.95950  0.05377  1.0000
  C   C4        1.0  0.29594  0.04050  0.55377  1.0000
  C   C5        1.0  0.01788  0.23987  0.98948  1.0000
  C   C6        1.0  0.48212  0.76013  0.48948  1.0000
  C   C7        1.0  0.98212  0.76013  0.01052  1.0000
  C   C8        1.0  0.51788  0.23987  0.51052  1.0000
  C   C9        1.0  0.12352  0.33481  0.07362  1.0000
  C   C10       1.0  0.37648  0.66519  0.57362  1.0000
  C   C11       1.0  0.87648  0.66519  0.92638  1.0000
  C   C12       1.0  0.62352  0.33481  0.42638  1.0000
  C   C13       1.0  0.04579  0.27154  0.87823  1.0000
  C   C14       1.0  0.45421  0.72846  0.37823  1.0000
  C   C15       1.0  0.95421  0.72846  0.12177  1.0000
  C   C16       1.0  0.54579  0.27154  0.62177  1.0000
  C   C17       1.0  0.93935  0.18093  0.80390  1.0000
  C   C18       1.0  0.56065  0.81907  0.30390  1.0000
  C   C19       1.0  0.06065  0.81907  0.19609  1.0000
  C   C20       1.0  0.43935  0.18093  0.69610  1.0000
  C   C21       1.0  0.07756  0.32577  0.65239  1.0000
  C   C22       1.0  0.42244  0.67423  0.15239  1.0000
  C   C23       1.0  0.92244  0.67423  0.34761  1.0000
  C   C24       1.0  0.57756  0.32577  0.84761  1.0000
  N   N1        1.0  0.89468  0.12438  0.02411  1.0000
  N   N2        1.0  0.60532  0.87562  0.52411  1.0000
  N   N3        1.0  0.10532  0.87563  0.97589  1.0000
  N   N4        1.0  0.39468  0.12438  0.47589  1.0000
  N   N5        1.0  0.67441  0.92605  0.97963  1.0000
  N   N6        1.0  0.82559  0.07395  0.47963  1.0000
  N   N7        1.0  0.32559  0.07395  0.02037  1.0000
  N   N8        1.0  0.17441  0.92605  0.52037  1.0000
  N   N9        1.0  0.81459  0.06622  0.83607  1.0000
  N   N10       1.0  0.68541  0.93378  0.33607  1.0000
  N   N11       1.0  0.18541  0.93378  0.16393  1.0000
  N   N12       1.0  0.31459  0.06622  0.66393  1.0000
  N   N13       1.0  0.15973  0.32498  0.34162  1.0000
  N   N14       1.0  0.34027  0.67502  0.84162  1.0000
  N   N15       1.0  0.84027  0.67502  0.65838  1.0000
  N   N16       1.0  0.65973  0.32498  0.15838  1.0000
  O   O1        1.0  0.94974  0.20103  0.69453  1.0000
  O   O2        1.0  0.55026  0.79897  0.19453  1.0000
  O   O3        1.0  0.05026  0.79897  0.30547  1.0000
  O   O4        1.0  0.44974  0.20103  0.80547  1.0000
  O   O5        1.0  0.07566  0.18469  0.33628  1.0000
  O   O6        1.0  0.42433  0.81531  0.83628  1.0000
  O   O7        1.0  0.92433  0.81531  0.66372  1.0000
  O   O8        1.0  0.57567  0.18469  0.16372  1.0000
  O   O9        1.0  0.29930  0.35925  0.30300  1.0000
  O   O10       1.0  0.20070  0.64075  0.80300  1.0000
  O   O11       1.0  0.70070  0.64075  0.69700  1.0000
  O   O12       1.0  0.79930  0.35925  0.19700  1.0000
  O   O13       1.0  0.10263  0.42230  0.38447  1.0000
  O   O14       1.0  0.39737  0.57770  0.88447  1.0000
  O   O15       1.0  0.89737  0.57770  0.61553  1.0000
  O   O16       1.0  0.60263  0.42230  0.11553  1.0000
