data_image0
_chemical_formula_structural       Ag4H20C16N16O12
_chemical_formula_sum              "Ag4 H20 C16 N16 O12"
_cell_length_a       7.03632
_cell_length_b       9.45099
_cell_length_c       10.5405
_cell_angle_alpha    90
_cell_angle_beta     90.0005
_cell_angle_gamma    90.6811

_space_group_name_H-M_alt    "P 1"
_space_group_IT_number       1

loop_
  _space_group_symop_operation_xyz
  'x, y, z'

loop_
  _atom_site_type_symbol
  _atom_site_label
  _atom_site_symmetry_multiplicity
  _atom_site_fract_x
  _atom_site_fract_y
  _atom_site_fract_z
  _atom_site_occupancy
  Ag  Ag1       1.0  0.79719  0.39660  0.63354  1.0000
  Ag  Ag2       1.0  0.70281  0.10340  0.13353  1.0000
  Ag  Ag3       1.0  0.20281  0.60340  0.36646  1.0000
  Ag  Ag4       1.0  0.29718  0.89660  0.86646  1.0000
  H   H1        1.0  0.43411  0.60943  0.89544  1.0000
  H   H2        1.0  0.06588  0.89057  0.39544  1.0000
  H   H3        1.0  0.56589  0.39057  0.10456  1.0000
  H   H4        1.0  0.93412  0.10943  0.60456  1.0000
  H   H5        1.0  0.50360  0.46018  0.80513  1.0000
  H   H6        1.0  0.99640  0.03981  0.30513  1.0000
  H   H7        1.0  0.49640  0.53982  0.19487  1.0000
  H   H8        1.0  0.00360  0.96019  0.69487  1.0000
  H   H9        1.0  0.74302  0.63375  0.43926  1.0000
  H   H10       1.0  0.75698  0.86625  0.93925  1.0000
  H   H11       1.0  0.25698  0.36625  0.56074  1.0000
  H   H12       1.0  0.24302  0.13375  0.06074  1.0000
  H   H13       1.0  0.69623  0.89836  0.45135  1.0000
  H   H14       1.0  0.80376  0.60164  0.95135  1.0000
  H   H15       1.0  0.30376  0.10164  0.54865  1.0000
  H   H16       1.0  0.19624  0.39836  0.04865  1.0000
  H   H17       1.0  0.54872  0.99325  0.65383  1.0000
  H   H18       1.0  0.95128  0.50674  0.15382  1.0000
  H   H19       1.0  0.45128  0.00675  0.34617  1.0000
  H   H20       1.0  0.04872  0.49326  0.84618  1.0000
  C   C1        1.0  0.67741  0.68342  0.52144  1.0000
  C   C2        1.0  0.82258  0.81657  0.02143  1.0000
  C   C3        1.0  0.32259  0.31659  0.47856  1.0000
  C   C4        1.0  0.17742  0.18343  0.97857  1.0000
  C   C5        1.0  0.65061  0.82876  0.52776  1.0000
  C   C6        1.0  0.84939  0.67124  0.02776  1.0000
  C   C7        1.0  0.34939  0.17124  0.47224  1.0000
  C   C8        1.0  0.15061  0.32876  0.97224  1.0000
  C   C9        1.0  0.56793  0.88029  0.63789  1.0000
  C   C10       1.0  0.93205  0.61970  0.13788  1.0000
  C   C11       1.0  0.43207  0.11971  0.36211  1.0000
  C   C12       1.0  0.06795  0.38030  0.86212  1.0000
  C   C13       1.0  0.54202  0.65392  0.72008  1.0000
  C   C14       1.0  0.95796  0.84607  0.22006  1.0000
  C   C15       1.0  0.45798  0.34608  0.27993  1.0000
  C   C16       1.0  0.04204  0.15393  0.77994  1.0000
  N   N1        1.0  0.63132  0.59655  0.61751  1.0000
  N   N2        1.0  0.86869  0.90345  0.11751  1.0000
  N   N3        1.0  0.36868  0.40345  0.38249  1.0000
  N   N4        1.0  0.13132  0.09655  0.88249  1.0000
  N   N5        1.0  0.48788  0.56760  0.81406  1.0000
  N   N6        1.0  0.01213  0.93241  0.31407  1.0000
  N   N7        1.0  0.51212  0.43240  0.18594  1.0000
  N   N8        1.0  0.98787  0.06759  0.68593  1.0000
  N   N9        1.0  0.50769  0.79499  0.73179  1.0000
  N   N10       1.0  0.99231  0.70502  0.23179  1.0000
  N   N11       1.0  0.49231  0.20501  0.26821  1.0000
  N   N12       1.0  0.00769  0.29498  0.76820  1.0000
  N   N13       1.0  0.90384  0.28887  0.37142  1.0000
  N   N14       1.0  0.59617  0.21113  0.87142  1.0000
  N   N15       1.0  0.09616  0.71113  0.62858  1.0000
  N   N16       1.0  0.40383  0.78887  0.12858  1.0000
  O   O1        1.0  0.88889  0.42106  0.38312  1.0000
  O   O2        1.0  0.61111  0.07894  0.88312  1.0000
  O   O3        1.0  0.11111  0.57894  0.61688  1.0000
  O   O4        1.0  0.38889  0.92106  0.11688  1.0000
  O   O5        1.0  0.84434  0.20721  0.46015  1.0000
  O   O6        1.0  0.65567  0.29279  0.96015  1.0000
  O   O7        1.0  0.15566  0.79279  0.53985  1.0000
  O   O8        1.0  0.34433  0.70721  0.03985  1.0000
  O   O9        1.0  0.97605  0.23608  0.27200  1.0000
  O   O10       1.0  0.52396  0.26392  0.77200  1.0000
  O   O11       1.0  0.02395  0.76392  0.72800  1.0000
  O   O12       1.0  0.47604  0.73608  0.22800  1.0000
