data_image0
_chemical_formula_structural       U2H32C24O16
_chemical_formula_sum              "U2 H32 C24 O16"
_cell_length_a       8.52127
_cell_length_b       8.77613
_cell_length_c       10.9634
_cell_angle_alpha    79.3188
_cell_angle_beta     85.7671
_cell_angle_gamma    75.2921

_space_group_name_H-M_alt    "P 1"
_space_group_IT_number       1

loop_
  _space_group_symop_operation_xyz
  'x, y, z'

loop_
  _atom_site_type_symbol
  _atom_site_label
  _atom_site_symmetry_multiplicity
  _atom_site_fract_x
  _atom_site_fract_y
  _atom_site_fract_z
  _atom_site_occupancy
  U   U1        1.0  0.39733  0.73985  0.01934  1.0000
  U   U2        1.0  0.60267  0.26014  0.98066  1.0000
  H   H1        1.0  0.89852  0.57680  0.05195  1.0000
  H   H2        1.0  0.10148  0.42321  0.94804  1.0000
  H   H3        1.0  0.39545  0.14499  0.43596  1.0000
  H   H4        1.0  0.60454  0.85501  0.56404  1.0000
  H   H5        1.0  0.50778  0.16876  0.29576  1.0000
  H   H6        1.0  0.49223  0.83124  0.70425  1.0000
  H   H7        1.0  0.05328  0.06589  0.24983  1.0000
  H   H8        1.0  0.94671  0.93412  0.75016  1.0000
  H   H9        1.0  0.08525  0.06945  0.40660  1.0000
  H   H10       1.0  0.91474  0.93055  0.59339  1.0000
  H   H11       1.0  0.06086  0.51575  0.35323  1.0000
  H   H12       1.0  0.93914  0.48426  0.64678  1.0000
  H   H13       1.0  0.11823  0.33758  0.46367  1.0000
  H   H14       1.0  0.88177  0.66242  0.53633  1.0000
  H   H15       1.0  0.32561  0.56190  0.41189  1.0000
  H   H16       1.0  0.67440  0.43810  0.58811  1.0000
  H   H17       1.0  0.51375  0.42710  0.38350  1.0000
  H   H18       1.0  0.48626  0.57289  0.61649  1.0000
  H   H19       1.0  0.38005  0.36894  0.50576  1.0000
  H   H20       1.0  0.61995  0.63106  0.49424  1.0000
  H   H21       1.0  0.29824  0.82130  0.33589  1.0000
  H   H22       1.0  0.70174  0.17870  0.66411  1.0000
  H   H23       1.0  0.33759  0.90718  0.46257  1.0000
  H   H24       1.0  0.66240  0.09282  0.53744  1.0000
  H   H25       1.0  0.49121  0.86022  0.34575  1.0000
  H   H26       1.0  0.50878  0.13978  0.65426  1.0000
  H   H27       1.0  0.78910  0.44429  0.34888  1.0000
  H   H28       1.0  0.21090  0.55571  0.65112  1.0000
  H   H29       1.0  0.86457  0.26478  0.45629  1.0000
  H   H30       1.0  0.13544  0.73521  0.54371  1.0000
  H   H31       1.0  0.78443  0.25669  0.31210  1.0000
  H   H32       1.0  0.21557  0.74331  0.68790  1.0000
  C   C1        1.0  0.30111  0.36591  0.32231  1.0000
  C   C2        1.0  0.69889  0.63409  0.67769  1.0000
  C   C3        1.0  0.38355  0.18660  0.33523  1.0000
  C   C4        1.0  0.61644  0.81340  0.66477  1.0000
  C   C5        1.0  0.29591  0.07561  0.28872  1.0000
  C   C6        1.0  0.70409  0.92439  0.71128  1.0000
  C   C7        1.0  0.11020  0.12240  0.31012  1.0000
  C   C8        1.0  0.88980  0.87761  0.68987  1.0000
  C   C9        1.0  0.02517  0.30142  0.29717  1.0000
  C   C10       1.0  0.97483  0.69858  0.70283  1.0000
  C   C11       1.0  0.12151  0.38784  0.36385  1.0000
  C   C12       1.0  0.87849  0.61216  0.63615  1.0000
  C   C13       1.0  0.32002  0.47136  0.19675  1.0000
  C   C14       1.0  0.67999  0.52862  0.80325  1.0000
  C   C15       1.0  0.38579  0.43601  0.41117  1.0000
  C   C16       1.0  0.61421  0.56399  0.58883  1.0000
  C   C17       1.0  0.34667  0.05129  0.15558  1.0000
  C   C18       1.0  0.65333  0.94870  0.84442  1.0000
  C   C19       1.0  0.36028  0.90465  0.36300  1.0000
  C   C20       1.0  0.63972  0.09535  0.63700  1.0000
  C   C21       1.0  0.01317  0.38458  0.16231  1.0000
  C   C22       1.0  0.98682  0.61543  0.83769  1.0000
  C   C23       1.0  0.85465  0.31824  0.35746  1.0000
  C   C24       1.0  0.14535  0.68177  0.64254  1.0000
  O   O1        1.0  0.23562  0.77764  0.91190  1.0000
  O   O2        1.0  0.76441  0.22234  0.08809  1.0000
  O   O3        1.0  0.55395  0.70170  0.13049  1.0000
  O   O4        1.0  0.44605  0.29830  0.86953  1.0000
  O   O5        1.0  0.23566  0.61543  0.18041  1.0000
  O   O6        1.0  0.76433  0.38455  0.81957  1.0000
  O   O7        1.0  0.42946  0.42932  0.11355  1.0000
  O   O8        1.0  0.57056  0.57066  0.88646  1.0000
  O   O9        1.0  0.47132  0.09640  0.10729  1.0000
  O   O10       1.0  0.52869  0.90358  0.89272  1.0000
  O   O11       1.0  0.27833  0.96692  0.10433  1.0000
  O   O12       1.0  0.72168  0.03308  0.89567  1.0000
  O   O13       1.0  0.89941  0.51768  0.14314  1.0000
  O   O14       1.0  0.10059  0.48233  0.85686  1.0000
  O   O15       1.0  0.11170  0.33173  0.08088  1.0000
  O   O16       1.0  0.88830  0.66828  0.91912  1.0000
