data_image0
_chemical_formula_structural       Cd2H12C16S4N12
_chemical_formula_sum              "Cd2 H12 C16 S4 N12"
_cell_length_a       7.92816
_cell_length_b       7.92818
_cell_length_c       10.862
_cell_angle_alpha    74.4074
_cell_angle_beta     74.4071
_cell_angle_gamma    64.7296

_space_group_name_H-M_alt    "P 1"
_space_group_IT_number       1

loop_
  _space_group_symop_operation_xyz
  'x, y, z'

loop_
  _atom_site_type_symbol
  _atom_site_label
  _atom_site_symmetry_multiplicity
  _atom_site_fract_x
  _atom_site_fract_y
  _atom_site_fract_z
  _atom_site_occupancy
  Cd  Cd1       1.0  0.57859  0.42140  0.25000  1.0000
  Cd  Cd2       1.0  0.42140  0.57860  0.75000  1.0000
  H   H1        1.0  0.24771  0.88747  0.12581  1.0000
  H   H2        1.0  0.11253  0.75229  0.37419  1.0000
  H   H3        1.0  0.75229  0.11253  0.87419  1.0000
  H   H4        1.0  0.88747  0.24771  0.62581  1.0000
  H   H5        1.0  0.92056  0.41571  0.92566  1.0000
  H   H6        1.0  0.58428  0.07944  0.57434  1.0000
  H   H7        1.0  0.07944  0.58428  0.07434  1.0000
  H   H8        1.0  0.41572  0.92056  0.42566  1.0000
  H   H9        1.0  0.26183  0.09962  0.91005  1.0000
  H   H10       1.0  0.90038  0.73818  0.58995  1.0000
  H   H11       1.0  0.73818  0.90038  0.08995  1.0000
  H   H12       1.0  0.09962  0.26182  0.41005  1.0000
  C   C1        1.0  0.97271  0.29073  0.99798  1.0000
  C   C2        1.0  0.70927  0.02730  0.50202  1.0000
  C   C3        1.0  0.02729  0.70927  0.00202  1.0000
  C   C4        1.0  0.29073  0.97271  0.49798  1.0000
  C   C5        1.0  0.14180  0.13588  0.98837  1.0000
  C   C6        1.0  0.86412  0.85820  0.51163  1.0000
  C   C7        1.0  0.85820  0.86412  0.01163  1.0000
  C   C8        1.0  0.13588  0.14180  0.48837  1.0000
  C   C9        1.0  0.97174  0.09819  0.18412  1.0000
  C   C10       1.0  0.90180  0.02826  0.31588  1.0000
  C   C11       1.0  0.02826  0.90181  0.81588  1.0000
  C   C12       1.0  0.09819  0.97175  0.68412  1.0000
  C   C13       1.0  0.46342  0.29200  0.02515  1.0000
  C   C14       1.0  0.70800  0.53658  0.47485  1.0000
  C   C15       1.0  0.53659  0.70800  0.97485  1.0000
  C   C16       1.0  0.29200  0.46342  0.52515  1.0000
  S   S1        1.0  0.38904  0.24635  0.17974  1.0000
  S   S2        1.0  0.75365  0.61096  0.32026  1.0000
  S   S3        1.0  0.61096  0.75365  0.82026  1.0000
  S   S4        1.0  0.24635  0.38904  0.67974  1.0000
  N   N1        1.0  0.86810  0.26567  0.11986  1.0000
  N   N2        1.0  0.73433  0.13190  0.38014  1.0000
  N   N3        1.0  0.13190  0.73433  0.88014  1.0000
  N   N4        1.0  0.26567  0.86810  0.61986  1.0000
  N   N5        1.0  0.13844  0.01642  0.10640  1.0000
  N   N6        1.0  0.98358  0.86156  0.39360  1.0000
  N   N7        1.0  0.86156  0.98358  0.89360  1.0000
  N   N8        1.0  0.01642  0.13844  0.60640  1.0000
  N   N9        1.0  0.52228  0.31995  0.91158  1.0000
  N   N10       1.0  0.68006  0.47772  0.58841  1.0000
  N   N11       1.0  0.47772  0.68006  0.08842  1.0000
  N   N12       1.0  0.31994  0.52229  0.41159  1.0000
