data_image0
_chemical_formula_structural       Cd4H24C24N40
_chemical_formula_sum              "Cd4 H24 C24 N40"
_cell_length_a       6.30373
_cell_length_b       10.3405
_cell_length_c       15.0833
_cell_angle_alpha    90.0002
_cell_angle_beta     89.9998
_cell_angle_gamma    90.0003

_space_group_name_H-M_alt    "P 1"
_space_group_IT_number       1

loop_
  _space_group_symop_operation_xyz
  'x, y, z'

loop_
  _atom_site_type_symbol
  _atom_site_label
  _atom_site_symmetry_multiplicity
  _atom_site_fract_x
  _atom_site_fract_y
  _atom_site_fract_z
  _atom_site_occupancy
  Cd  Cd1       1.0  0.24999  1.00000  0.43387  1.0000
  Cd  Cd2       1.0  0.75000  0.50000  0.06613  1.0000
  Cd  Cd3       1.0  0.74999  1.00000  0.56613  1.0000
  Cd  Cd4       1.0  0.25000  0.50000  0.93387  1.0000
  H   H1        1.0  0.05250  0.95241  0.09792  1.0000
  H   H2        1.0  0.55251  0.54759  0.40209  1.0000
  H   H3        1.0  0.94749  0.45241  0.40209  1.0000
  H   H4        1.0  0.44750  0.04758  0.09790  1.0000
  H   H5        1.0  0.94750  0.04759  0.90210  1.0000
  H   H6        1.0  0.44750  0.45241  0.59792  1.0000
  H   H7        1.0  0.05251  0.54759  0.59791  1.0000
  H   H8        1.0  0.55250  0.95241  0.90208  1.0000
  H   H9        1.0  0.77816  0.81641  0.33590  1.0000
  H   H10       1.0  0.27817  0.68358  0.16411  1.0000
  H   H11       1.0  0.22183  0.31642  0.16410  1.0000
  H   H12       1.0  0.72182  0.18357  0.33589  1.0000
  H   H13       1.0  0.22180  0.18358  0.66410  1.0000
  H   H14       1.0  0.72183  0.31642  0.83590  1.0000
  H   H15       1.0  0.77818  0.68358  0.83590  1.0000
  H   H16       1.0  0.27815  0.81641  0.66410  1.0000
  H   H17       1.0  0.73590  0.82293  0.15223  1.0000
  H   H18       1.0  0.23591  0.67707  0.34778  1.0000
  H   H19       1.0  0.26410  0.32292  0.34777  1.0000
  H   H20       1.0  0.76410  0.17707  0.15223  1.0000
  H   H21       1.0  0.26410  0.17708  0.84776  1.0000
  H   H22       1.0  0.76410  0.32293  0.65223  1.0000
  H   H23       1.0  0.73591  0.67708  0.65223  1.0000
  H   H24       1.0  0.23590  0.82293  0.84778  1.0000
  C   C1        1.0  0.88265  0.85733  0.28616  1.0000
  C   C2        1.0  0.38264  0.64268  0.21384  1.0000
  C   C3        1.0  0.11735  0.35732  0.21384  1.0000
  C   C4        1.0  0.61738  0.14268  0.28616  1.0000
  C   C5        1.0  0.11738  0.14269  0.71383  1.0000
  C   C6        1.0  0.61735  0.35733  0.78616  1.0000
  C   C7        1.0  0.88263  0.64268  0.78616  1.0000
  C   C8        1.0  0.38265  0.85734  0.71385  1.0000
  C   C9        1.0  0.85955  0.85930  0.19527  1.0000
  C   C10       1.0  0.35954  0.64071  0.30472  1.0000
  C   C11       1.0  0.14046  0.35929  0.30472  1.0000
  C   C12       1.0  0.64048  0.14072  0.19530  1.0000
  C   C13       1.0  0.14049  0.14073  0.80469  1.0000
  C   C14       1.0  0.64045  0.35930  0.69528  1.0000
  C   C15       1.0  0.85953  0.64071  0.69529  1.0000
  C   C16       1.0  0.35956  0.85931  0.80473  1.0000
  C   C17       1.0  0.15261  0.96360  0.23251  1.0000
  C   C18       1.0  0.65263  0.53639  0.26749  1.0000
  C   C19       1.0  0.84739  0.46361  0.26749  1.0000
  C   C20       1.0  0.34736  0.03638  0.23251  1.0000
  C   C21       1.0  0.84735  0.03639  0.76748  1.0000
  C   C22       1.0  0.34739  0.46361  0.73251  1.0000
  C   C23       1.0  0.15263  0.53639  0.73251  1.0000
  C   C24       1.0  0.65260  0.96360  0.76750  1.0000
  N   N1        1.0  0.06582  0.92187  0.30856  1.0000
  N   N2        1.0  0.56580  0.57813  0.19144  1.0000
  N   N3        1.0  0.93419  0.42187  0.19143  1.0000
  N   N4        1.0  0.43421  0.07813  0.30856  1.0000
  N   N5        1.0  0.93421  0.07814  0.69144  1.0000
  N   N6        1.0  0.43419  0.42188  0.80857  1.0000
  N   N7        1.0  0.06579  0.57813  0.80856  1.0000
  N   N8        1.0  0.56582  0.92188  0.69143  1.0000
  N   N9        1.0  0.03071  0.92676  0.16272  1.0000
  N   N10       1.0  0.53072  0.57324  0.33727  1.0000
  N   N11       1.0  0.96929  0.42676  0.33727  1.0000
  N   N12       1.0  0.46927  0.07324  0.16273  1.0000
  N   N13       1.0  0.96927  0.07324  0.83727  1.0000
  N   N14       1.0  0.46930  0.42676  0.66272  1.0000
  N   N15       1.0  0.03072  0.57324  0.66273  1.0000
  N   N16       1.0  0.53070  0.92676  0.83728  1.0000
  N   N17       1.0  0.98599  0.14394  0.47604  1.0000
  N   N18       1.0  0.48600  0.35605  0.02396  1.0000
  N   N19       1.0  0.01401  0.64394  0.02396  1.0000
  N   N20       1.0  0.51400  0.85606  0.47604  1.0000
  N   N21       1.0  0.01400  0.85605  0.52395  1.0000
  N   N22       1.0  0.51401  0.64394  0.97605  1.0000
  N   N23       1.0  0.98600  0.35605  0.97605  1.0000
  N   N24       1.0  0.48599  0.14394  0.52396  1.0000
  N   N25       1.0  0.03166  0.24823  0.50596  1.0000
  N   N26       1.0  0.53166  0.25178  0.99404  1.0000
  N   N27       1.0  0.96834  0.74822  0.99404  1.0000
  N   N28       1.0  0.46833  0.75177  0.50597  1.0000
  N   N29       1.0  0.96833  0.75177  0.49403  1.0000
  N   N30       1.0  0.46834  0.74822  0.00597  1.0000
  N   N31       1.0  0.03166  0.25177  0.00596  1.0000
  N   N32       1.0  0.53166  0.24822  0.49404  1.0000
  N   N33       1.0  0.07279  0.35068  0.53381  1.0000
  N   N34       1.0  0.57280  0.14931  0.96619  1.0000
  N   N35       1.0  0.92721  0.85068  0.96619  1.0000
  N   N36       1.0  0.42720  0.64931  0.53381  1.0000
  N   N37       1.0  0.92720  0.64931  0.46619  1.0000
  N   N38       1.0  0.42721  0.85068  0.03381  1.0000
  N   N39       1.0  0.07280  0.14931  0.03381  1.0000
  N   N40       1.0  0.57279  0.35068  0.46619  1.0000
