data_image0
_chemical_formula_structural       Ca4H32C32O16
_chemical_formula_sum              "Ca4 H32 C32 O16"
_cell_length_a       6.78529
_cell_length_b       9.61078
_cell_length_c       12.6492
_cell_angle_alpha    104.246
_cell_angle_beta     90.0001
_cell_angle_gamma    89.9999

_space_group_name_H-M_alt    "P 1"
_space_group_IT_number       1

loop_
  _space_group_symop_operation_xyz
  'x, y, z'

loop_
  _atom_site_type_symbol
  _atom_site_label
  _atom_site_symmetry_multiplicity
  _atom_site_fract_x
  _atom_site_fract_y
  _atom_site_fract_z
  _atom_site_occupancy
  Ca  Ca1       1.0  0.01541  0.69012  0.48803  1.0000
  Ca  Ca2       1.0  0.51541  0.80988  0.51197  1.0000
  Ca  Ca3       1.0  0.98459  0.30988  0.51197  1.0000
  Ca  Ca4       1.0  0.48459  0.19012  0.48803  1.0000
  H   H1        1.0  0.85762  0.96545  0.21463  1.0000
  H   H2        1.0  0.35762  0.53455  0.78537  1.0000
  H   H3        1.0  0.14238  0.03455  0.78537  1.0000
  H   H4        1.0  0.64238  0.46545  0.21463  1.0000
  H   H5        1.0  0.89337  0.67887  0.27727  1.0000
  H   H6        1.0  0.39337  0.82113  0.72273  1.0000
  H   H7        1.0  0.10663  0.32113  0.72274  1.0000
  H   H8        1.0  0.60663  0.17887  0.27727  1.0000
  H   H9        1.0  0.71007  0.73676  0.20221  1.0000
  H   H10       1.0  0.21006  0.76324  0.79779  1.0000
  H   H11       1.0  0.28994  0.26324  0.79779  1.0000
  H   H12       1.0  0.78994  0.23676  0.20221  1.0000
  H   H13       1.0  0.92435  0.57266  0.06757  1.0000
  H   H14       1.0  0.42435  0.92734  0.93243  1.0000
  H   H15       1.0  0.07565  0.42734  0.93243  1.0000
  H   H16       1.0  0.57565  0.07266  0.06757  1.0000
  H   H17       1.0  0.21391  0.67895  0.00579  1.0000
  H   H18       1.0  0.71391  0.82106  0.99421  1.0000
  H   H19       1.0  0.78608  0.32106  0.99421  1.0000
  H   H20       1.0  0.28609  0.17894  0.00579  1.0000
  H   H21       1.0  0.19538  0.95645  0.09589  1.0000
  H   H22       1.0  0.69538  0.54355  0.90411  1.0000
  H   H23       1.0  0.80462  0.04355  0.90411  1.0000
  H   H24       1.0  0.30462  0.45645  0.09589  1.0000
  H   H25       1.0  0.38901  0.86756  0.14171  1.0000
  H   H26       1.0  0.88901  0.63244  0.85829  1.0000
  H   H27       1.0  0.61099  0.13244  0.85829  1.0000
  H   H28       1.0  0.11099  0.36756  0.14171  1.0000
  H   H29       1.0  0.17152  0.04748  0.28127  1.0000
  H   H30       1.0  0.67152  0.45252  0.71873  1.0000
  H   H31       1.0  0.82848  0.95252  0.71874  1.0000
  H   H32       1.0  0.32848  0.54748  0.28127  1.0000
  C   C1        1.0  0.85097  0.96214  0.38041  1.0000
  C   C2        1.0  0.35097  0.53786  0.61959  1.0000
  C   C3        1.0  0.14903  0.03786  0.61959  1.0000
  C   C4        1.0  0.64903  0.46214  0.38041  1.0000
  C   C5        1.0  0.92722  0.90028  0.26480  1.0000
  C   C6        1.0  0.42722  0.59972  0.73520  1.0000
  C   C7        1.0  0.07278  0.09972  0.73520  1.0000
  C   C8        1.0  0.57278  0.40028  0.26480  1.0000
  C   C9        1.0  0.87029  0.74319  0.21755  1.0000
  C   C10       1.0  0.37029  0.75681  0.78245  1.0000
  C   C11       1.0  0.12971  0.25681  0.78245  1.0000
  C   C12       1.0  0.62971  0.24319  0.21755  1.0000
  C   C13       1.0  0.97985  0.67580  0.11528  1.0000
  C   C14       1.0  0.47986  0.82419  0.88472  1.0000
  C   C15       1.0  0.02015  0.32419  0.88472  1.0000
  C   C16       1.0  0.52015  0.17581  0.11527  1.0000
  C   C17       1.0  0.14019  0.73360  0.08153  1.0000
  C   C18       1.0  0.64019  0.76640  0.91846  1.0000
  C   C19       1.0  0.85981  0.26640  0.91847  1.0000
  C   C20       1.0  0.35981  0.23360  0.08154  1.0000
  C   C21       1.0  0.22693  0.87445  0.14118  1.0000
  C   C22       1.0  0.72693  0.62555  0.85882  1.0000
  C   C23       1.0  0.77307  0.12555  0.85882  1.0000
  C   C24       1.0  0.27307  0.37444  0.14118  1.0000
  C   C25       1.0  0.15059  0.93073  0.25902  1.0000
  C   C26       1.0  0.65059  0.56927  0.74098  1.0000
  C   C27       1.0  0.84941  0.06927  0.74098  1.0000
  C   C28       1.0  0.34941  0.43073  0.25902  1.0000
  C   C29       1.0  0.27875  0.87571  0.33867  1.0000
  C   C30       1.0  0.77875  0.62429  0.66133  1.0000
  C   C31       1.0  0.72125  0.12429  0.66133  1.0000
  C   C32       1.0  0.22125  0.37571  0.33867  1.0000
  O   O1        1.0  0.82968  0.87923  0.44425  1.0000
  O   O2        1.0  0.32968  0.62077  0.55575  1.0000
  O   O3        1.0  0.17032  0.12077  0.55575  1.0000
  O   O4        1.0  0.67032  0.37923  0.44425  1.0000
  O   O5        1.0  0.81224  0.09587  0.40761  1.0000
  O   O6        1.0  0.31224  0.40413  0.59239  1.0000
  O   O7        1.0  0.18776  0.90413  0.59238  1.0000
  O   O8        1.0  0.68776  0.59587  0.40762  1.0000
  O   O9        1.0  0.24013  0.75867  0.36483  1.0000
  O   O10       1.0  0.74013  0.74134  0.63517  1.0000
  O   O11       1.0  0.75987  0.24133  0.63517  1.0000
  O   O12       1.0  0.25987  0.25867  0.36483  1.0000
  O   O13       1.0  0.43014  0.95020  0.37790  1.0000
  O   O14       1.0  0.93014  0.54980  0.62210  1.0000
  O   O15       1.0  0.56986  0.04979  0.62210  1.0000
  O   O16       1.0  0.06986  0.45021  0.37790  1.0000
