data_image0
_chemical_formula_structural       CoH18C20N8O6
_chemical_formula_sum              "Co1 H18 C20 N8 O6"
_cell_length_a       8.02303
_cell_length_b       8.20353
_cell_length_c       10.0989
_cell_angle_alpha    85.9499
_cell_angle_beta     75.9545
_cell_angle_gamma    62.8771

_space_group_name_H-M_alt    "P 1"
_space_group_IT_number       1

loop_
  _space_group_symop_operation_xyz
  'x, y, z'

loop_
  _atom_site_type_symbol
  _atom_site_label
  _atom_site_symmetry_multiplicity
  _atom_site_fract_x
  _atom_site_fract_y
  _atom_site_fract_z
  _atom_site_occupancy
  Co  Co1       1.0  0.00000  1.00000  1.00000  1.0000
  H   H1        1.0  0.08293  0.57814  0.80752  1.0000
  H   H2        1.0  0.91708  0.42186  0.19249  1.0000
  H   H3        1.0  0.11236  0.35584  0.76567  1.0000
  H   H4        1.0  0.88765  0.64415  0.23433  1.0000
  H   H5        1.0  0.24140  0.37852  0.52437  1.0000
  H   H6        1.0  0.75860  0.62148  0.47563  1.0000
  H   H7        1.0  0.32199  0.62559  0.43571  1.0000
  H   H8        1.0  0.67801  0.37441  0.56429  1.0000
  H   H9        1.0  0.37737  0.41004  0.62505  1.0000
  H   H10       1.0  0.62262  0.58997  0.37494  1.0000
  H   H11       1.0  0.06824  0.71379  0.49752  1.0000
  H   H12       1.0  0.93176  0.28621  0.50247  1.0000
  H   H13       1.0  0.98960  0.11080  0.25564  1.0000
  H   H14       1.0  0.01041  0.88920  0.74436  1.0000
  H   H15       1.0  0.24118  0.86919  0.56489  1.0000
  H   H16       1.0  0.75883  0.13081  0.43510  1.0000
  H   H17       1.0  0.20947  0.96309  0.18520  1.0000
  H   H18       1.0  0.79053  0.03690  0.81480  1.0000
  C   C1        1.0  0.39856  0.89618  0.82421  1.0000
  C   C2        1.0  0.60145  0.10382  0.17578  1.0000
  C   C3        1.0  0.64374  0.91270  0.63669  1.0000
  C   C4        1.0  0.35626  0.08730  0.36331  1.0000
  C   C5        1.0  0.73632  0.66364  0.79191  1.0000
  C   C6        1.0  0.26367  0.33636  0.20809  1.0000
  C   C7        1.0  0.59142  0.82421  0.75208  1.0000
  C   C8        1.0  0.40858  0.17579  0.24792  1.0000
  C   C9        1.0  0.08683  0.49175  0.72745  1.0000
  C   C10       1.0  0.91317  0.50825  0.27255  1.0000
  C   C11       1.0  0.23713  0.47385  0.59754  1.0000
  C   C12       1.0  0.76287  0.52616  0.40245  1.0000
  C   C13       1.0  0.20604  0.65300  0.52869  1.0000
  C   C14       1.0  0.79396  0.34698  0.47130  1.0000
  C   C15       1.0  0.71394  0.58769  0.92215  1.0000
  C   C16       1.0  0.28606  0.41231  0.07786  1.0000
  C   C17       1.0  0.81889  0.40058  0.94036  1.0000
  C   C18       1.0  0.18110  0.59943  0.05964  1.0000
  C   C19       1.0  0.57819  0.69142  0.03948  1.0000
  C   C20       1.0  0.42179  0.30859  0.96053  1.0000
  N   N1        1.0  0.23947  0.94961  0.88731  1.0000
  N   N2        1.0  0.76052  0.05039  0.11269  1.0000
  N   N3        1.0  0.69186  0.98260  0.54032  1.0000
  N   N4        1.0  0.30814  0.01740  0.45967  1.0000
  N   N5        1.0  0.90024  0.24497  0.96030  1.0000
  N   N6        1.0  0.09976  0.75503  0.03970  1.0000
  N   N7        1.0  0.46986  0.77211  0.14043  1.0000
  N   N8        1.0  0.53015  0.22788  0.85956  1.0000
  O   O1        1.0  0.09383  0.07021  0.16899  1.0000
  O   O2        1.0  0.90618  0.92978  0.83102  1.0000
  O   O3        1.0  0.89788  0.58201  0.69354  1.0000
  O   O4        1.0  0.10211  0.41800  0.30646  1.0000
  O   O5        1.0  0.20748  0.77855  0.62036  1.0000
  O   O6        1.0  0.79252  0.22146  0.37964  1.0000
