data_image0
_chemical_formula_structural       Zn4H32C42N4O18
_chemical_formula_sum              "Zn4 H32 C42 N4 O18"
_cell_length_a       9.79181
_cell_length_b       11.5686
_cell_length_c       11.9228
_cell_angle_alpha    115.521
_cell_angle_beta     101.578
_cell_angle_gamma    96.6279

_space_group_name_H-M_alt    "P 1"
_space_group_IT_number       1

loop_
  _space_group_symop_operation_xyz
  'x, y, z'

loop_
  _atom_site_type_symbol
  _atom_site_label
  _atom_site_symmetry_multiplicity
  _atom_site_fract_x
  _atom_site_fract_y
  _atom_site_fract_z
  _atom_site_occupancy
  Zn  Zn1       1.0  0.16825  0.54783  0.56244  1.0000
  Zn  Zn2       1.0  0.83175  0.45217  0.43756  1.0000
  Zn  Zn3       1.0  0.07867  0.52371  0.28793  1.0000
  Zn  Zn4       1.0  0.92132  0.47628  0.71207  1.0000
  H   H1        1.0  0.13991  0.13349  0.05447  1.0000
  H   H2        1.0  0.86010  0.86651  0.94552  1.0000
  H   H3        1.0  0.43865  0.90693  0.12262  1.0000
  H   H4        1.0  0.56135  0.09307  0.87738  1.0000
  H   H5        1.0  0.39918  0.25976  0.43918  1.0000
  H   H6        1.0  0.60082  0.74025  0.56083  1.0000
  H   H7        1.0  0.64124  0.08297  0.54403  1.0000
  H   H8        1.0  0.35875  0.91702  0.45597  1.0000
  H   H9        1.0  0.49267  0.15739  0.54530  1.0000
  H   H10       1.0  0.50732  0.84260  0.45470  1.0000
  H   H11       1.0  0.20623  0.01865  0.84349  1.0000
  H   H12       1.0  0.79377  0.98135  0.15651  1.0000
  H   H13       1.0  0.05409  0.95167  0.87631  1.0000
  H   H14       1.0  0.94592  0.04834  0.12369  1.0000
  H   H15       1.0  0.27971  0.33337  0.61041  1.0000
  H   H16       1.0  0.72029  0.66662  0.38959  1.0000
  H   H17       1.0  0.48474  0.31109  0.75598  1.0000
  H   H18       1.0  0.51527  0.68891  0.24402  1.0000
  H   H19       1.0  0.62175  0.73601  0.95056  1.0000
  H   H20       1.0  0.37825  0.26399  0.04944  1.0000
  H   H21       1.0  0.41471  0.73854  0.79389  1.0000
  H   H22       1.0  0.58529  0.26145  0.20610  1.0000
  H   H23       1.0  0.61772  0.31737  0.92070  1.0000
  H   H24       1.0  0.38227  0.68264  0.07931  1.0000
  H   H25       1.0  0.82416  0.32256  0.08402  1.0000
  H   H26       1.0  0.17583  0.67744  0.91598  1.0000
  H   H27       1.0  0.01922  0.70289  0.17786  1.0000
  H   H28       1.0  0.98078  0.29711  0.82214  1.0000
  H   H29       1.0  0.82166  0.71294  0.01700  1.0000
  H   H30       1.0  0.17834  0.28707  0.98300  1.0000
  H   H31       1.0  0.98620  0.32690  0.50626  1.0000
  H   H32       1.0  0.01379  0.67309  0.49373  1.0000
  C   C1        1.0  0.26357  0.20375  0.25132  1.0000
  C   C2        1.0  0.73643  0.79626  0.74867  1.0000
  C   C3        1.0  0.21984  0.11513  0.11863  1.0000
  C   C4        1.0  0.78016  0.88487  0.88136  1.0000
  C   C5        1.0  0.28224  0.00690  0.07319  1.0000
  C   C6        1.0  0.71777  0.99310  0.92682  1.0000
  C   C7        1.0  0.38731  0.98899  0.15933  1.0000
  C   C8        1.0  0.61270  0.01101  0.84067  1.0000
  C   C9        1.0  0.42872  0.07770  0.29144  1.0000
  C   C10       1.0  0.57128  0.92231  0.70856  1.0000
  C   C11       1.0  0.36574  0.18533  0.33840  1.0000
  C   C12       1.0  0.63427  0.81468  0.66160  1.0000
  C   C13       1.0  0.20678  0.32563  0.30196  1.0000
  C   C14       1.0  0.79322  0.67437  0.69804  1.0000
  C   C15       1.0  0.58265  0.13693  0.50240  1.0000
  C   C16       1.0  0.41734  0.86307  0.49761  1.0000
  C   C17       1.0  0.68375  0.26738  0.54103  1.0000
  C   C18       1.0  0.31626  0.73262  0.45899  1.0000
  C   C19       1.0  0.15482  0.93360  0.85143  1.0000
  C   C20       1.0  0.84518  0.06640  0.14857  1.0000
  C   C21       1.0  0.11686  0.81092  0.71988  1.0000
  C   C22       1.0  0.88314  0.18908  0.28012  1.0000
  C   C23       1.0  0.35930  0.41958  0.68749  1.0000
  C   C24       1.0  0.64070  0.58041  0.31252  1.0000
  C   C25       1.0  0.47340  0.40850  0.76988  1.0000
  C   C26       1.0  0.52660  0.59150  0.23012  1.0000
  C   C27       1.0  0.57376  0.52244  0.86707  1.0000
  C   C28       1.0  0.42624  0.47756  0.13293  1.0000
  C   C29       1.0  0.55034  0.64319  0.87658  1.0000
  C   C30       1.0  0.44967  0.35681  0.12341  1.0000
  C   C31       1.0  0.43458  0.64611  0.78939  1.0000
  C   C32       1.0  0.56542  0.35388  0.21061  1.0000
  C   C33       1.0  0.69803  0.51707  0.95687  1.0000
  C   C34       1.0  0.30197  0.48294  0.04313  1.0000
  C   C35       1.0  0.70405  0.40525  0.97454  1.0000
  C   C36       1.0  0.29595  0.59475  0.02545  1.0000
  C   C37       1.0  0.81938  0.40634  0.06466  1.0000
  C   C38       1.0  0.18062  0.59366  0.93534  1.0000
  C   C39       1.0  0.92716  0.62004  0.11853  1.0000
  C   C40       1.0  0.07284  0.37996  0.88146  1.0000
  C   C41       1.0  0.81527  0.62542  0.03025  1.0000
  C   C42       1.0  0.18473  0.37458  0.96975  1.0000
  N   N1        1.0  0.34079  0.53615  0.69586  1.0000
  N   N2        1.0  0.65921  0.46385  0.30413  1.0000
  N   N3        1.0  0.92887  0.51300  0.13672  1.0000
  N   N4        1.0  0.07113  0.48700  0.86328  1.0000
  O   O1        1.0  0.23119  0.39196  0.42272  1.0000
  O   O2        1.0  0.76883  0.60805  0.57727  1.0000
  O   O3        1.0  0.13892  0.35564  0.21742  1.0000
  O   O4        1.0  0.86106  0.64435  0.78257  1.0000
  O   O5        1.0  0.24884  0.91343  0.94670  1.0000
  O   O6        1.0  0.75116  0.08658  0.05330  1.0000
  O   O7        1.0  0.05743  0.82351  0.62329  1.0000
  O   O8        1.0  0.94258  0.17649  0.37671  1.0000
  O   O9        1.0  0.14618  0.70694  0.72172  1.0000
  O   O10       1.0  0.85382  0.29306  0.27829  1.0000
  O   O11       1.0  0.53236  0.05081  0.36656  1.0000
  O   O12       1.0  0.46764  0.94919  0.63344  1.0000
  O   O13       1.0  0.68390  0.30712  0.45876  1.0000
  O   O14       1.0  0.31612  0.69288  0.54126  1.0000
  O   O15       1.0  0.75975  0.32449  0.66029  1.0000
  O   O16       1.0  0.24026  0.67550  0.33972  1.0000
  O   O17       1.0  0.99969  0.42386  0.56486  1.0000
  O   O18       1.0  0.00031  0.57613  0.43513  1.0000
