data_image0
_chemical_formula_structural       Gd4H16C20O32
_chemical_formula_sum              "Gd4 H16 C20 O32"
_cell_length_a       9.64167
_cell_length_b       9.71644
_cell_length_c       9.91154
_cell_angle_alpha    90
_cell_angle_beta     119.903
_cell_angle_gamma    90

_space_group_name_H-M_alt    "P 1"
_space_group_IT_number       1

loop_
  _space_group_symop_operation_xyz
  'x, y, z'

loop_
  _atom_site_type_symbol
  _atom_site_label
  _atom_site_symmetry_multiplicity
  _atom_site_fract_x
  _atom_site_fract_y
  _atom_site_fract_z
  _atom_site_occupancy
  Gd  Gd1       1.0  0.27132  0.44041  0.63452  1.0000
  Gd  Gd2       1.0  0.72868  0.94041  0.86548  1.0000
  Gd  Gd3       1.0  0.72868  0.55959  0.36548  1.0000
  Gd  Gd4       1.0  0.27132  0.05959  0.13452  1.0000
  H   H1        1.0  0.52470  0.37194  0.96309  1.0000
  H   H2        1.0  0.47530  0.87194  0.53691  1.0000
  H   H3        1.0  0.47530  0.62806  0.03691  1.0000
  H   H4        1.0  0.52470  0.12806  0.46309  1.0000
  H   H5        1.0  0.54868  0.26616  0.85828  1.0000
  H   H6        1.0  0.45132  0.76616  0.64172  1.0000
  H   H7        1.0  0.45132  0.73384  0.14172  1.0000
  H   H8        1.0  0.54868  0.23384  0.35827  1.0000
  H   H9        1.0  0.25581  0.17921  0.46339  1.0000
  H   H10       1.0  0.74419  0.67921  0.03661  1.0000
  H   H11       1.0  0.74419  0.82079  0.53661  1.0000
  H   H12       1.0  0.25581  0.32079  0.96339  1.0000
  H   H13       1.0  0.34183  0.12801  0.64403  1.0000
  H   H14       1.0  0.65817  0.62801  0.85597  1.0000
  H   H15       1.0  0.65817  0.87199  0.35597  1.0000
  H   H16       1.0  0.34183  0.37199  0.14403  1.0000
  C   C1        1.0  0.16882  0.73946  0.42575  1.0000
  C   C2        1.0  0.83118  0.23946  0.07425  1.0000
  C   C3        1.0  0.83118  0.26054  0.57426  1.0000
  C   C4        1.0  0.16882  0.76054  0.92575  1.0000
  C   C5        1.0  0.20409  0.84589  0.34133  1.0000
  C   C6        1.0  0.79591  0.34589  0.15867  1.0000
  C   C7        1.0  0.79591  0.15412  0.65867  1.0000
  C   C8        1.0  0.20409  0.65411  0.84133  1.0000
  C   C9        1.0  0.43037  0.48115  0.41753  1.0000
  C   C10       1.0  0.56963  0.98115  0.08247  1.0000
  C   C11       1.0  0.56963  0.51885  0.58247  1.0000
  C   C12       1.0  0.43037  0.01885  0.91753  1.0000
  C   C13       1.0  0.04264  0.83653  0.21037  1.0000
  C   C14       1.0  0.95736  0.33653  0.28963  1.0000
  C   C15       1.0  0.95736  0.16347  0.78964  1.0000
  C   C16       1.0  0.04264  0.66347  0.71036  1.0000
  C   C17       1.0  0.00197  0.73028  0.29103  1.0000
  C   C18       1.0  0.99803  0.23028  0.20897  1.0000
  C   C19       1.0  0.99803  0.26972  0.70897  1.0000
  C   C20       1.0  0.00197  0.76972  0.79103  1.0000
  O   O1        1.0  0.25155  0.68044  0.55538  1.0000
  O   O2        1.0  0.74845  0.18044  0.94462  1.0000
  O   O3        1.0  0.74845  0.31956  0.44462  1.0000
  O   O4        1.0  0.25155  0.81956  0.05538  1.0000
  O   O5        1.0  0.32305  0.91826  0.36121  1.0000
  O   O6        1.0  0.67696  0.41826  0.13879  1.0000
  O   O7        1.0  0.67696  0.08175  0.63879  1.0000
  O   O8        1.0  0.32305  0.58174  0.86121  1.0000
  O   O9        1.0  0.29822  0.44949  0.40528  1.0000
  O   O10       1.0  0.70178  0.94949  0.09472  1.0000
  O   O11       1.0  0.70178  0.55051  0.59472  1.0000
  O   O12       1.0  0.29822  0.05051  0.90528  1.0000
  O   O13       1.0  0.46211  0.48593  0.30706  1.0000
  O   O14       1.0  0.53789  0.98593  0.19294  1.0000
  O   O15       1.0  0.53789  0.51407  0.69294  1.0000
  O   O16       1.0  0.46211  0.01407  0.80706  1.0000
  O   O17       1.0  0.29771  0.20792  0.57261  1.0000
  O   O18       1.0  0.70228  0.70793  0.92739  1.0000
  O   O19       1.0  0.70228  0.79207  0.42739  1.0000
  O   O20       1.0  0.29771  0.29207  0.07261  1.0000
  O   O21       1.0  0.97892  0.89779  0.08153  1.0000
  O   O22       1.0  0.02108  0.39779  0.41847  1.0000
  O   O23       1.0  0.02108  0.10221  0.91847  1.0000
  O   O24       1.0  0.97892  0.60221  0.58153  1.0000
  O   O25       1.0  0.46531  0.32373  0.86076  1.0000
  O   O26       1.0  0.53469  0.82373  0.63924  1.0000
  O   O27       1.0  0.53469  0.67627  0.13924  1.0000
  O   O28       1.0  0.46531  0.17627  0.36076  1.0000
  O   O29       1.0  0.87770  0.66102  0.25322  1.0000
  O   O30       1.0  0.12230  0.16102  0.24678  1.0000
  O   O31       1.0  0.12230  0.33898  0.74678  1.0000
  O   O32       1.0  0.87770  0.83898  0.75322  1.0000
