data_image0
_chemical_formula_structural       Cd3H26C22O22
_chemical_formula_sum              "Cd3 H26 C22 O22"
_cell_length_a       6.66182
_cell_length_b       12.8323
_cell_length_c       11.7323
_cell_angle_alpha    124.291
_cell_angle_beta     91.1979
_cell_angle_gamma    98.8621

_space_group_name_H-M_alt    "P 1"
_space_group_IT_number       1

loop_
  _space_group_symop_operation_xyz
  'x, y, z'

loop_
  _atom_site_type_symbol
  _atom_site_label
  _atom_site_symmetry_multiplicity
  _atom_site_fract_x
  _atom_site_fract_y
  _atom_site_fract_z
  _atom_site_occupancy
  Cd  Cd1       1.0  0.00001  0.00000  0.50000  1.0000
  Cd  Cd2       1.0  0.04166  0.27439  0.89533  1.0000
  Cd  Cd3       1.0  0.95837  0.72559  0.10467  1.0000
  H   H1        1.0  0.49216  0.25656  0.89127  1.0000
  H   H2        1.0  0.50784  0.74343  0.10873  1.0000
  H   H3        1.0  0.34502  0.22149  0.97806  1.0000
  H   H4        1.0  0.65495  0.77850  0.02193  1.0000
  H   H5        1.0  0.75224  0.41690  0.88540  1.0000
  H   H6        1.0  0.24774  0.58309  0.11461  1.0000
  H   H7        1.0  0.74645  0.42986  0.02402  1.0000
  H   H8        1.0  0.25353  0.57016  0.97600  1.0000
  H   H9        1.0  0.31222  0.92433  0.60000  1.0000
  H   H10       1.0  0.68777  0.07567  0.40001  1.0000
  H   H11       1.0  0.27531  0.05800  0.72934  1.0000
  H   H12       1.0  0.72469  0.94199  0.27066  1.0000
  H   H13       1.0  0.38358  0.66015  0.34314  1.0000
  H   H14       1.0  0.61640  0.33982  0.65681  1.0000
  H   H15       1.0  0.38597  0.72092  0.74502  1.0000
  H   H16       1.0  0.61402  0.27906  0.25499  1.0000
  H   H17       1.0  0.16029  0.34225  0.36949  1.0000
  H   H18       1.0  0.83975  0.65778  0.63054  1.0000
  H   H19       1.0  0.68537  0.85155  0.75940  1.0000
  H   H20       1.0  0.31463  0.14845  0.24059  1.0000
  H   H21       1.0  0.49707  0.94989  0.81919  1.0000
  H   H22       1.0  0.50293  0.05010  0.18081  1.0000
  H   H23       1.0  0.25538  0.29948  0.52203  1.0000
  H   H24       1.0  0.74462  0.70053  0.47797  1.0000
  H   H25       1.0  0.99964  0.32689  0.53615  1.0000
  H   H26       1.0  0.00036  0.67311  0.46384  1.0000
  C   C1        1.0  0.26532  0.49207  0.34168  1.0000
  C   C2        1.0  0.73472  0.50795  0.65833  1.0000
  C   C3        1.0  0.34656  0.62207  0.40452  1.0000
  C   C4        1.0  0.65348  0.37794  0.59548  1.0000
  C   C5        1.0  0.39282  0.70370  0.54983  1.0000
  C   C6        1.0  0.60720  0.29630  0.45017  1.0000
  C   C7        1.0  0.34923  0.65922  0.63234  1.0000
  C   C8        1.0  0.65077  0.34079  0.36767  1.0000
  C   C9        1.0  0.26368  0.52838  0.56706  1.0000
  C   C10       1.0  0.73632  0.47164  0.43295  1.0000
  C   C11       1.0  0.22334  0.44422  0.42235  1.0000
  C   C12       1.0  0.77668  0.55580  0.57766  1.0000
  C   C13       1.0  0.23078  0.39950  0.18655  1.0000
  C   C14       1.0  0.76924  0.60050  0.81346  1.0000
  C   C15       1.0  0.60007  0.90780  0.73912  1.0000
  C   C16       1.0  0.39994  0.09220  0.26088  1.0000
  C   C17       1.0  0.74983  0.01572  0.74727  1.0000
  C   C18       1.0  0.25014  0.98428  0.25271  1.0000
  C   C19       1.0  0.15396  0.35937  0.59398  1.0000
  C   C20       1.0  0.84604  0.64062  0.40601  1.0000
  C   C21       1.0  0.14332  0.33671  0.70667  1.0000
  C   C22       1.0  0.85667  0.66328  0.29333  1.0000
  O   O1        1.0  0.36533  0.19905  0.88249  1.0000
  O   O2        1.0  0.63466  0.80094  0.11750  1.0000
  O   O3        1.0  0.73730  0.36259  0.92185  1.0000
  O   O4        1.0  0.26272  0.63742  0.07817  1.0000
  O   O5        1.0  0.20802  0.97799  0.63857  1.0000
  O   O6        1.0  0.79197  0.02200  0.36144  1.0000
  O   O7        1.0  0.17851  0.44208  0.11521  1.0000
  O   O8        1.0  0.82150  0.55791  0.88479  1.0000
  O   O9        1.0  0.25223  0.28527  0.13264  1.0000
  O   O10       1.0  0.74778  0.71472  0.86737  1.0000
  O   O11       1.0  0.48680  0.82832  0.60191  1.0000
  O   O12       1.0  0.51322  0.17168  0.39809  1.0000
  O   O13       1.0  0.75692  0.01372  0.63880  1.0000
  O   O14       1.0  0.24304  0.98628  0.36119  1.0000
  O   O15       1.0  0.85224  0.09996  0.86678  1.0000
  O   O16       1.0  0.14772  0.90004  0.13320  1.0000
  O   O17       1.0  0.22937  0.49231  0.65552  1.0000
  O   O18       1.0  0.77062  0.50771  0.34449  1.0000
  O   O19       1.0  0.05053  0.22431  0.66955  1.0000
  O   O20       1.0  0.94946  0.77568  0.33045  1.0000
  O   O21       1.0  0.21815  0.42254  0.83088  1.0000
  O   O22       1.0  0.78183  0.57745  0.16911  1.0000
