data_image0
_chemical_formula_structural       Ag2H12C16S2N14O6
_chemical_formula_sum              "Ag2 H12 C16 S2 N14 O6"
_cell_length_a       7.40749
_cell_length_b       8.1745
_cell_length_c       10.4766
_cell_angle_alpha    90.5626
_cell_angle_beta     107.907
_cell_angle_gamma    96.5323

_space_group_name_H-M_alt    "P 1"
_space_group_IT_number       1

loop_
  _space_group_symop_operation_xyz
  'x, y, z'

loop_
  _atom_site_type_symbol
  _atom_site_label
  _atom_site_symmetry_multiplicity
  _atom_site_fract_x
  _atom_site_fract_y
  _atom_site_fract_z
  _atom_site_occupancy
  Ag  Ag1       1.0  0.76977  0.17408  0.25196  1.0000
  Ag  Ag2       1.0  0.23024  0.82591  0.74804  1.0000
  H   H1        1.0  0.57280  0.24985  0.92361  1.0000
  H   H2        1.0  0.42720  0.75015  0.07639  1.0000
  H   H3        1.0  0.89054  0.86423  0.08724  1.0000
  H   H4        1.0  0.10946  0.13577  0.91276  1.0000
  H   H5        1.0  0.70195  0.57489  0.94579  1.0000
  H   H6        1.0  0.29805  0.42511  0.05421  1.0000
  H   H7        1.0  0.76685  0.59193  0.52436  1.0000
  H   H8        1.0  0.23315  0.40807  0.47564  1.0000
  H   H9        1.0  0.97530  0.28019  0.58748  1.0000
  H   H10       1.0  0.02470  0.71981  0.41251  1.0000
  H   H11       1.0  0.60001  0.85934  0.40083  1.0000
  H   H12       1.0  0.39999  0.14065  0.59917  1.0000
  C   C1        1.0  0.64277  0.13898  0.93260  1.0000
  C   C2        1.0  0.35723  0.86103  0.06740  1.0000
  C   C3        1.0  0.80319  0.94357  0.01856  1.0000
  C   C4        1.0  0.19681  0.05643  0.98144  1.0000
  C   C5        1.0  0.72047  0.61503  0.85107  1.0000
  C   C6        1.0  0.27952  0.38497  0.14893  1.0000
  C   C7        1.0  0.73082  0.77286  0.80702  1.0000
  C   C8        1.0  0.26917  0.22714  0.19298  1.0000
  C   C9        1.0  0.74895  0.77822  0.67483  1.0000
  C   C10       1.0  0.25105  0.22178  0.32518  1.0000
  C   C11       1.0  0.74982  0.62399  0.62101  1.0000
  C   C12       1.0  0.25019  0.37601  0.37899  1.0000
  C   C13       1.0  0.89027  0.16001  0.57253  1.0000
  C   C14       1.0  0.10973  0.83998  0.42747  1.0000
  C   C15       1.0  0.69892  0.94801  0.47431  1.0000
  C   C16       1.0  0.30108  0.05199  0.52568  1.0000
  S   S1        1.0  0.73098  0.47590  0.73149  1.0000
  S   S2        1.0  0.26902  0.52410  0.26851  1.0000
  N   N1        1.0  0.75502  0.08686  0.05134  1.0000
  N   N2        1.0  0.24499  0.91314  0.94866  1.0000
  N   N3        1.0  0.61866  0.03603  0.82850  1.0000
  N   N4        1.0  0.38133  0.96397  0.17150  1.0000
  N   N5        1.0  0.72278  0.91208  0.88480  1.0000
  N   N6        1.0  0.27722  0.08792  0.11520  1.0000
  N   N7        1.0  0.77145  0.92370  0.60680  1.0000
  N   N8        1.0  0.22855  0.07630  0.39320  1.0000
  N   N9        1.0  0.89501  0.05840  0.67104  1.0000
  N   N10       1.0  0.10498  0.94161  0.32896  1.0000
  N   N11       1.0  0.77190  0.09700  0.44988  1.0000
  N   N12       1.0  0.22810  0.90300  0.55012  1.0000
  N   N13       1.0  0.73970  0.54443  0.23401  1.0000
  N   N14       1.0  0.26030  0.45557  0.76599  1.0000
  O   O1        1.0  0.80624  0.48638  0.34956  1.0000
  O   O2        1.0  0.19376  0.51362  0.65044  1.0000
  O   O3        1.0  0.70715  0.45101  0.12956  1.0000
  O   O4        1.0  0.29285  0.54899  0.87044  1.0000
  O   O5        1.0  0.70717  0.69262  0.22402  1.0000
  O   O6        1.0  0.29283  0.30738  0.77598  1.0000
