data_image0
_chemical_formula_structural       Cd7H32C56Cl6O20
_chemical_formula_sum              "Cd7 H32 C56 Cl6 O20"
_cell_length_a       10.4139
_cell_length_b       10.761
_cell_length_c       15.2428
_cell_angle_alpha    85.8658
_cell_angle_beta     74.3566
_cell_angle_gamma    61.9392

_space_group_name_H-M_alt    "P 1"
_space_group_IT_number       1

loop_
  _space_group_symop_operation_xyz
  'x, y, z'

loop_
  _atom_site_type_symbol
  _atom_site_label
  _atom_site_symmetry_multiplicity
  _atom_site_fract_x
  _atom_site_fract_y
  _atom_site_fract_z
  _atom_site_occupancy
  Cd  Cd1       1.0  0.50000  0.50000  1.00000  1.0000
  Cd  Cd2       1.0  0.79832  0.66507  0.98381  1.0000
  Cd  Cd3       1.0  0.20168  0.33493  0.01619  1.0000
  Cd  Cd4       1.0  0.37088  0.91456  0.01245  1.0000
  Cd  Cd5       1.0  0.62911  0.08544  0.98755  1.0000
  Cd  Cd6       1.0  0.93549  0.21337  0.98321  1.0000
  Cd  Cd7       1.0  0.06451  0.78663  0.01679  1.0000
  H   H1        1.0  0.44971  0.40325  0.29877  1.0000
  H   H2        1.0  0.55029  0.59675  0.70123  1.0000
  H   H3        1.0  0.41448  0.31388  0.45484  1.0000
  H   H4        1.0  0.58552  0.68612  0.54516  1.0000
  H   H5        1.0  0.26872  0.04388  0.36276  1.0000
  H   H6        1.0  0.73128  0.95612  0.63724  1.0000
  H   H7        1.0  0.31358  0.12721  0.20596  1.0000
  H   H8        1.0  0.68642  0.87279  0.79404  1.0000
  H   H9        1.0  0.01416  0.52862  0.68303  1.0000
  H   H10       1.0  0.98584  0.47138  0.31697  1.0000
  H   H11       1.0  0.13722  0.40282  0.52854  1.0000
  H   H12       1.0  0.86278  0.59718  0.47146  1.0000
  H   H13       1.0  0.35681  0.01077  0.65112  1.0000
  H   H14       1.0  0.64319  0.98923  0.34888  1.0000
  H   H15       1.0  0.23592  0.13824  0.80487  1.0000
  H   H16       1.0  0.76408  0.86175  0.19513  1.0000
  H   H17       1.0  0.82624  0.38039  0.20522  1.0000
  H   H18       1.0  0.17376  0.61962  0.79478  1.0000
  H   H19       1.0  0.63827  0.45419  0.35833  1.0000
  H   H20       1.0  0.36173  0.54581  0.64167  1.0000
  H   H21       1.0  0.89602  0.04968  0.45523  1.0000
  H   H22       1.0  0.10398  0.95032  0.54477  1.0000
  H   H23       1.0  0.08587  0.97902  0.30339  1.0000
  H   H24       1.0  0.91413  0.02098  0.69661  1.0000
  H   H25       1.0  0.50842  0.27799  0.80229  1.0000
  H   H26       1.0  0.49158  0.72201  0.19771  1.0000
  H   H27       1.0  0.46997  0.28359  0.64719  1.0000
  H   H28       1.0  0.53003  0.71641  0.35281  1.0000
  H   H29       1.0  0.89197  0.29184  0.52934  1.0000
  H   H30       1.0  0.10803  0.70816  0.47066  1.0000
  H   H31       1.0  0.93247  0.27818  0.68419  1.0000
  H   H32       1.0  0.06753  0.72182  0.31581  1.0000
  C   C1        1.0  0.40735  0.32190  0.15015  1.0000
  C   C2        1.0  0.59265  0.67810  0.84985  1.0000
  C   C3        1.0  0.38094  0.27281  0.24338  1.0000
  C   C4        1.0  0.61906  0.72719  0.75662  1.0000
  C   C5        1.0  0.40883  0.32560  0.31380  1.0000
  C   C6        1.0  0.59117  0.67440  0.68620  1.0000
  C   C7        1.0  0.38791  0.27692  0.40084  1.0000
  C   C8        1.0  0.61209  0.72308  0.59916  1.0000
  C   C9        1.0  0.33477  0.17720  0.41744  1.0000
  C   C10       1.0  0.66523  0.82280  0.58256  1.0000
  C   C11       1.0  0.30709  0.12333  0.34803  1.0000
  C   C12       1.0  0.69291  0.87667  0.65197  1.0000
  C   C13       1.0  0.33182  0.17035  0.26096  1.0000
  C   C14       1.0  0.66819  0.82965  0.73904  1.0000
  C   C15       1.0  0.03618  0.41523  0.84547  1.0000
  C   C16       1.0  0.96382  0.58477  0.15453  1.0000
  C   C17       1.0  0.11813  0.34171  0.75364  1.0000
  C   C18       1.0  0.88186  0.65829  0.24636  1.0000
  C   C19       1.0  0.09145  0.41570  0.67526  1.0000
  C   C20       1.0  0.90855  0.58430  0.32474  1.0000
  C   C21       1.0  0.15951  0.34553  0.58908  1.0000
  C   C22       1.0  0.84049  0.65447  0.41092  1.0000
  C   C23       1.0  0.25473  0.19925  0.58150  1.0000
  C   C24       1.0  0.74527  0.80075  0.41850  1.0000
  C   C25       1.0  0.28344  0.12440  0.65896  1.0000
  C   C26       1.0  0.71656  0.87560  0.34104  1.0000
  C   C27       1.0  0.21557  0.19588  0.74430  1.0000
  C   C28       1.0  0.78443  0.80412  0.25570  1.0000
  C   C29       1.0  0.08451  0.13052  0.15490  1.0000
  C   C30       1.0  0.91549  0.86948  0.84510  1.0000
  C   C31       1.0  0.96916  0.17545  0.24478  1.0000
  C   C32       1.0  0.03084  0.82455  0.75522  1.0000
  C   C33       1.0  0.84183  0.30888  0.26018  1.0000
  C   C34       1.0  0.15817  0.69112  0.73982  1.0000
  C   C35       1.0  0.73680  0.35022  0.34531  1.0000
  C   C36       1.0  0.26320  0.64978  0.65469  1.0000
  C   C37       1.0  0.75791  0.25742  0.41526  1.0000
  C   C38       1.0  0.24208  0.74258  0.58474  1.0000
  C   C39       1.0  0.88304  0.12274  0.40090  1.0000
  C   C40       1.0  0.11695  0.87726  0.59910  1.0000
  C   C41       1.0  0.98825  0.08334  0.31599  1.0000
  C   C42       1.0  0.01175  0.91666  0.68401  1.0000
  C   C43       1.0  0.75227  0.26360  0.84463  1.0000
  C   C44       1.0  0.24773  0.73640  0.15537  1.0000
  C   C45       1.0  0.72355  0.27677  0.75321  1.0000
  C   C46       1.0  0.27645  0.72323  0.24679  1.0000
  C   C47       1.0  0.59213  0.28066  0.74246  1.0000
  C   C48       1.0  0.40787  0.71934  0.25754  1.0000
  C   C49       1.0  0.57002  0.28443  0.65610  1.0000
  C   C50       1.0  0.42998  0.71557  0.34390  1.0000
  C   C51       1.0  0.67849  0.28791  0.57939  1.0000
  C   C52       1.0  0.32151  0.71209  0.42061  1.0000
  C   C53       1.0  0.80897  0.28715  0.58900  1.0000
  C   C54       1.0  0.19103  0.71285  0.41100  1.0000
  C   C55       1.0  0.83098  0.28044  0.67570  1.0000
  C   C56       1.0  0.16902  0.71956  0.32430  1.0000
  Cl  Cl1       1.0  0.72808  0.47163  0.06151  1.0000
  Cl  Cl2       1.0  0.27192  0.52837  0.93848  1.0000
  Cl  Cl3       1.0  0.41322  0.10930  0.91297  1.0000
  Cl  Cl4       1.0  0.58678  0.89070  0.08703  1.0000
  Cl  Cl5       1.0  0.82030  0.06116  0.07979  1.0000
  Cl  Cl6       1.0  0.17971  0.93883  0.92021  1.0000
  O   O1        1.0  0.43172  0.42711  0.13851  1.0000
  O   O2        1.0  0.56827  0.57289  0.86149  1.0000
  O   O3        1.0  0.40655  0.25281  0.08388  1.0000
  O   O4        1.0  0.59345  0.74719  0.91612  1.0000
  O   O5        1.0  0.93929  0.54415  0.85047  1.0000
  O   O6        1.0  0.06071  0.45585  0.14953  1.0000
  O   O7        1.0  0.31749  0.11826  0.50060  1.0000
  O   O8        1.0  0.68251  0.88174  0.49940  1.0000
  O   O9        1.0  0.06442  0.34460  0.91665  1.0000
  O   O10       1.0  0.93558  0.65540  0.08335  1.0000
  O   O11       1.0  0.64430  0.30053  0.49668  1.0000
  O   O12       1.0  0.35570  0.69947  0.50332  1.0000
  O   O13       1.0  0.20586  0.01607  0.14897  1.0000
  O   O14       1.0  0.79414  0.98393  0.85103  1.0000
  O   O15       1.0  0.64423  0.27944  0.91670  1.0000
  O   O16       1.0  0.35577  0.72056  0.08330  1.0000
  O   O17       1.0  0.06057  0.20910  0.08665  1.0000
  O   O18       1.0  0.93944  0.79090  0.91334  1.0000
  O   O19       1.0  0.88316  0.23624  0.84854  1.0000
  O   O20       1.0  0.11684  0.76376  0.15146  1.0000
