data_image0
_chemical_formula_structural       Ag4H24C32S4N28O12
_chemical_formula_sum              "Ag4 H24 C32 S4 N28 O12"
_cell_length_a       3.8888
_cell_length_b       12.9751
_cell_length_c       23.1877
_cell_angle_alpha    89.9996
_cell_angle_beta     94.0458
_cell_angle_gamma    90.0005

_space_group_name_H-M_alt    "P 1"
_space_group_IT_number       1

loop_
  _space_group_symop_operation_xyz
  'x, y, z'

loop_
  _atom_site_type_symbol
  _atom_site_label
  _atom_site_symmetry_multiplicity
  _atom_site_fract_x
  _atom_site_fract_y
  _atom_site_fract_z
  _atom_site_occupancy
  Ag  Ag1       1.0  0.58862  0.83655  0.73207  1.0000
  Ag  Ag2       1.0  0.91140  0.33656  0.76793  1.0000
  Ag  Ag3       1.0  0.41137  0.16344  0.26792  1.0000
  Ag  Ag4       1.0  0.08861  0.66344  0.23208  1.0000
  H   H1        1.0  0.17717  0.62507  0.76763  1.0000
  H   H2        1.0  0.32281  0.12507  0.73237  1.0000
  H   H3        1.0  0.82282  0.37494  0.23237  1.0000
  H   H4        1.0  0.67715  0.87493  0.26763  1.0000
  H   H5        1.0  0.36133  0.89440  0.86645  1.0000
  H   H6        1.0  0.13870  0.39441  0.63355  1.0000
  H   H7        1.0  0.63868  0.10560  0.13355  1.0000
  H   H8        1.0  0.86131  0.60560  0.36645  1.0000
  H   H9        1.0  0.00584  0.92557  0.95501  1.0000
  H   H10       1.0  0.49415  0.42557  0.54498  1.0000
  H   H11       1.0  0.99415  0.07443  0.04499  1.0000
  H   H12       1.0  0.50581  0.57443  0.45501  1.0000
  H   H13       1.0  0.78700  0.88349  0.05913  1.0000
  H   H14       1.0  0.71298  0.38348  0.44086  1.0000
  H   H15       1.0  0.21300  0.11651  0.94086  1.0000
  H   H16       1.0  0.28700  0.61652  0.55914  1.0000
  H   H17       1.0  0.39280  0.47593  0.14492  1.0000
  H   H18       1.0  0.10720  0.97593  0.35508  1.0000
  H   H19       1.0  0.60720  0.52407  0.85508  1.0000
  H   H20       1.0  0.89280  0.02407  0.64492  1.0000
  H   H21       1.0  0.39896  0.79898  0.12618  1.0000
  H   H22       1.0  0.10101  0.29898  0.37382  1.0000
  H   H23       1.0  0.60105  0.20102  0.87382  1.0000
  H   H24       1.0  0.89898  0.70102  0.62617  1.0000
  C   C1        1.0  0.17053  0.68061  0.80258  1.0000
  C   C2        1.0  0.32946  0.18061  0.69742  1.0000
  C   C3        1.0  0.82947  0.31939  0.19742  1.0000
  C   C4        1.0  0.67051  0.81939  0.30258  1.0000
  C   C5        1.0  0.26706  0.81937  0.85189  1.0000
  C   C6        1.0  0.23297  0.31938  0.64811  1.0000
  C   C7        1.0  0.73294  0.18062  0.14811  1.0000
  C   C8        1.0  0.76704  0.68063  0.35189  1.0000
  C   C9        1.0  0.96963  0.76100  0.93783  1.0000
  C   C10       1.0  0.53037  0.26100  0.56217  1.0000
  C   C11       1.0  0.03036  0.23900  0.06217  1.0000
  C   C12       1.0  0.46963  0.73900  0.43783  1.0000
  C   C13       1.0  0.94441  0.84907  0.97043  1.0000
  C   C14       1.0  0.55559  0.34906  0.52956  1.0000
  C   C15       1.0  0.05559  0.15093  0.02956  1.0000
  C   C16       1.0  0.44439  0.65094  0.47044  1.0000
  C   C17       1.0  0.82004  0.82712  0.02521  1.0000
  C   C18       1.0  0.67994  0.32711  0.47479  1.0000
  C   C19       1.0  0.17996  0.17288  0.97479  1.0000
  C   C20       1.0  0.32006  0.67289  0.52521  1.0000
  C   C21       1.0  0.75123  0.72360  0.03099  1.0000
  C   C22       1.0  0.74875  0.22359  0.46901  1.0000
  C   C23       1.0  0.24877  0.27640  0.96901  1.0000
  C   C24       1.0  0.25124  0.77640  0.53099  1.0000
  C   C25       1.0  0.44537  0.55233  0.12876  1.0000
  C   C26       1.0  0.05463  0.05232  0.37125  1.0000
  C   C27       1.0  0.55464  0.44768  0.87124  1.0000
  C   C28       1.0  0.94538  0.94768  0.62875  1.0000
  C   C29       1.0  0.44125  0.71721  0.12060  1.0000
  C   C30       1.0  0.05873  0.21720  0.37940  1.0000
  C   C31       1.0  0.55875  0.28279  0.87940  1.0000
  C   C32       1.0  0.94127  0.78279  0.62060  1.0000
  S   S1        1.0  0.84221  0.65023  0.97184  1.0000
  S   S2        1.0  0.65779  0.15023  0.52816  1.0000
  S   S3        1.0  0.15779  0.34977  0.02816  1.0000
  S   S4        1.0  0.34222  0.84977  0.47184  1.0000
  N   N1        1.0  0.32074  0.77617  0.80106  1.0000
  N   N2        1.0  0.17927  0.27617  0.69894  1.0000
  N   N3        1.0  0.67926  0.22383  0.19894  1.0000
  N   N4        1.0  0.82073  0.72383  0.30106  1.0000
  N   N5        1.0  0.02582  0.66275  0.85157  1.0000
  N   N6        1.0  0.47417  0.16275  0.64844  1.0000
  N   N7        1.0  0.97417  0.33725  0.14843  1.0000
  N   N8        1.0  0.52581  0.83725  0.35156  1.0000
  N   N9        1.0  0.08842  0.75167  0.88257  1.0000
  N   N10       1.0  0.41159  0.25168  0.61744  1.0000
  N   N11       1.0  0.91158  0.24833  0.11743  1.0000
  N   N12       1.0  0.58840  0.74833  0.38256  1.0000
  N   N13       1.0  0.60605  0.67468  0.07710  1.0000
  N   N14       1.0  0.89394  0.17467  0.42290  1.0000
  N   N15       1.0  0.39395  0.32532  0.92290  1.0000
  N   N16       1.0  0.10606  0.82533  0.57710  1.0000
  N   N17       1.0  0.60962  0.56929  0.08158  1.0000
  N   N18       1.0  0.89039  0.06928  0.41842  1.0000
  N   N19       1.0  0.39039  0.43071  0.91842  1.0000
  N   N20       1.0  0.10962  0.93071  0.58158  1.0000
  N   N21       1.0  0.33829  0.64116  0.15418  1.0000
  N   N22       1.0  0.16170  0.14115  0.34582  1.0000
  N   N23       1.0  0.66171  0.35885  0.84582  1.0000
  N   N24       1.0  0.83830  0.85884  0.65417  1.0000
  N   N25       1.0  0.90410  0.04985  0.81932  1.0000
  N   N26       1.0  0.59591  0.54985  0.68068  1.0000
  N   N27       1.0  0.09593  0.95014  0.18069  1.0000
  N   N28       1.0  0.40412  0.45015  0.31932  1.0000
  O   O1        1.0  0.87119  0.00953  0.76927  1.0000
  O   O2        1.0  0.62881  0.50953  0.73073  1.0000
  O   O3        1.0  0.12883  0.99046  0.23073  1.0000
  O   O4        1.0  0.37121  0.49046  0.26927  1.0000
  O   O5        1.0  0.77249  0.00744  0.86206  1.0000
  O   O6        1.0  0.72752  0.50744  0.63795  1.0000
  O   O7        1.0  0.22755  0.99255  0.13795  1.0000
  O   O8        1.0  0.27253  0.49258  0.36205  1.0000
  O   O9        1.0  0.07075  0.13345  0.82660  1.0000
  O   O10       1.0  0.42926  0.63345  0.67340  1.0000
  O   O11       1.0  0.92925  0.86655  0.17340  1.0000
  O   O12       1.0  0.57076  0.36656  0.32660  1.0000
