data_image0
_chemical_formula_structural       Cu2H36C40N12Cl4O8
_chemical_formula_sum              "Cu2 H36 C40 N12 Cl4 O8"
_cell_length_a       7.51416
_cell_length_b       7.60566
_cell_length_c       19.7619
_cell_angle_alpha    84.094
_cell_angle_beta     80.0297
_cell_angle_gamma    70.6748

_space_group_name_H-M_alt    "P 1"
_space_group_IT_number       1

loop_
  _space_group_symop_operation_xyz
  'x, y, z'

loop_
  _atom_site_type_symbol
  _atom_site_label
  _atom_site_symmetry_multiplicity
  _atom_site_fract_x
  _atom_site_fract_y
  _atom_site_fract_z
  _atom_site_occupancy
  Cu  Cu1       1.0  1.00000  0.50000  0.00000  1.0000
  Cu  Cu2       1.0  1.00000  0.00000  0.00000  1.0000
  H   H1        1.0  0.25685  0.29464  0.48207  1.0000
  H   H2        1.0  0.74315  0.70537  0.51793  1.0000
  H   H3        1.0  0.20102  0.12672  0.39114  1.0000
  H   H4        1.0  0.79898  0.87328  0.60886  1.0000
  H   H5        1.0  0.06016  0.63879  0.26549  1.0000
  H   H6        1.0  0.93984  0.36121  0.73451  1.0000
  H   H7        1.0  0.12087  0.80376  0.35543  1.0000
  H   H8        1.0  0.87913  0.19624  0.64457  1.0000
  H   H9        1.0  0.17003  0.12018  0.27051  1.0000
  H   H10       1.0  0.82998  0.87982  0.72949  1.0000
  H   H11       1.0  0.93412  0.27624  0.27818  1.0000
  H   H12       1.0  0.06588  0.72375  0.72182  1.0000
  H   H13       1.0  0.86004  0.38011  0.15799  1.0000
  H   H14       1.0  0.13996  0.61989  0.84201  1.0000
  H   H15       1.0  0.38871  0.43610  0.06721  1.0000
  H   H16       1.0  0.61129  0.56390  0.93279  1.0000
  H   H17       1.0  0.65673  0.72598  0.39914  1.0000
  H   H18       1.0  0.34327  0.27402  0.60086  1.0000
  H   H19       1.0  0.57089  0.56504  0.31295  1.0000
  H   H20       1.0  0.42911  0.43496  0.68705  1.0000
  H   H21       1.0  0.53270  0.04148  0.17096  1.0000
  H   H22       1.0  0.46730  0.95852  0.82904  1.0000
  H   H23       1.0  0.60651  0.20658  0.25875  1.0000
  H   H24       1.0  0.39349  0.79342  0.74125  1.0000
  H   H25       1.0  0.61726  0.66111  0.13887  1.0000
  H   H26       1.0  0.38274  0.33889  0.86113  1.0000
  H   H27       1.0  0.47627  0.56300  0.20411  1.0000
  H   H28       1.0  0.52373  0.43700  0.79589  1.0000
  H   H29       1.0  0.42663  0.81469  0.04398  1.0000
  H   H30       1.0  0.57337  0.18531  0.95602  1.0000
  H   H31       1.0  0.88530  0.00048  0.16424  1.0000
  H   H32       1.0  0.11470  0.99952  0.83576  1.0000
  H   H33       1.0  0.28433  0.64993  0.57073  1.0000
  H   H34       1.0  0.71567  0.35007  0.42927  1.0000
  H   H35       1.0  0.74241  0.06605  0.47891  1.0000
  H   H36       1.0  0.25759  0.93395  0.52109  1.0000
  C   C1        1.0  0.22686  0.66402  0.47761  1.0000
  C   C2        1.0  0.77314  0.33598  0.52239  1.0000
  C   C3        1.0  0.19273  0.56046  0.42460  1.0000
  C   C4        1.0  0.80727  0.43954  0.57540  1.0000
  C   C5        1.0  0.21446  0.36944  0.43445  1.0000
  C   C6        1.0  0.78554  0.63057  0.56555  1.0000
  C   C7        1.0  0.18233  0.27557  0.38327  1.0000
  C   C8        1.0  0.81767  0.72443  0.61673  1.0000
  C   C9        1.0  0.12625  0.37134  0.32201  1.0000
  C   C10       1.0  0.87375  0.62866  0.67799  1.0000
  C   C11       1.0  0.10264  0.56200  0.31275  1.0000
  C   C12       1.0  0.89736  0.43800  0.68725  1.0000
  C   C13       1.0  0.13688  0.65582  0.36327  1.0000
  C   C14       1.0  0.86312  0.34419  0.63673  1.0000
  C   C15       1.0  0.08516  0.26880  0.26839  1.0000
  C   C16       1.0  0.91484  0.73120  0.73161  1.0000
  C   C17       1.0  0.00433  0.38583  0.15014  1.0000
  C   C18       1.0  0.99567  0.61417  0.84986  1.0000
  C   C19       1.0  0.27501  0.41158  0.10491  1.0000
  C   C20       1.0  0.72499  0.58843  0.89509  1.0000
  C   C21       1.0  0.68546  0.07687  0.38529  1.0000
  C   C22       1.0  0.31454  0.92312  0.61471  1.0000
  C   C23       1.0  0.64003  0.97571  0.33411  1.0000
  C   C24       1.0  0.35997  0.02429  0.66589  1.0000
  C   C25       1.0  0.62927  0.79498  0.34925  1.0000
  C   C26       1.0  0.37073  0.20502  0.65075  1.0000
  C   C27       1.0  0.58223  0.70445  0.30046  1.0000
  C   C28       1.0  0.41777  0.29555  0.69954  1.0000
  C   C29       1.0  0.54747  0.79210  0.23604  1.0000
  C   C30       1.0  0.45252  0.20790  0.76396  1.0000
  C   C31       1.0  0.55906  0.97255  0.22100  1.0000
  C   C32       1.0  0.44093  0.02746  0.77900  1.0000
  C   C33       1.0  0.60327  0.06425  0.26976  1.0000
  C   C34       1.0  0.39673  0.93576  0.73024  1.0000
  C   C35       1.0  0.50090  0.69354  0.18260  1.0000
  C   C36       1.0  0.49910  0.30646  0.81740  1.0000
  C   C37       1.0  0.31053  0.84596  0.08655  1.0000
  C   C38       1.0  0.68947  0.15404  0.91345  1.0000
  C   C39       1.0  0.03796  0.94145  0.14958  1.0000
  C   C40       1.0  0.96204  0.05855  0.85042  1.0000
  N   N1        1.0  0.12053  0.34312  0.19810  1.0000
  N   N2        1.0  0.87947  0.65688  0.80190  1.0000
  N   N3        1.0  0.29434  0.35883  0.17007  1.0000
  N   N4        1.0  0.70566  0.64117  0.82993  1.0000
  N   N5        1.0  0.09792  0.43019  0.09037  1.0000
  N   N6        1.0  0.90208  0.56981  0.90963  1.0000
  N   N7        1.0  0.15874  0.86752  0.19427  1.0000
  N   N8        1.0  0.84126  0.13247  0.80573  1.0000
  N   N9        1.0  0.33119  0.80641  0.15319  1.0000
  N   N10       1.0  0.66881  0.19359  0.84681  1.0000
  N   N11       1.0  0.12524  0.93117  0.08295  1.0000
  N   N12       1.0  0.87475  0.06884  0.91705  1.0000
  Cl  Cl1       1.0  0.76890  0.86696  0.04966  1.0000
  Cl  Cl2       1.0  0.23110  0.13305  0.95034  1.0000
  Cl  Cl3       1.0  0.75129  0.37935  0.04377  1.0000
  Cl  Cl4       1.0  0.24871  0.62065  0.95623  1.0000
  O   O1        1.0  0.27435  0.56553  0.53469  1.0000
  O   O2        1.0  0.72565  0.43447  0.46531  1.0000
  O   O3        1.0  0.21085  0.83364  0.46845  1.0000
  O   O4        1.0  0.78915  0.16635  0.53155  1.0000
  O   O5        1.0  0.70831  0.98792  0.44560  1.0000
  O   O6        1.0  0.29169  0.01208  0.55440  1.0000
  O   O7        1.0  0.70048  0.23665  0.37143  1.0000
  O   O8        1.0  0.29952  0.76335  0.62857  1.0000
