data_image0
_chemical_formula_structural       Cu2H36C40N12O10
_chemical_formula_sum              "Cu2 H36 C40 N12 O10"
_cell_length_a       9.28503
_cell_length_b       9.40252
_cell_length_c       12.4352
_cell_angle_alpha    102.897
_cell_angle_beta     111.919
_cell_angle_gamma    90.0019

_space_group_name_H-M_alt    "P 1"
_space_group_IT_number       1

loop_
  _space_group_symop_operation_xyz
  'x, y, z'

loop_
  _atom_site_type_symbol
  _atom_site_label
  _atom_site_symmetry_multiplicity
  _atom_site_fract_x
  _atom_site_fract_y
  _atom_site_fract_z
  _atom_site_occupancy
  Cu  Cu1       1.0  0.00000  0.00000  1.00000  1.0000
  Cu  Cu2       1.0  1.00000  0.50000  1.00000  1.0000
  H   H1        1.0  0.10315  0.24512  0.92750  1.0000
  H   H2        1.0  0.17564  0.25488  0.07245  1.0000
  H   H3        1.0  0.89685  0.75488  0.07249  1.0000
  H   H4        1.0  0.82436  0.74512  0.92755  1.0000
  H   H5        1.0  0.96109  0.30398  0.16725  1.0000
  H   H6        1.0  0.79388  0.19615  0.83260  1.0000
  H   H7        1.0  0.03891  0.69602  0.83276  1.0000
  H   H8        1.0  0.20612  0.80385  0.16739  1.0000
  H   H9        1.0  0.65602  0.91719  0.99834  1.0000
  H   H10       1.0  0.65751  0.58270  0.00161  1.0000
  H   H11       1.0  0.34397  0.08281  0.00166  1.0000
  H   H12       1.0  0.34248  0.41730  0.99839  1.0000
  H   H13       1.0  0.58993  0.34802  0.23275  1.0000
  H   H14       1.0  0.35720  0.15190  0.76718  1.0000
  H   H15       1.0  0.41007  0.65198  0.76725  1.0000
  H   H16       1.0  0.64280  0.84809  0.23282  1.0000
  H   H17       1.0  0.75015  0.45668  0.23895  1.0000
  H   H18       1.0  0.51122  0.04325  0.76090  1.0000
  H   H19       1.0  0.24986  0.54332  0.76105  1.0000
  H   H20       1.0  0.48878  0.95675  0.23910  1.0000
  H   H21       1.0  0.68290  0.53587  0.44059  1.0000
  H   H22       1.0  0.24224  0.96420  0.55932  1.0000
  H   H23       1.0  0.31711  0.46413  0.55941  1.0000
  H   H24       1.0  0.75776  0.03580  0.44068  1.0000
  H   H25       1.0  0.94153  0.17386  0.36139  1.0000
  H   H26       1.0  0.58012  0.32617  0.63859  1.0000
  H   H27       1.0  0.05847  0.82614  0.63861  1.0000
  H   H28       1.0  0.41988  0.67383  0.36141  1.0000
  H   H29       1.0  0.80641  0.54185  0.65600  1.0000
  H   H30       1.0  0.15039  0.95828  0.34389  1.0000
  H   H31       1.0  0.19359  0.45815  0.34400  1.0000
  H   H32       1.0  0.84961  0.04172  0.65610  1.0000
  H   H33       1.0  0.06533  0.18174  0.57702  1.0000
  H   H34       1.0  0.48836  0.31836  0.42296  1.0000
  H   H35       1.0  0.93467  0.81826  0.42298  1.0000
  H   H36       1.0  0.51164  0.68164  0.57704  1.0000
  C   C1        1.0  0.86744  0.21817  0.14055  1.0000
  C   C2        1.0  0.72685  0.28191  0.85925  1.0000
  C   C3        1.0  0.13256  0.78183  0.85945  1.0000
  C   C4        1.0  0.27315  0.71809  0.14075  1.0000
  C   C5        1.0  0.70933  0.02365  0.05599  1.0000
  C   C6        1.0  0.65319  0.47624  0.94396  1.0000
  C   C7        1.0  0.29067  0.97635  0.94401  1.0000
  C   C8        1.0  0.34680  0.52376  0.05604  1.0000
  C   C9        1.0  0.71645  0.35423  0.25579  1.0000
  C   C10       1.0  0.46064  0.14567  0.74408  1.0000
  C   C11       1.0  0.28355  0.64577  0.74422  1.0000
  C   C12       1.0  0.53935  0.85432  0.25592  1.0000
  C   C13       1.0  0.80092  0.35293  0.38574  1.0000
  C   C14       1.0  0.41512  0.14710  0.61415  1.0000
  C   C15       1.0  0.19908  0.64707  0.61427  1.0000
  C   C16       1.0  0.58488  0.85290  0.38585  1.0000
  C   C17       1.0  0.76611  0.45721  0.47020  1.0000
  C   C18       1.0  0.29588  0.04281  0.52967  1.0000
  C   C19       1.0  0.23389  0.54279  0.52980  1.0000
  C   C20       1.0  0.70412  0.95719  0.47033  1.0000
  C   C21       1.0  0.91040  0.25479  0.42498  1.0000
  C   C22       1.0  0.48534  0.24531  0.57497  1.0000
  C   C23       1.0  0.08960  0.74520  0.57502  1.0000
  C   C24       1.0  0.51466  0.75469  0.42503  1.0000
  C   C25       1.0  0.83625  0.46174  0.59118  1.0000
  C   C26       1.0  0.24510  0.03834  0.40871  1.0000
  C   C27       1.0  0.16375  0.53826  0.40882  1.0000
  C   C28       1.0  0.75490  0.96166  0.59129  1.0000
  C   C29       1.0  0.98099  0.25899  0.54645  1.0000
  C   C30       1.0  0.43455  0.24113  0.45351  1.0000
  C   C31       1.0  0.01901  0.74101  0.45355  1.0000
  C   C32       1.0  0.56545  0.75887  0.54649  1.0000
  C   C33       1.0  0.94381  0.36122  0.63047  1.0000
  C   C34       1.0  0.31345  0.13885  0.36945  1.0000
  C   C35       1.0  0.05619  0.63878  0.36953  1.0000
  C   C36       1.0  0.68655  0.86115  0.63055  1.0000
  C   C37       1.0  0.01530  0.36131  0.76075  1.0000
  C   C38       1.0  0.25456  0.13881  0.23917  1.0000
  C   C39       1.0  0.98470  0.63869  0.23925  1.0000
  C   C40       1.0  0.74544  0.86119  0.76083  1.0000
  N   N1        1.0  0.84820  0.08604  0.06662  1.0000
  N   N2        1.0  0.78148  0.41401  0.93326  1.0000
  N   N3        1.0  0.15180  0.91396  0.93337  1.0000
  N   N4        1.0  0.21852  0.58599  0.06674  1.0000
  N   N5        1.0  0.74413  0.23298  0.17255  1.0000
  N   N6        1.0  0.57155  0.26696  0.82730  1.0000
  N   N7        1.0  0.25587  0.76703  0.82745  1.0000
  N   N8        1.0  0.42845  0.73304  0.17270  1.0000
  N   N9        1.0  0.64221  0.10984  0.12003  1.0000
  N   N10       1.0  0.52210  0.39000  0.87991  1.0000
  N   N11       1.0  0.35780  0.89016  0.87998  1.0000
  N   N12       1.0  0.47790  0.61000  0.12009  1.0000
  O   O1        1.0  0.07838  0.25004  0.99998  1.0000
  O   O2        1.0  0.92162  0.74996  0.00002  1.0000
  O   O3        1.0  0.15789  0.02752  0.16933  1.0000
  O   O4        1.0  0.98859  0.47264  0.83064  1.0000
  O   O5        1.0  0.84211  0.97248  0.83067  1.0000
  O   O6        1.0  0.01141  0.52736  0.16936  1.0000
  O   O7        1.0  0.09205  0.25662  0.79230  1.0000
  O   O8        1.0  0.29970  0.24352  0.20757  1.0000
  O   O9        1.0  0.90795  0.74338  0.20770  1.0000
  O   O10       1.0  0.70030  0.75648  0.79243  1.0000
