data_image0
_chemical_formula_structural       Cd8H32C52N8O36
_chemical_formula_sum              "Cd8 H32 C52 N8 O36"
_cell_length_a       8.93764
_cell_length_b       10.7183
_cell_length_c       15.8587
_cell_angle_alpha    90
_cell_angle_beta     90
_cell_angle_gamma    97.9217

_space_group_name_H-M_alt    "P 1"
_space_group_IT_number       1

loop_
  _space_group_symop_operation_xyz
  'x, y, z'

loop_
  _atom_site_type_symbol
  _atom_site_label
  _atom_site_symmetry_multiplicity
  _atom_site_fract_x
  _atom_site_fract_y
  _atom_site_fract_z
  _atom_site_occupancy
  Cd  Cd1       1.0  0.02555  0.25716  0.89318  1.0000
  Cd  Cd2       1.0  0.47445  0.24284  0.39318  1.0000
  Cd  Cd3       1.0  0.97445  0.74284  0.10682  1.0000
  Cd  Cd4       1.0  0.52555  0.75716  0.60682  1.0000
  Cd  Cd5       1.0  0.27020  0.49481  0.03150  1.0000
  Cd  Cd6       1.0  0.22980  0.00519  0.53150  1.0000
  Cd  Cd7       1.0  0.72980  0.50519  0.96850  1.0000
  Cd  Cd8       1.0  0.77020  0.99481  0.46850  1.0000
  H   H1        1.0  0.00155  0.19490  0.66597  1.0000
  H   H2        1.0  0.49846  0.30510  0.16597  1.0000
  H   H3        1.0  0.99845  0.80510  0.33403  1.0000
  H   H4        1.0  0.50154  0.69490  0.83403  1.0000
  H   H5        1.0  0.12892  0.17627  0.10769  1.0000
  H   H6        1.0  0.37108  0.32373  0.60769  1.0000
  H   H7        1.0  0.87108  0.82373  0.89231  1.0000
  H   H8        1.0  0.62892  0.67627  0.39231  1.0000
  H   H9        1.0  0.88183  0.29755  0.37010  1.0000
  H   H10       1.0  0.61816  0.20245  0.87010  1.0000
  H   H11       1.0  0.11817  0.70245  0.62990  1.0000
  H   H12       1.0  0.38183  0.79755  0.12990  1.0000
  H   H13       1.0  0.20489  0.09581  0.24691  1.0000
  H   H14       1.0  0.29511  0.40419  0.74691  1.0000
  H   H15       1.0  0.79511  0.90419  0.75309  1.0000
  H   H16       1.0  0.70489  0.59581  0.25309  1.0000
  H   H17       1.0  0.80191  0.37307  0.23080  1.0000
  H   H18       1.0  0.69810  0.12693  0.73080  1.0000
  H   H19       1.0  0.19810  0.62693  0.76920  1.0000
  H   H20       1.0  0.30190  0.87307  0.26920  1.0000
  H   H21       1.0  0.74872  0.14265  0.98079  1.0000
  H   H22       1.0  0.75128  0.35735  0.48079  1.0000
  H   H23       1.0  0.25128  0.85735  0.01922  1.0000
  H   H24       1.0  0.24872  0.64265  0.51921  1.0000
  H   H25       1.0  0.37520  0.92895  0.84918  1.0000
  H   H26       1.0  0.12480  0.57105  0.34918  1.0000
  H   H27       1.0  0.62480  0.07105  0.15082  1.0000
  H   H28       1.0  0.87520  0.42895  0.65082  1.0000
  H   H29       1.0  0.83564  0.03278  0.96175  1.0000
  H   H30       1.0  0.66436  0.46722  0.46175  1.0000
  H   H31       1.0  0.16436  0.96722  0.03825  1.0000
  H   H32       1.0  0.33564  0.53278  0.53825  1.0000
  C   C1        1.0  0.19344  0.06432  0.80417  1.0000
  C   C2        1.0  0.30656  0.43568  0.30417  1.0000
  C   C3        1.0  0.80655  0.93568  0.19584  1.0000
  C   C4        1.0  0.69344  0.56432  0.69584  1.0000
  C   C5        1.0  0.07660  0.14162  0.70035  1.0000
  C   C6        1.0  0.42340  0.35838  0.20035  1.0000
  C   C7        1.0  0.92340  0.85838  0.29965  1.0000
  C   C8        1.0  0.57660  0.64162  0.79965  1.0000
  C   C9        1.0  0.23003  0.03879  0.89197  1.0000
  C   C10       1.0  0.26997  0.46120  0.39197  1.0000
  C   C11       1.0  0.76997  0.96120  0.10803  1.0000
  C   C12       1.0  0.73003  0.53880  0.60803  1.0000
  C   C13       1.0  0.92459  0.33133  0.07717  1.0000
  C   C14       1.0  0.57541  0.16868  0.57717  1.0000
  C   C15       1.0  0.07541  0.66867  0.92283  1.0000
  C   C16       1.0  0.42459  0.83133  0.42283  1.0000
  C   C17       1.0  0.07398  0.20048  0.16559  1.0000
  C   C18       1.0  0.42603  0.29952  0.66559  1.0000
  C   C19       1.0  0.92603  0.79952  0.83441  1.0000
  C   C20       1.0  0.57397  0.70048  0.33441  1.0000
  C   C21       1.0  0.96113  0.27928  0.16103  1.0000
  C   C22       1.0  0.53887  0.22072  0.66103  1.0000
  C   C23       1.0  0.03887  0.72072  0.83897  1.0000
  C   C24       1.0  0.46113  0.77928  0.33897  1.0000
  C   C25       1.0  0.24411  0.01898  0.72819  1.0000
  C   C26       1.0  0.25589  0.48102  0.22819  1.0000
  C   C27       1.0  0.75589  0.98102  0.27181  1.0000
  C   C28       1.0  0.74411  0.51898  0.77181  1.0000
  C   C29       1.0  0.04839  0.19219  0.31724  1.0000
  C   C30       1.0  0.45161  0.30781  0.81724  1.0000
  C   C31       1.0  0.95161  0.80781  0.68276  1.0000
  C   C32       1.0  0.54839  0.69219  0.18276  1.0000
  C   C33       1.0  0.93416  0.26949  0.31257  1.0000
  C   C34       1.0  0.56584  0.23051  0.81257  1.0000
  C   C35       1.0  0.06584  0.73051  0.68743  1.0000
  C   C36       1.0  0.43416  0.76949  0.18743  1.0000
  C   C37       1.0  0.11702  0.15662  0.24307  1.0000
  C   C38       1.0  0.38298  0.34338  0.74306  1.0000
  C   C39       1.0  0.88299  0.84338  0.75693  1.0000
  C   C40       1.0  0.61702  0.65662  0.25693  1.0000
  C   C41       1.0  0.88963  0.31207  0.23484  1.0000
  C   C42       1.0  0.61037  0.18793  0.73484  1.0000
  C   C43       1.0  0.11037  0.68793  0.76516  1.0000
  C   C44       1.0  0.38963  0.81208  0.26516  1.0000
  C   C45       1.0  0.35543  0.93353  0.71198  1.0000
  C   C46       1.0  0.14458  0.56647  0.21197  1.0000
  C   C47       1.0  0.64458  0.06647  0.28803  1.0000
  C   C48       1.0  0.85542  0.43353  0.78802  1.0000
  C   C49       1.0  0.09539  0.14491  0.40026  1.0000
  C   C50       1.0  0.40461  0.35509  0.90026  1.0000
  C   C51       1.0  0.90461  0.85508  0.59974  1.0000
  C   C52       1.0  0.59539  0.64492  0.09974  1.0000
  N   N1        1.0  0.08805  0.14179  0.78513  1.0000
  N   N2        1.0  0.41195  0.35821  0.28513  1.0000
  N   N3        1.0  0.91195  0.85821  0.21487  1.0000
  N   N4        1.0  0.58805  0.64179  0.71487  1.0000
  N   N5        1.0  0.16872  0.06820  0.66364  1.0000
  N   N6        1.0  0.33128  0.43180  0.16364  1.0000
  N   N7        1.0  0.83128  0.93180  0.33637  1.0000
  N   N8        1.0  0.66872  0.56820  0.83637  1.0000
  O   O1        1.0  0.03437  0.34756  0.02362  1.0000
  O   O2        1.0  0.46563  0.15244  0.52362  1.0000
  O   O3        1.0  0.96563  0.65244  0.97638  1.0000
  O   O4        1.0  0.53437  0.84756  0.47638  1.0000
  O   O5        1.0  0.32974  0.96240  0.90714  1.0000
  O   O6        1.0  0.17025  0.53760  0.40714  1.0000
  O   O7        1.0  0.67026  0.03760  0.09286  1.0000
  O   O8        1.0  0.82975  0.46240  0.59286  1.0000
  O   O9        1.0  0.16503  0.08685  0.95174  1.0000
  O   O10       1.0  0.33497  0.41315  0.45174  1.0000
  O   O11       1.0  0.83497  0.91315  0.04826  1.0000
  O   O12       1.0  0.66503  0.58686  0.54826  1.0000
  O   O13       1.0  0.79212  0.35479  0.06315  1.0000
  O   O14       1.0  0.70788  0.14521  0.56315  1.0000
  O   O15       1.0  0.20788  0.64521  0.93685  1.0000
  O   O16       1.0  0.29212  0.85479  0.43685  1.0000
  O   O17       1.0  0.42602  0.89011  0.77246  1.0000
  O   O18       1.0  0.07398  0.60989  0.27246  1.0000
  O   O19       1.0  0.57398  0.10989  0.22754  1.0000
  O   O20       1.0  0.92602  0.39011  0.72754  1.0000
  O   O21       1.0  0.37678  0.90585  0.63443  1.0000
  O   O22       1.0  0.12322  0.59415  0.13443  1.0000
  O   O23       1.0  0.62322  0.09415  0.36557  1.0000
  O   O24       1.0  0.87678  0.40585  0.86557  1.0000
  O   O25       1.0  0.23004  0.11444  0.40568  1.0000
  O   O26       1.0  0.26995  0.38556  0.90567  1.0000
  O   O27       1.0  0.76996  0.88556  0.59432  1.0000
  O   O28       1.0  0.73005  0.61444  0.09432  1.0000
  O   O29       1.0  0.00539  0.13225  0.46231  1.0000
  O   O30       1.0  0.49460  0.36775  0.96231  1.0000
  O   O31       1.0  0.99461  0.86775  0.53769  1.0000
  O   O32       1.0  0.50540  0.63225  0.03769  1.0000
  O   O33       1.0  0.81356  0.11330  0.93738  1.0000
  O   O34       1.0  0.68644  0.38670  0.43738  1.0000
  O   O35       1.0  0.18644  0.88670  0.06262  1.0000
  O   O36       1.0  0.31356  0.61330  0.56262  1.0000
