data_image0
_chemical_formula_structural       Cu2H16C16N12O8
_chemical_formula_sum              "Cu2 H16 C16 N12 O8"
_cell_length_a       4.80396
_cell_length_b       9.94755
_cell_length_c       11.5113
_cell_angle_alpha    90
_cell_angle_beta     90.0001
_cell_angle_gamma    100.552

_space_group_name_H-M_alt    "P 1"
_space_group_IT_number       1

loop_
  _space_group_symop_operation_xyz
  'x, y, z'

loop_
  _atom_site_type_symbol
  _atom_site_label
  _atom_site_symmetry_multiplicity
  _atom_site_fract_x
  _atom_site_fract_y
  _atom_site_fract_z
  _atom_site_occupancy
  Cu  Cu1       1.0  1.00000  0.50000  0.00000  1.0000
  Cu  Cu2       1.0  0.50000  0.00000  0.50000  1.0000
  H   H1        1.0  0.11100  0.77079  0.15962  1.0000
  H   H2        1.0  0.38900  0.72921  0.65962  1.0000
  H   H3        1.0  0.88899  0.22921  0.84038  1.0000
  H   H4        1.0  0.61100  0.27079  0.34038  1.0000
  H   H5        1.0  0.49588  0.65472  0.89750  1.0000
  H   H6        1.0  0.00411  0.84528  0.39750  1.0000
  H   H7        1.0  0.50411  0.34528  0.10250  1.0000
  H   H8        1.0  0.99589  0.15472  0.60250  1.0000
  H   H9        1.0  0.72455  0.06487  0.10440  1.0000
  H   H10       1.0  0.77545  0.43513  0.60440  1.0000
  H   H11       1.0  0.27545  0.93513  0.89560  1.0000
  H   H12       1.0  0.22455  0.56487  0.39560  1.0000
  H   H13       1.0  0.02309  0.02225  0.18075  1.0000
  H   H14       1.0  0.47690  0.47775  0.68075  1.0000
  H   H15       1.0  0.97691  0.97775  0.81924  1.0000
  H   H16       1.0  0.52310  0.52225  0.31925  1.0000
  C   C1        1.0  0.93331  0.76511  0.10014  1.0000
  C   C2        1.0  0.56668  0.73489  0.60014  1.0000
  C   C3        1.0  0.06668  0.23489  0.89986  1.0000
  C   C4        1.0  0.43331  0.26511  0.39986  1.0000
  C   C5        1.0  0.62316  0.71081  0.96589  1.0000
  C   C6        1.0  0.87684  0.78920  0.46589  1.0000
  C   C7        1.0  0.37684  0.28919  0.03411  1.0000
  C   C8        1.0  0.12315  0.21081  0.53411  1.0000
  C   C9        1.0  0.80044  0.98732  0.15788  1.0000
  C   C10       1.0  0.69956  0.51268  0.65788  1.0000
  C   C11       1.0  0.19956  0.01268  0.84212  1.0000
  C   C12       1.0  0.30044  0.48732  0.34212  1.0000
  C   C13       1.0  0.61922  0.96479  0.26887  1.0000
  C   C14       1.0  0.88078  0.53521  0.76887  1.0000
  C   C15       1.0  0.38078  0.03521  0.73113  1.0000
  C   C16       1.0  0.11923  0.46479  0.23113  1.0000
  N   N1        1.0  0.83960  0.66645  0.02294  1.0000
  N   N2        1.0  0.66039  0.83355  0.52294  1.0000
  N   N3        1.0  0.16039  0.33354  0.97706  1.0000
  N   N4        1.0  0.33960  0.16646  0.47706  1.0000
  N   N5        1.0  0.57942  0.83082  0.00398  1.0000
  N   N6        1.0  0.92058  0.66917  0.50398  1.0000
  N   N7        1.0  0.42058  0.16917  0.99602  1.0000
  N   N8        1.0  0.07942  0.33083  0.49602  1.0000
  N   N9        1.0  0.77899  0.86386  0.08869  1.0000
  N   N10       1.0  0.72102  0.63614  0.58869  1.0000
  N   N11       1.0  0.22101  0.13614  0.91131  1.0000
  N   N12       1.0  0.27899  0.36386  0.41131  1.0000
  O   O1        1.0  0.39170  0.88102  0.27086  1.0000
  O   O2        1.0  0.10831  0.61897  0.77086  1.0000
  O   O3        1.0  0.60830  0.11898  0.72914  1.0000
  O   O4        1.0  0.89169  0.38103  0.22915  1.0000
  O   O5        1.0  0.72676  0.04077  0.35433  1.0000
  O   O6        1.0  0.77324  0.45923  0.85433  1.0000
  O   O7        1.0  0.27325  0.95923  0.64566  1.0000
  O   O8        1.0  0.22676  0.54077  0.14567  1.0000
