data_image0
_chemical_formula_structural       Cd4H40C28S4N8Cl8O8
_chemical_formula_sum              "Cd4 H40 C28 S4 N8 Cl8 O8"
_cell_length_a       7.19348
_cell_length_b       9.25087
_cell_length_c       17.248
_cell_angle_alpha    89.9999
_cell_angle_beta     95.8952
_cell_angle_gamma    89.9998

_space_group_name_H-M_alt    "P 1"
_space_group_IT_number       1

loop_
  _space_group_symop_operation_xyz
  'x, y, z'

loop_
  _atom_site_type_symbol
  _atom_site_label
  _atom_site_symmetry_multiplicity
  _atom_site_fract_x
  _atom_site_fract_y
  _atom_site_fract_z
  _atom_site_occupancy
  Cd  Cd1       1.0  0.90088  0.67204  0.28107  1.0000
  Cd  Cd2       1.0  0.59912  0.17204  0.71893  1.0000
  Cd  Cd3       1.0  0.09912  0.32796  0.71893  1.0000
  Cd  Cd4       1.0  0.40088  0.82796  0.28107  1.0000
  H   H1        1.0  0.76969  0.60260  0.43643  1.0000
  H   H2        1.0  0.73031  0.10260  0.56357  1.0000
  H   H3        1.0  0.23031  0.39740  0.56357  1.0000
  H   H4        1.0  0.26969  0.89740  0.43643  1.0000
  H   H5        1.0  0.78657  0.46399  0.50680  1.0000
  H   H6        1.0  0.71343  0.96399  0.49320  1.0000
  H   H7        1.0  0.21343  0.53601  0.49320  1.0000
  H   H8        1.0  0.28657  0.03601  0.50679  1.0000
  H   H9        1.0  0.93101  0.07943  0.30040  1.0000
  H   H10       1.0  0.56899  0.57943  0.69960  1.0000
  H   H11       1.0  0.06899  0.92057  0.69960  1.0000
  H   H12       1.0  0.43101  0.42056  0.30039  1.0000
  H   H13       1.0  0.75505  0.35726  0.16770  1.0000
  H   H14       1.0  0.74495  0.85726  0.83230  1.0000
  H   H15       1.0  0.24496  0.64273  0.83230  1.0000
  H   H16       1.0  0.25504  0.14273  0.16769  1.0000
  H   H17       1.0  0.91357  0.21072  0.17129  1.0000
  H   H18       1.0  0.58643  0.71073  0.82871  1.0000
  H   H19       1.0  0.08644  0.78927  0.82871  1.0000
  H   H20       1.0  0.41357  0.28927  0.17128  1.0000
  H   H21       1.0  0.36044  0.45614  0.95411  1.0000
  H   H22       1.0  0.13956  0.95613  0.04589  1.0000
  H   H23       1.0  0.63956  0.54388  0.04589  1.0000
  H   H24       1.0  0.86044  0.04388  0.95411  1.0000
  H   H25       1.0  0.15930  0.34530  0.94745  1.0000
  H   H26       1.0  0.34070  0.84530  0.05255  1.0000
  H   H27       1.0  0.84070  0.65471  0.05255  1.0000
  H   H28       1.0  0.65930  0.15471  0.94745  1.0000
  H   H29       1.0  0.36432  0.29244  0.00732  1.0000
  H   H30       1.0  0.13567  0.79243  0.99268  1.0000
  H   H31       1.0  0.63568  0.70759  0.99268  1.0000
  H   H32       1.0  0.86432  0.20758  0.00732  1.0000
  H   H33       1.0  0.32786  0.49957  0.09872  1.0000
  H   H34       1.0  0.17214  0.99957  0.90129  1.0000
  H   H35       1.0  0.67213  0.50044  0.90129  1.0000
  H   H36       1.0  0.82787  0.00043  0.09871  1.0000
  H   H37       1.0  0.13329  0.56452  0.03786  1.0000
  H   H38       1.0  0.36670  0.06452  0.96215  1.0000
  H   H39       1.0  0.86670  0.43549  0.96215  1.0000
  H   H40       1.0  0.63331  0.93548  0.03785  1.0000
  C   C1        1.0  0.89552  0.31403  0.28033  1.0000
  C   C2        1.0  0.60448  0.81403  0.71967  1.0000
  C   C3        1.0  0.10447  0.68597  0.71967  1.0000
  C   C4        1.0  0.39552  0.18596  0.28033  1.0000
  C   C5        1.0  0.84239  0.40275  0.39728  1.0000
  C   C6        1.0  0.65760  0.90276  0.60272  1.0000
  C   C7        1.0  0.15761  0.59725  0.60272  1.0000
  C   C8        1.0  0.34240  0.09724  0.39728  1.0000
  C   C9        1.0  0.90743  0.18792  0.32140  1.0000
  C   C10       1.0  0.59257  0.68792  0.67860  1.0000
  C   C11       1.0  0.09257  0.81208  0.67860  1.0000
  C   C12       1.0  0.40743  0.31207  0.32139  1.0000
  C   C13       1.0  0.89385  0.31987  0.19353  1.0000
  C   C14       1.0  0.60615  0.81988  0.80647  1.0000
  C   C15       1.0  0.10616  0.68012  0.80647  1.0000
  C   C16       1.0  0.39384  0.18011  0.19352  1.0000
  C   C17       1.0  0.27653  0.38494  0.98761  1.0000
  C   C18       1.0  0.22347  0.88494  0.01239  1.0000
  C   C19       1.0  0.72347  0.61507  0.01239  1.0000
  C   C20       1.0  0.77653  0.11507  0.98761  1.0000
  C   C21       1.0  0.21238  0.46656  0.05571  1.0000
  C   C22       1.0  0.28762  0.96657  0.94430  1.0000
  C   C23       1.0  0.78762  0.53344  0.94430  1.0000
  C   C24       1.0  0.71239  0.03344  0.05570  1.0000
  C   C25       1.0  0.03027  0.42095  0.16115  1.0000
  C   C26       1.0  0.46973  0.92096  0.83885  1.0000
  C   C27       1.0  0.96973  0.57903  0.83885  1.0000
  C   C28       1.0  0.53027  0.07903  0.16115  1.0000
  S   S1        1.0  0.87322  0.21912  0.41753  1.0000
  S   S2        1.0  0.62678  0.71912  0.58248  1.0000
  S   S3        1.0  0.12678  0.78088  0.58248  1.0000
  S   S4        1.0  0.37322  0.28088  0.41752  1.0000
  N   N1        1.0  0.86282  0.43641  0.32356  1.0000
  N   N2        1.0  0.63718  0.93641  0.67645  1.0000
  N   N3        1.0  0.13718  0.56359  0.67644  1.0000
  N   N4        1.0  0.36281  0.06359  0.32355  1.0000
  N   N5        1.0  0.79808  0.49735  0.45129  1.0000
  N   N6        1.0  0.70191  0.99735  0.54871  1.0000
  N   N7        1.0  0.20191  0.50265  0.54871  1.0000
  N   N8        1.0  0.29809  0.00265  0.45129  1.0000
  Cl  Cl1       1.0  0.05852  0.87129  0.20537  1.0000
  Cl  Cl2       1.0  0.44148  0.37130  0.79463  1.0000
  Cl  Cl3       1.0  0.94148  0.12869  0.79463  1.0000
  Cl  Cl4       1.0  0.55852  0.62869  0.20537  1.0000
  Cl  Cl5       1.0  0.72824  0.82567  0.37946  1.0000
  Cl  Cl6       1.0  0.77176  0.32568  0.62054  1.0000
  Cl  Cl7       1.0  0.27176  0.17432  0.62053  1.0000
  Cl  Cl8       1.0  0.22824  0.67432  0.37946  1.0000
  O   O1        1.0  0.08010  0.53866  0.18893  1.0000
  O   O2        1.0  0.41990  0.03867  0.81107  1.0000
  O   O3        1.0  0.91992  0.46133  0.81108  1.0000
  O   O4        1.0  0.58009  0.96133  0.18892  1.0000
  O   O5        1.0  0.08772  0.37079  0.09446  1.0000
  O   O6        1.0  0.41227  0.87079  0.90555  1.0000
  O   O7        1.0  0.91228  0.62921  0.90555  1.0000
  O   O8        1.0  0.58773  0.12921  0.09445  1.0000
