data_image0
_chemical_formula_structural       Zn2H40C52N12O12
_chemical_formula_sum              "Zn2 H40 C52 N12 O12"
_cell_length_a       8.52074
_cell_length_b       10.6095
_cell_length_c       13.8155
_cell_angle_alpha    90.0001
_cell_angle_beta     89.9998
_cell_angle_gamma    106.753

_space_group_name_H-M_alt    "P 1"
_space_group_IT_number       1

loop_
  _space_group_symop_operation_xyz
  'x, y, z'

loop_
  _atom_site_type_symbol
  _atom_site_label
  _atom_site_symmetry_multiplicity
  _atom_site_fract_x
  _atom_site_fract_y
  _atom_site_fract_z
  _atom_site_occupancy
  Zn  Zn1       1.0  0.00000  0.50000  0.50000  1.0000
  Zn  Zn2       1.0  0.00000  0.00000  0.00000  1.0000
  H   H1        1.0  0.78649  0.51504  0.99318  1.0000
  H   H2        1.0  0.21351  0.98497  0.49318  1.0000
  H   H3        1.0  0.21351  0.48496  0.00682  1.0000
  H   H4        1.0  0.78649  0.01503  0.50682  1.0000
  H   H5        1.0  0.90905  0.18418  0.21935  1.0000
  H   H6        1.0  0.09094  0.31582  0.71935  1.0000
  H   H7        1.0  0.09095  0.81582  0.78065  1.0000
  H   H8        1.0  0.90905  0.68418  0.28065  1.0000
  H   H9        1.0  0.08168  0.33415  0.09645  1.0000
  H   H10       1.0  0.91832  0.16585  0.59645  1.0000
  H   H11       1.0  0.91832  0.66585  0.90355  1.0000
  H   H12       1.0  0.08168  0.83415  0.40355  1.0000
  H   H13       1.0  0.19180  0.63809  0.31555  1.0000
  H   H14       1.0  0.80821  0.86190  0.81555  1.0000
  H   H15       1.0  0.80820  0.36191  0.68445  1.0000
  H   H16       1.0  0.19179  0.13810  0.18445  1.0000
  H   H17       1.0  0.41947  0.59364  0.91586  1.0000
  H   H18       1.0  0.58053  0.90636  0.41587  1.0000
  H   H19       1.0  0.58053  0.40636  0.08414  1.0000
  H   H20       1.0  0.41947  0.09364  0.58413  1.0000
  H   H21       1.0  0.52313  0.68388  0.01690  1.0000
  H   H22       1.0  0.47687  0.81612  0.51690  1.0000
  H   H23       1.0  0.47688  0.31612  0.98310  1.0000
  H   H24       1.0  0.52313  0.18388  0.48309  1.0000
  H   H25       1.0  0.55689  0.81126  0.82961  1.0000
  H   H26       1.0  0.44311  0.68874  0.32961  1.0000
  H   H27       1.0  0.44311  0.18875  0.17039  1.0000
  H   H28       1.0  0.55689  0.31125  0.67039  1.0000
  H   H29       1.0  0.52173  0.02990  0.78227  1.0000
  H   H30       1.0  0.47827  0.47010  0.28227  1.0000
  H   H31       1.0  0.47827  0.97010  0.21773  1.0000
  H   H32       1.0  0.52173  0.52990  0.71773  1.0000
  H   H33       1.0  0.69560  0.89434  0.13778  1.0000
  H   H34       1.0  0.30440  0.60566  0.63778  1.0000
  H   H35       1.0  0.30439  0.10566  0.86222  1.0000
  H   H36       1.0  0.69560  0.39433  0.36222  1.0000
  H   H37       1.0  0.83069  0.22640  0.96352  1.0000
  H   H38       1.0  0.16931  0.27359  0.46352  1.0000
  H   H39       1.0  0.16931  0.77360  0.03648  1.0000
  H   H40       1.0  0.83069  0.72640  0.53648  1.0000
  C   C1        1.0  0.12135  0.75926  0.58721  1.0000
  C   C2        1.0  0.87865  0.74074  0.08721  1.0000
  C   C3        1.0  0.87865  0.24074  0.41279  1.0000
  C   C4        1.0  0.12135  0.25926  0.91279  1.0000
  C   C5        1.0  0.03383  0.67017  0.66870  1.0000
  C   C6        1.0  0.96617  0.82983  0.16870  1.0000
  C   C7        1.0  0.96617  0.32983  0.33130  1.0000
  C   C8        1.0  0.03383  0.17017  0.83130  1.0000
  C   C9        1.0  0.02555  0.71443  0.76286  1.0000
  C   C10       1.0  0.97445  0.78557  0.26286  1.0000
  C   C11       1.0  0.97445  0.28557  0.23714  1.0000
  C   C12       1.0  0.02555  0.21443  0.73714  1.0000
  C   C13       1.0  0.93066  0.62869  0.83114  1.0000
  C   C14       1.0  0.06934  0.87131  0.33113  1.0000
  C   C15       1.0  0.06934  0.37131  0.16887  1.0000
  C   C16       1.0  0.93066  0.12869  0.66886  1.0000
  C   C17       1.0  0.84668  0.50000  0.80362  1.0000
  C   C18       1.0  0.15332  0.00001  0.30362  1.0000
  C   C19       1.0  0.15332  0.50000  0.19638  1.0000
  C   C20       1.0  0.84668  0.99999  0.69638  1.0000
  C   C21       1.0  0.13263  0.53809  0.29139  1.0000
  C   C22       1.0  0.86738  0.96191  0.79139  1.0000
  C   C23       1.0  0.86738  0.46191  0.70861  1.0000
  C   C24       1.0  0.13262  0.03809  0.20861  1.0000
  C   C25       1.0  0.72919  0.40000  0.86586  1.0000
  C   C26       1.0  0.27081  0.10000  0.36586  1.0000
  C   C27       1.0  0.27081  0.60000  0.13414  1.0000
  C   C28       1.0  0.72919  0.90000  0.63414  1.0000
  C   C29       1.0  0.59462  0.34546  0.02226  1.0000
  C   C30       1.0  0.40539  0.15454  0.52226  1.0000
  C   C31       1.0  0.40538  0.65454  0.97774  1.0000
  C   C32       1.0  0.59461  0.84545  0.47774  1.0000
  C   C33       1.0  0.62902  0.22186  0.05896  1.0000
  C   C34       1.0  0.37098  0.27814  0.55896  1.0000
  C   C35       1.0  0.37098  0.77814  0.94104  1.0000
  C   C36       1.0  0.62902  0.72186  0.44104  1.0000
  C   C37       1.0  0.53292  0.15039  0.13369  1.0000
  C   C38       1.0  0.46708  0.34961  0.63369  1.0000
  C   C39       1.0  0.46708  0.84961  0.86631  1.0000
  C   C40       1.0  0.53292  0.65039  0.36631  1.0000
  C   C41       1.0  0.55458  0.03083  0.16222  1.0000
  C   C42       1.0  0.44542  0.46918  0.66222  1.0000
  C   C43       1.0  0.44541  0.96918  0.83778  1.0000
  C   C44       1.0  0.55458  0.53082  0.33778  1.0000
  C   C45       1.0  0.67661  0.98806  0.11779  1.0000
  C   C46       1.0  0.32339  0.51194  0.61779  1.0000
  C   C47       1.0  0.32339  0.01194  0.88221  1.0000
  C   C48       1.0  0.67661  0.48806  0.38221  1.0000
  C   C49       1.0  0.75040  0.17248  0.02021  1.0000
  C   C50       1.0  0.24961  0.32752  0.52021  1.0000
  C   C51       1.0  0.24961  0.82752  0.97979  1.0000
  C   C52       1.0  0.75039  0.67248  0.47979  1.0000
  N   N1        1.0  0.95790  0.54446  0.64365  1.0000
  N   N2        1.0  0.04210  0.95554  0.14365  1.0000
  N   N3        1.0  0.04210  0.45554  0.35635  1.0000
  N   N4        1.0  0.95790  0.04446  0.85635  1.0000
  N   N5        1.0  0.71916  0.42896  0.96030  1.0000
  N   N6        1.0  0.28085  0.07104  0.46030  1.0000
  N   N7        1.0  0.28084  0.57104  0.03970  1.0000
  N   N8        1.0  0.71915  0.92896  0.53970  1.0000
  N   N9        1.0  0.77625  0.05921  0.04965  1.0000
  N   N10       1.0  0.22375  0.44079  0.54965  1.0000
  N   N11       1.0  0.22375  0.94079  0.95035  1.0000
  N   N12       1.0  0.77625  0.55921  0.45035  1.0000
  O   O1        1.0  0.13829  0.70211  0.50750  1.0000
  O   O2        1.0  0.86171  0.79790  0.00751  1.0000
  O   O3        1.0  0.86171  0.29790  0.49250  1.0000
  O   O4        1.0  0.13829  0.20210  0.99250  1.0000
  O   O5        1.0  0.16557  0.88114  0.60219  1.0000
  O   O6        1.0  0.83444  0.61886  0.10219  1.0000
  O   O7        1.0  0.83444  0.11886  0.39781  1.0000
  O   O8        1.0  0.16556  0.38114  0.89781  1.0000
  O   O9        1.0  0.64323  0.29513  0.82909  1.0000
  O   O10       1.0  0.35677  0.20487  0.32909  1.0000
  O   O11       1.0  0.35677  0.70487  0.17091  1.0000
  O   O12       1.0  0.64323  0.79513  0.67091  1.0000
