data_image0
_chemical_formula_structural       CoH22C28N10O6
_chemical_formula_sum              "Co1 H22 C28 N10 O6"
_cell_length_a       7.60783
_cell_length_b       9.49595
_cell_length_c       10.866
_cell_angle_alpha    107.698
_cell_angle_beta     105.045
_cell_angle_gamma    100.573

_space_group_name_H-M_alt    "P 1"
_space_group_IT_number       1

loop_
  _space_group_symop_operation_xyz
  'x, y, z'

loop_
  _atom_site_type_symbol
  _atom_site_label
  _atom_site_symmetry_multiplicity
  _atom_site_fract_x
  _atom_site_fract_y
  _atom_site_fract_z
  _atom_site_occupancy
  Co  Co1       1.0  0.00000  1.00000  0.50000  1.0000
  H   H1        1.0  0.49548  0.25581  0.35066  1.0000
  H   H2        1.0  0.50451  0.74419  0.64934  1.0000
  H   H3        1.0  0.53572  0.98088  0.84550  1.0000
  H   H4        1.0  0.46429  0.01912  0.15449  1.0000
  H   H5        1.0  0.30589  0.56530  0.63739  1.0000
  H   H6        1.0  0.69411  0.43470  0.36261  1.0000
  H   H7        1.0  0.67531  0.32046  0.87865  1.0000
  H   H8        1.0  0.32469  0.67954  0.12135  1.0000
  H   H9        1.0  0.43459  0.21410  0.82323  1.0000
  H   H10       1.0  0.56541  0.78589  0.17677  1.0000
  H   H11       1.0  0.75565  0.13575  0.39506  1.0000
  H   H12       1.0  0.24435  0.86425  0.60494  1.0000
  H   H13       1.0  0.07642  0.33829  0.62423  1.0000
  H   H14       1.0  0.92359  0.66171  0.37578  1.0000
  H   H15       1.0  0.60833  0.14282  0.00270  1.0000
  H   H16       1.0  0.39167  0.85717  0.99730  1.0000
  H   H17       1.0  0.26946  0.04151  0.35690  1.0000
  H   H18       1.0  0.73054  0.95849  0.64310  1.0000
  H   H19       1.0  0.65724  0.22313  0.67085  1.0000
  H   H20       1.0  0.34276  0.77687  0.32915  1.0000
  H   H21       1.0  0.62901  0.00390  0.41952  1.0000
  H   H22       1.0  0.37099  0.99610  0.58048  1.0000
  C   C1        1.0  0.42762  0.43386  0.49634  1.0000
  C   C2        1.0  0.57238  0.56614  0.50366  1.0000
  C   C3        1.0  0.96933  0.20794  0.99913  1.0000
  C   C4        1.0  0.03067  0.79206  0.00087  1.0000
  C   C5        1.0  0.40776  0.28186  0.41437  1.0000
  C   C6        1.0  0.59224  0.71814  0.58562  1.0000
  C   C7        1.0  0.27813  0.15937  0.41549  1.0000
  C   C8        1.0  0.72187  0.84063  0.58451  1.0000
  C   C9        1.0  0.17370  0.32506  0.56644  1.0000
  C   C10       1.0  0.82631  0.67494  0.43356  1.0000
  C   C11       1.0  0.11889  0.23052  0.94637  1.0000
  C   C12       1.0  0.88111  0.76948  0.05362  1.0000
  C   C13       1.0  0.30274  0.45231  0.57149  1.0000
  C   C14       1.0  0.69727  0.54769  0.42851  1.0000
  C   C15       1.0  0.57670  0.20360  0.82493  1.0000
  C   C16       1.0  0.42330  0.79640  0.17507  1.0000
  C   C17       1.0  0.08498  0.15899  0.80523  1.0000
  C   C18       1.0  0.91502  0.84100  0.19477  1.0000
  C   C19       1.0  0.62585  0.10000  0.90217  1.0000
  C   C20       1.0  0.37415  0.90000  0.09784  1.0000
  C   C21       1.0  0.30741  0.31555  0.03222  1.0000
  C   C22       1.0  0.69259  0.68445  0.96778  1.0000
  C   C23       1.0  0.09474  0.45094  0.20486  1.0000
  C   C24       1.0  0.90526  0.54905  0.79513  1.0000
  C   C25       1.0  0.86431  0.24353  0.20070  1.0000
  C   C26       1.0  0.13568  0.75647  0.79930  1.0000
  C   C27       1.0  0.97616  0.29908  0.13203  1.0000
  C   C28       1.0  0.02383  0.70092  0.86797  1.0000
  N   N1        1.0  0.16308  0.17904  0.49169  1.0000
  N   N2        1.0  0.83693  0.82096  0.50831  1.0000
  N   N3        1.0  0.05891  0.10018  0.68793  1.0000
  N   N4        1.0  0.94109  0.89982  0.31207  1.0000
  N   N5        1.0  0.46535  0.38233  0.10168  1.0000
  N   N6        1.0  0.53464  0.61767  0.89832  1.0000
  N   N7        1.0  0.77377  0.20211  0.26210  1.0000
  N   N8        1.0  0.22623  0.79789  0.73789  1.0000
  N   N9        1.0  0.18456  0.57939  0.26904  1.0000
  N   N10       1.0  0.81543  0.42062  0.73096  1.0000
  O   O1        1.0  0.74718  0.09174  0.46586  1.0000
  O   O2        1.0  0.25282  0.90826  0.53414  1.0000
  O   O3        1.0  0.81783  0.08657  0.91498  1.0000
  O   O4        1.0  0.18217  0.91342  0.08502  1.0000
  O   O5        1.0  0.57807  0.14106  0.68819  1.0000
  O   O6        1.0  0.42193  0.85894  0.31181  1.0000
