data_image0
_chemical_formula_structural       Hg6H24C12Cl12O8
_chemical_formula_sum              "Hg6 H24 C12 Cl12 O8"
_cell_length_a       7.67979
_cell_length_b       9.46353
_cell_length_c       12.026
_cell_angle_alpha    100.131
_cell_angle_beta     89.8119
_cell_angle_gamma    96.9357

_space_group_name_H-M_alt    "P 1"
_space_group_IT_number       1

loop_
  _space_group_symop_operation_xyz
  'x, y, z'

loop_
  _atom_site_type_symbol
  _atom_site_label
  _atom_site_symmetry_multiplicity
  _atom_site_fract_x
  _atom_site_fract_y
  _atom_site_fract_z
  _atom_site_occupancy
  Hg  Hg1       1.0  0.14221  0.82062  0.89256  1.0000
  Hg  Hg2       1.0  0.85779  0.17937  0.10745  1.0000
  Hg  Hg3       1.0  0.07881  0.48174  0.65400  1.0000
  Hg  Hg4       1.0  0.92119  0.51825  0.34601  1.0000
  Hg  Hg5       1.0  0.95633  0.83960  0.21503  1.0000
  Hg  Hg6       1.0  0.04370  0.16040  0.78499  1.0000
  H   H1        1.0  0.63137  0.94149  0.65209  1.0000
  H   H2        1.0  0.36859  0.05847  0.34786  1.0000
  H   H3        1.0  0.62753  0.89784  0.78913  1.0000
  H   H4        1.0  0.37248  0.10214  0.21082  1.0000
  H   H5        1.0  0.53443  0.69144  0.61248  1.0000
  H   H6        1.0  0.46549  0.30853  0.38749  1.0000
  H   H7        1.0  0.33404  0.76969  0.61547  1.0000
  H   H8        1.0  0.66589  0.23030  0.38455  1.0000
  H   H9        1.0  0.61181  0.58654  0.74909  1.0000
  H   H10       1.0  0.38820  0.41347  0.25090  1.0000
  H   H11       1.0  0.55660  0.68529  0.88196  1.0000
  H   H12       1.0  0.44342  0.31473  0.11803  1.0000
  H   H13       1.0  0.30171  0.49513  0.89509  1.0000
  H   H14       1.0  0.69831  0.50489  0.10493  1.0000
  H   H15       1.0  0.51270  0.43349  0.89545  1.0000
  H   H16       1.0  0.48734  0.56653  0.10455  1.0000
  H   H17       1.0  0.56819  0.36073  0.64199  1.0000
  H   H18       1.0  0.43183  0.63929  0.35802  1.0000
  H   H19       1.0  0.58626  0.26754  0.75727  1.0000
  H   H20       1.0  0.41375  0.73247  0.24273  1.0000
  H   H21       1.0  0.53542  0.10948  0.56912  1.0000
  H   H22       1.0  0.46457  0.89053  0.43088  1.0000
  H   H23       1.0  0.32552  0.17077  0.55609  1.0000
  H   H24       1.0  0.67448  0.82926  0.44391  1.0000
  C   C1        1.0  0.54393  0.90207  0.71589  1.0000
  C   C2        1.0  0.45606  0.09791  0.28408  1.0000
  C   C3        1.0  0.44624  0.75549  0.66702  1.0000
  C   C4        1.0  0.55371  0.24450  0.33298  1.0000
  C   C5        1.0  0.50264  0.60928  0.80641  1.0000
  C   C6        1.0  0.49737  0.39074  0.19359  1.0000
  C   C7        1.0  0.41700  0.47287  0.84377  1.0000
  C   C8        1.0  0.58305  0.52715  0.15624  1.0000
  C   C9        1.0  0.49446  0.29016  0.69433  1.0000
  C   C10       1.0  0.50557  0.70985  0.30568  1.0000
  C   C11       1.0  0.42418  0.15201  0.61650  1.0000
  C   C12       1.0  0.57582  0.84800  0.38350  1.0000
  Cl  Cl1       1.0  0.30756  0.81361  0.05335  1.0000
  Cl  Cl2       1.0  0.69242  0.18636  0.94666  1.0000
  Cl  Cl3       1.0  0.98138  0.82990  0.72817  1.0000
  Cl  Cl4       1.0  0.01863  0.17009  0.27184  1.0000
  Cl  Cl5       1.0  0.95122  0.49135  0.83408  1.0000
  Cl  Cl6       1.0  0.04879  0.50865  0.16594  1.0000
  Cl  Cl7       1.0  0.23067  0.46858  0.48190  1.0000
  Cl  Cl8       1.0  0.76931  0.53142  0.51810  1.0000
  Cl  Cl9       1.0  0.17912  0.16598  0.96147  1.0000
  Cl  Cl10      1.0  0.82090  0.83401  0.03854  1.0000
  Cl  Cl11      1.0  0.91878  0.16362  0.60687  1.0000
  Cl  Cl12      1.0  0.08122  0.83638  0.39315  1.0000
  O   O1        1.0  0.43388  0.00919  0.76180  1.0000
  O   O2        1.0  0.56613  0.99081  0.23819  1.0000
  O   O3        1.0  0.37402  0.67290  0.75002  1.0000
  O   O4        1.0  0.62596  0.32709  0.25000  1.0000
  O   O5        1.0  0.35436  0.35918  0.75153  1.0000
  O   O6        1.0  0.64567  0.64083  0.24847  1.0000
  O   O7        1.0  0.32719  0.04227  0.66886  1.0000
  O   O8        1.0  0.67281  0.95776  0.33115  1.0000
