data_image0
_chemical_formula_structural       Cu4H32C20N12Cl4O24
_chemical_formula_sum              "Cu4 H32 C20 N12 Cl4 O24"
_cell_length_a       7.13645
_cell_length_b       8.56632
_cell_length_c       16.8113
_cell_angle_alpha    90.0073
_cell_angle_beta     89.9961
_cell_angle_gamma    104.161

_space_group_name_H-M_alt    "P 1"
_space_group_IT_number       1

loop_
  _space_group_symop_operation_xyz
  'x, y, z'

loop_
  _atom_site_type_symbol
  _atom_site_label
  _atom_site_symmetry_multiplicity
  _atom_site_fract_x
  _atom_site_fract_y
  _atom_site_fract_z
  _atom_site_occupancy
  Cu  Cu1       1.0  0.23529  0.87818  0.20295  1.0000
  Cu  Cu2       1.0  0.26480  0.62129  0.70277  1.0000
  Cu  Cu3       1.0  0.76481  0.12130  0.79723  1.0000
  Cu  Cu4       1.0  0.73530  0.37817  0.29706  1.0000
  H   H1        1.0  0.65864  0.98747  0.16322  1.0000
  H   H2        1.0  0.84127  0.51214  0.66302  1.0000
  H   H3        1.0  0.34127  0.01216  0.83698  1.0000
  H   H4        1.0  0.15866  0.48751  0.33676  1.0000
  H   H5        1.0  0.96485  0.87077  0.30524  1.0000
  H   H6        1.0  0.53544  0.62787  0.80486  1.0000
  H   H7        1.0  0.03544  0.12785  0.69511  1.0000
  H   H8        1.0  0.46484  0.37073  0.19480  1.0000
  H   H9        1.0  0.14308  0.79316  0.33734  1.0000
  H   H10       1.0  0.35860  0.70731  0.83673  1.0000
  H   H11       1.0  0.85859  0.20726  0.66326  1.0000
  H   H12       1.0  0.64302  0.29309  0.16266  1.0000
  H   H13       1.0  0.22017  0.02637  0.41353  1.0000
  H   H14       1.0  0.27819  0.47532  0.91357  1.0000
  H   H15       1.0  0.77819  0.97524  0.58642  1.0000
  H   H16       1.0  0.72014  0.52629  0.08649  1.0000
  H   H17       1.0  0.11060  0.12581  0.34090  1.0000
  H   H18       1.0  0.38846  0.37414  0.84195  1.0000
  H   H19       1.0  0.88848  0.87410  0.65803  1.0000
  H   H20       1.0  0.61058  0.62575  0.15913  1.0000
  H   H21       1.0  0.83498  0.92853  0.03979  1.0000
  H   H22       1.0  0.66513  0.57157  0.53967  1.0000
  H   H23       1.0  0.16511  0.07164  0.96032  1.0000
  H   H24       1.0  0.33502  0.42861  0.46017  1.0000
  H   H25       1.0  0.55875  0.73237  0.94660  1.0000
  H   H26       1.0  0.94150  0.76833  0.44675  1.0000
  H   H27       1.0  0.44143  0.26839  0.05327  1.0000
  H   H28       1.0  0.05880  0.23241  0.55336  1.0000
  H   H29       1.0  0.21997  0.69948  0.03411  1.0000
  H   H30       1.0  0.28010  0.80088  0.53433  1.0000
  H   H31       1.0  0.78008  0.30092  0.96570  1.0000
  H   H32       1.0  0.72003  0.19947  0.46585  1.0000
  C   C1        1.0  0.68114  0.88338  0.04917  1.0000
  C   C2        1.0  0.81895  0.61670  0.54912  1.0000
  C   C3        1.0  0.31892  0.11677  0.95089  1.0000
  C   C4        1.0  0.18119  0.38344  0.45081  1.0000
  C   C5        1.0  0.53784  0.78348  0.00371  1.0000
  C   C6        1.0  0.96232  0.71690  0.50379  1.0000
  C   C7        1.0  0.46226  0.21696  0.99623  1.0000
  C   C8        1.0  0.03790  0.28353  0.49625  1.0000
  C   C9        1.0  0.36664  0.76519  0.04764  1.0000
  C   C10       1.0  0.13345  0.73503  0.54774  1.0000
  C   C11       1.0  0.63342  0.23507  0.95228  1.0000
  C   C12       1.0  0.86669  0.26521  0.45232  1.0000
  C   C13       1.0  0.39678  0.11716  0.31195  1.0000
  C   C14       1.0  0.10298  0.38289  0.81195  1.0000
  C   C15       1.0  0.60299  0.88285  0.68805  1.0000
  C   C16       1.0  0.89679  0.61711  0.18807  1.0000
  C   C17       1.0  0.20240  0.04135  0.34941  1.0000
  C   C18       1.0  0.29695  0.45909  0.84960  1.0000
  C   C19       1.0  0.79695  0.95905  0.65039  1.0000
  C   C20       1.0  0.70239  0.54130  0.15061  1.0000
  N   N1        1.0  0.40394  0.84873  0.11597  1.0000
  N   N2        1.0  0.09605  0.65115  0.61595  1.0000
  N   N3        1.0  0.59603  0.15118  0.88407  1.0000
  N   N4        1.0  0.90395  0.34874  0.38400  1.0000
  N   N5        1.0  0.59539  0.91950  0.11578  1.0000
  N   N6        1.0  0.90465  0.58031  0.61567  1.0000
  N   N7        1.0  0.40463  0.08035  0.88433  1.0000
  N   N8        1.0  0.09542  0.41953  0.38420  1.0000
  N   N9        1.0  0.11265  0.88952  0.30882  1.0000
  N   N10       1.0  0.38774  0.61004  0.80857  1.0000
  N   N11       1.0  0.88775  0.11001  0.69142  1.0000
  N   N12       1.0  0.61262  0.38947  0.19120  1.0000
  Cl  Cl1       1.0  0.04255  0.22815  0.15657  1.0000
  Cl  Cl2       1.0  0.45760  0.27155  0.65675  1.0000
  Cl  Cl3       1.0  0.95757  0.77159  0.84325  1.0000
  Cl  Cl4       1.0  0.54250  0.72823  0.34344  1.0000
  O   O1        1.0  0.50530  0.23612  0.34727  1.0000
  O   O2        1.0  0.99450  0.26397  0.84729  1.0000
  O   O3        1.0  0.49452  0.76392  0.65271  1.0000
  O   O4        1.0  0.00531  0.73603  0.15275  1.0000
  O   O5        1.0  0.43771  0.06132  0.24546  1.0000
  O   O6        1.0  0.06225  0.43837  0.74534  1.0000
  O   O7        1.0  0.56226  0.93835  0.75466  1.0000
  O   O8        1.0  0.93766  0.56128  0.25457  1.0000
  O   O9        1.0  0.88331  0.15256  0.21061  1.0000
  O   O10       1.0  0.61781  0.34721  0.71033  1.0000
  O   O11       1.0  0.11779  0.84718  0.78967  1.0000
  O   O12       1.0  0.38331  0.65260  0.28938  1.0000
  O   O13       1.0  0.19576  0.33169  0.20394  1.0000
  O   O14       1.0  0.30495  0.16861  0.70462  1.0000
  O   O15       1.0  0.80491  0.66862  0.79540  1.0000
  O   O16       1.0  0.69574  0.83177  0.29608  1.0000
  O   O17       1.0  0.97174  0.32373  0.09725  1.0000
  O   O18       1.0  0.52709  0.17540  0.59731  1.0000
  O   O19       1.0  0.02703  0.67548  0.90271  1.0000
  O   O20       1.0  0.47163  0.82384  0.40275  1.0000
  O   O21       1.0  0.11566  0.10259  0.11760  1.0000
  O   O22       1.0  0.38428  0.39709  0.61789  1.0000
  O   O23       1.0  0.88426  0.89717  0.88210  1.0000
  O   O24       1.0  0.61559  0.60272  0.38241  1.0000
