data_image0
_chemical_formula_structural       Zn6Mo4H20C8N16O20
_chemical_formula_sum              "Zn6 Mo4 H20 C8 N16 O20"
_cell_length_a       8.89954
_cell_length_b       9.50555
_cell_length_c       9.56829
_cell_angle_alpha    102.127
_cell_angle_beta     90
_cell_angle_gamma    90

_space_group_name_H-M_alt    "P 1"
_space_group_IT_number       1

loop_
  _space_group_symop_operation_xyz
  'x, y, z'

loop_
  _atom_site_type_symbol
  _atom_site_label
  _atom_site_symmetry_multiplicity
  _atom_site_fract_x
  _atom_site_fract_y
  _atom_site_fract_z
  _atom_site_occupancy
  Zn  Zn1       1.0  0.50000  0.00000  0.50000  1.0000
  Zn  Zn2       1.0  0.00000  0.50000  1.00000  1.0000
  Zn  Zn3       1.0  0.29560  0.40221  0.19731  1.0000
  Zn  Zn4       1.0  0.79560  0.09779  0.30269  1.0000
  Zn  Zn5       1.0  0.70440  0.59779  0.80269  1.0000
  Zn  Zn6       1.0  0.20440  0.90221  0.69731  1.0000
  Mo  Mo1       1.0  0.17656  0.21335  0.45839  1.0000
  Mo  Mo2       1.0  0.67656  0.28665  0.04161  1.0000
  Mo  Mo3       1.0  0.82344  0.78665  0.54161  1.0000
  Mo  Mo4       1.0  0.32344  0.71335  0.95839  1.0000
  H   H1        1.0  0.15253  0.58140  0.49855  1.0000
  H   H2        1.0  0.65253  0.91860  0.00145  1.0000
  H   H3        1.0  0.84747  0.41860  0.50145  1.0000
  H   H4        1.0  0.34748  0.08140  0.99855  1.0000
  H   H5        1.0  0.62690  0.74996  0.26219  1.0000
  H   H6        1.0  0.12690  0.75004  0.23781  1.0000
  H   H7        1.0  0.37310  0.25004  0.73781  1.0000
  H   H8        1.0  0.87310  0.24996  0.76219  1.0000
  H   H9        1.0  0.56481  0.57713  0.18491  1.0000
  H   H10       1.0  0.06481  0.92287  0.31509  1.0000
  H   H11       1.0  0.43519  0.42287  0.81509  1.0000
  H   H12       1.0  0.93519  0.07713  0.68491  1.0000
  H   H13       1.0  0.44989  0.13469  0.28926  1.0000
  H   H14       1.0  0.94989  0.36531  0.21074  1.0000
  H   H15       1.0  0.55011  0.86531  0.71074  1.0000
  H   H16       1.0  0.05011  0.63469  0.78926  1.0000
  H   H17       1.0  0.46671  0.97564  0.19958  1.0000
  H   H18       1.0  0.96671  0.52436  0.30042  1.0000
  H   H19       1.0  0.53329  0.02436  0.80042  1.0000
  H   H20       1.0  0.03329  0.47564  0.69958  1.0000
  C   C1        1.0  0.24325  0.63932  0.46018  1.0000
  C   C2        1.0  0.74325  0.86068  0.03982  1.0000
  C   C3        1.0  0.75675  0.36068  0.53982  1.0000
  C   C4        1.0  0.25675  0.13932  0.96018  1.0000
  C   C5        1.0  0.43153  0.68966  0.33788  1.0000
  C   C6        1.0  0.93153  0.81034  0.16212  1.0000
  C   C7        1.0  0.56847  0.31034  0.66212  1.0000
  C   C8        1.0  0.06847  0.18966  0.83788  1.0000
  N   N1        1.0  0.53986  0.67982  0.23699  1.0000
  N   N2        1.0  0.03986  0.82018  0.26301  1.0000
  N   N3        1.0  0.46014  0.32018  0.76301  1.0000
  N   N4        1.0  0.96014  0.17982  0.73699  1.0000
  N   N5        1.0  0.40643  0.80515  0.44283  1.0000
  N   N6        1.0  0.90643  0.69485  0.05717  1.0000
  N   N7        1.0  0.59357  0.19485  0.55717  1.0000
  N   N8        1.0  0.09357  0.30515  0.94283  1.0000
  N   N9        1.0  0.32854  0.58412  0.34364  1.0000
  N   N10       1.0  0.82854  0.91588  0.15636  1.0000
  N   N11       1.0  0.67146  0.41588  0.65636  1.0000
  N   N12       1.0  0.17146  0.08412  0.84364  1.0000
  N   N13       1.0  0.28661  0.77086  0.52150  1.0000
  N   N14       1.0  0.78661  0.72914  0.97850  1.0000
  N   N15       1.0  0.71339  0.22914  0.47850  1.0000
  N   N16       1.0  0.21339  0.27086  0.02150  1.0000
  O   O1        1.0  0.51616  0.37790  0.12793  1.0000
  O   O2        1.0  0.01616  0.12210  0.37207  1.0000
  O   O3        1.0  0.48384  0.62211  0.87207  1.0000
  O   O4        1.0  0.98384  0.87789  0.62793  1.0000
  O   O5        1.0  0.51671  0.04855  0.27744  1.0000
  O   O6        1.0  0.01671  0.45145  0.22256  1.0000
  O   O7        1.0  0.48329  0.95145  0.72256  1.0000
  O   O8        1.0  0.98329  0.54855  0.77744  1.0000
  O   O9        1.0  0.27511  0.09667  0.55071  1.0000
  O   O10       1.0  0.77511  0.40333  0.94929  1.0000
  O   O11       1.0  0.72489  0.90333  0.44929  1.0000
  O   O12       1.0  0.22489  0.59667  0.05071  1.0000
  O   O13       1.0  0.30200  0.25396  0.32493  1.0000
  O   O14       1.0  0.80200  0.24604  0.17507  1.0000
  O   O15       1.0  0.69800  0.74604  0.67507  1.0000
  O   O16       1.0  0.19800  0.75396  0.82493  1.0000
  O   O17       1.0  0.12680  0.37571  0.57272  1.0000
  O   O18       1.0  0.62679  0.12429  0.92728  1.0000
  O   O19       1.0  0.87321  0.62429  0.42728  1.0000
  O   O20       1.0  0.37321  0.87571  0.07272  1.0000
