data_image0
_chemical_formula_structural       Dy4Ag4H24C48N16O32
_chemical_formula_sum              "Dy4 Ag4 H24 C48 N16 O32"
_cell_length_a       8.05571
_cell_length_b       10.0752
_cell_length_c       18.3331
_cell_angle_alpha    90.0006
_cell_angle_beta     89.9999
_cell_angle_gamma    95.5355

_space_group_name_H-M_alt    "P 1"
_space_group_IT_number       1

loop_
  _space_group_symop_operation_xyz
  'x, y, z'

loop_
  _atom_site_type_symbol
  _atom_site_label
  _atom_site_symmetry_multiplicity
  _atom_site_fract_x
  _atom_site_fract_y
  _atom_site_fract_z
  _atom_site_occupancy
  Dy  Dy1       1.0  0.24230  0.85840  0.10606  1.0000
  Dy  Dy2       1.0  0.25770  0.14159  0.60607  1.0000
  Dy  Dy3       1.0  0.75770  0.14159  0.89393  1.0000
  Dy  Dy4       1.0  0.74230  0.85841  0.39393  1.0000
  Ag  Ag1       1.0  0.89667  0.35203  0.07359  1.0000
  Ag  Ag2       1.0  0.60334  0.64797  0.57359  1.0000
  Ag  Ag3       1.0  0.10334  0.64797  0.92642  1.0000
  Ag  Ag4       1.0  0.39666  0.35204  0.42641  1.0000
  H   H1        1.0  0.88550  0.65142  0.08411  1.0000
  H   H2        1.0  0.61450  0.34857  0.58411  1.0000
  H   H3        1.0  0.11451  0.34858  0.91589  1.0000
  H   H4        1.0  0.38550  0.65143  0.41589  1.0000
  H   H5        1.0  0.68562  0.82862  0.09294  1.0000
  H   H6        1.0  0.81438  0.17137  0.59294  1.0000
  H   H7        1.0  0.31439  0.17138  0.90706  1.0000
  H   H8        1.0  0.18561  0.82863  0.40705  1.0000
  H   H9        1.0  0.48428  0.35808  0.08518  1.0000
  H   H10       1.0  0.01573  0.64191  0.58518  1.0000
  H   H11       1.0  0.51573  0.64192  0.91482  1.0000
  H   H12       1.0  0.98427  0.35809  0.41482  1.0000
  H   H13       1.0  0.23371  0.36320  0.25615  1.0000
  H   H14       1.0  0.26629  0.63680  0.75615  1.0000
  H   H15       1.0  0.76629  0.63680  0.74385  1.0000
  H   H16       1.0  0.73371  0.36320  0.24385  1.0000
  H   H17       1.0  0.37956  0.05355  0.38309  1.0000
  H   H18       1.0  0.12043  0.94646  0.88309  1.0000
  H   H19       1.0  0.62044  0.94646  0.61691  1.0000
  H   H20       1.0  0.87956  0.05355  0.11691  1.0000
  H   H21       1.0  0.19592  0.20666  0.14849  1.0000
  H   H22       1.0  0.30407  0.79333  0.64849  1.0000
  H   H23       1.0  0.80407  0.79333  0.85151  1.0000
  H   H24       1.0  0.69592  0.20667  0.35151  1.0000
  C   C1        1.0  0.75147  0.62565  0.08639  1.0000
  C   C2        1.0  0.74854  0.37435  0.58639  1.0000
  C   C3        1.0  0.24854  0.37435  0.91361  1.0000
  C   C4        1.0  0.25146  0.62565  0.41361  1.0000
  C   C5        1.0  0.64076  0.72343  0.09141  1.0000
  C   C6        1.0  0.85924  0.27657  0.59141  1.0000
  C   C7        1.0  0.35925  0.27657  0.90860  1.0000
  C   C8        1.0  0.14075  0.72343  0.40859  1.0000
  C   C9        1.0  0.42070  0.56202  0.09291  1.0000
  C   C10       1.0  0.07931  0.43798  0.59292  1.0000
  C   C11       1.0  0.57931  0.43798  0.90709  1.0000
  C   C12       1.0  0.92069  0.56202  0.40708  1.0000
  C   C13       1.0  0.53042  0.46332  0.08770  1.0000
  C   C14       1.0  0.96960  0.53668  0.58770  1.0000
  C   C15       1.0  0.46960  0.53668  0.91230  1.0000
  C   C16       1.0  0.03041  0.46332  0.41230  1.0000
  C   C17       1.0  0.23422  0.53063  0.09339  1.0000
  C   C18       1.0  0.26579  0.46937  0.59339  1.0000
  C   C19       1.0  0.76579  0.46937  0.90661  1.0000
  C   C20       1.0  0.73421  0.53063  0.40661  1.0000
  C   C21       1.0  0.25831  0.25891  0.26094  1.0000
  C   C22       1.0  0.24168  0.74109  0.76094  1.0000
  C   C23       1.0  0.74169  0.74109  0.73907  1.0000
  C   C24       1.0  0.75831  0.25892  0.23906  1.0000
  C   C25       1.0  0.34257  0.08983  0.33047  1.0000
  C   C26       1.0  0.15743  0.91017  0.83047  1.0000
  C   C27       1.0  0.65743  0.91017  0.66953  1.0000
  C   C28       1.0  0.84257  0.08983  0.16953  1.0000
  C   C29       1.0  0.23844  0.17297  0.20111  1.0000
  C   C30       1.0  0.26155  0.82703  0.70111  1.0000
  C   C31       1.0  0.76155  0.82703  0.79889  1.0000
  C   C32       1.0  0.73844  0.17297  0.29889  1.0000
  C   C33       1.0  0.33497  0.00640  0.26985  1.0000
  C   C34       1.0  0.16502  0.99360  0.76985  1.0000
  C   C35       1.0  0.66502  0.99360  0.73015  1.0000
  C   C36       1.0  0.83496  0.00640  0.23015  1.0000
  C   C37       1.0  0.39856  0.87032  0.27204  1.0000
  C   C38       1.0  0.10144  0.12968  0.77204  1.0000
  C   C39       1.0  0.60144  0.12968  0.72797  1.0000
  C   C40       1.0  0.89856  0.87032  0.22796  1.0000
  C   C41       1.0  0.54259  0.03897  0.03256  1.0000
  C   C42       1.0  0.95740  0.96102  0.53255  1.0000
  C   C43       1.0  0.45741  0.96103  0.96744  1.0000
  C   C44       1.0  0.04259  0.03897  0.46744  1.0000
  C   C45       1.0  0.04395  0.06825  0.01201  1.0000
  C   C46       1.0  0.45606  0.93175  0.51201  1.0000
  C   C47       1.0  0.95605  0.93175  0.98799  1.0000
  C   C48       1.0  0.54396  0.06825  0.48799  1.0000
  N   N1        1.0  0.69603  0.49568  0.08351  1.0000
  N   N2        1.0  0.80398  0.50432  0.58351  1.0000
  N   N3        1.0  0.30398  0.50432  0.91649  1.0000
  N   N4        1.0  0.19602  0.49568  0.41649  1.0000
  N   N5        1.0  0.47610  0.69231  0.09380  1.0000
  N   N6        1.0  0.02390  0.30768  0.59380  1.0000
  N   N7        1.0  0.52390  0.30769  0.90621  1.0000
  N   N8        1.0  0.97610  0.69232  0.40620  1.0000
  N   N9        1.0  0.30635  0.21635  0.32622  1.0000
  N   N10       1.0  0.19364  0.78365  0.82622  1.0000
  N   N11       1.0  0.69365  0.78365  0.67378  1.0000
  N   N12       1.0  0.80635  0.21635  0.17378  1.0000
  N   N13       1.0  0.27541  0.04625  0.20591  1.0000
  N   N14       1.0  0.22458  0.95374  0.70591  1.0000
  N   N15       1.0  0.72458  0.95375  0.79409  1.0000
  N   N16       1.0  0.77541  0.04625  0.29409  1.0000
  O   O1        1.0  0.14892  0.63094  0.09271  1.0000
  O   O2        1.0  0.35109  0.36904  0.59271  1.0000
  O   O3        1.0  0.85109  0.36905  0.90729  1.0000
  O   O4        1.0  0.64891  0.63095  0.40729  1.0000
  O   O5        1.0  0.17819  0.40946  0.09227  1.0000
  O   O6        1.0  0.32182  0.59053  0.59227  1.0000
  O   O7        1.0  0.82182  0.59053  0.90773  1.0000
  O   O8        1.0  0.67818  0.40946  0.40773  1.0000
  O   O9        1.0  0.49247  0.84611  0.32493  1.0000
  O   O10       1.0  0.00751  0.15389  0.82493  1.0000
  O   O11       1.0  0.50752  0.15389  0.67508  1.0000
  O   O12       1.0  0.99249  0.84611  0.17507  1.0000
  O   O13       1.0  0.35431  0.79276  0.21975  1.0000
  O   O14       1.0  0.14568  0.20724  0.71975  1.0000
  O   O15       1.0  0.64568  0.20724  0.78025  1.0000
  O   O16       1.0  0.85431  0.79276  0.28024  1.0000
  O   O17       1.0  0.49852  0.99950  0.09593  1.0000
  O   O18       1.0  0.00148  0.00050  0.59593  1.0000
  O   O19       1.0  0.50148  0.00051  0.90407  1.0000
  O   O20       1.0  0.99852  0.99950  0.40407  1.0000
  O   O21       1.0  0.65045  0.13443  0.01663  1.0000
  O   O22       1.0  0.84955  0.86558  0.51663  1.0000
  O   O23       1.0  0.34955  0.86557  0.98337  1.0000
  O   O24       1.0  0.15045  0.13443  0.48337  1.0000
  O   O25       1.0  0.16346  0.06541  0.05660  1.0000
  O   O26       1.0  0.33654  0.93459  0.55660  1.0000
  O   O27       1.0  0.83655  0.93459  0.94340  1.0000
  O   O28       1.0  0.66345  0.06541  0.44340  1.0000
  O   O29       1.0  0.98699  0.17084  0.98541  1.0000
  O   O30       1.0  0.51302  0.82916  0.48541  1.0000
  O   O31       1.0  0.01302  0.82915  0.01460  1.0000
  O   O32       1.0  0.48698  0.17085  0.51460  1.0000
