data_image0
_chemical_formula_structural       Sm4H16C24O32
_chemical_formula_sum              "Sm4 H16 C24 O32"
_cell_length_a       6.9136
_cell_length_b       7.06264
_cell_length_c       16.763
_cell_angle_alpha    90.0003
_cell_angle_beta     89.9999
_cell_angle_gamma    100.946

_space_group_name_H-M_alt    "P 1"
_space_group_IT_number       1

loop_
  _space_group_symop_operation_xyz
  'x, y, z'

loop_
  _atom_site_type_symbol
  _atom_site_label
  _atom_site_symmetry_multiplicity
  _atom_site_fract_x
  _atom_site_fract_y
  _atom_site_fract_z
  _atom_site_occupancy
  Sm  Sm1       1.0  0.48646  0.73906  0.41934  1.0000
  Sm  Sm2       1.0  0.01354  0.26095  0.91934  1.0000
  Sm  Sm3       1.0  0.51354  0.26095  0.58066  1.0000
  Sm  Sm4       1.0  0.98646  0.73905  0.08066  1.0000
  H   H1        1.0  0.15186  0.40375  0.38085  1.0000
  H   H2        1.0  0.34814  0.59624  0.88085  1.0000
  H   H3        1.0  0.84814  0.59624  0.61915  1.0000
  H   H4        1.0  0.65186  0.40376  0.11914  1.0000
  H   H5        1.0  0.22411  0.98231  0.32048  1.0000
  H   H6        1.0  0.27589  0.01769  0.82048  1.0000
  H   H7        1.0  0.77589  0.01769  0.67952  1.0000
  H   H8        1.0  0.72411  0.98231  0.17952  1.0000
  H   H9        1.0  0.04822  0.57796  0.41196  1.0000
  H   H10       1.0  0.45178  0.42204  0.91196  1.0000
  H   H11       1.0  0.95178  0.42204  0.58804  1.0000
  H   H12       1.0  0.54822  0.57796  0.08804  1.0000
  H   H13       1.0  0.18657  0.77101  0.28289  1.0000
  H   H14       1.0  0.31343  0.22899  0.78289  1.0000
  H   H15       1.0  0.81343  0.22899  0.71711  1.0000
  H   H16       1.0  0.68657  0.77101  0.21711  1.0000
  C   C1        1.0  0.64453  0.16434  0.33140  1.0000
  C   C2        1.0  0.85547  0.83566  0.83140  1.0000
  C   C3        1.0  0.35547  0.83566  0.66860  1.0000
  C   C4        1.0  0.14453  0.16434  0.16860  1.0000
  C   C5        1.0  0.64280  0.26977  0.25475  1.0000
  C   C6        1.0  0.85720  0.73023  0.75475  1.0000
  C   C7        1.0  0.35720  0.73023  0.74525  1.0000
  C   C8        1.0  0.14280  0.26976  0.24525  1.0000
  C   C9        1.0  0.59488  0.43510  0.29938  1.0000
  C   C10       1.0  0.90512  0.56490  0.79938  1.0000
  C   C11       1.0  0.40512  0.56489  0.70062  1.0000
  C   C12       1.0  0.09488  0.43510  0.20062  1.0000
  C   C13       1.0  0.59050  0.32891  0.37340  1.0000
  C   C14       1.0  0.90950  0.67110  0.87340  1.0000
  C   C15       1.0  0.40949  0.67110  0.62660  1.0000
  C   C16       1.0  0.09050  0.32891  0.12660  1.0000
  C   C17       1.0  0.13963  0.97728  0.48980  1.0000
  C   C18       1.0  0.36038  0.02272  0.98980  1.0000
  C   C19       1.0  0.86037  0.02273  0.51020  1.0000
  C   C20       1.0  0.63962  0.97727  0.01020  1.0000
  C   C21       1.0  0.94190  0.87535  0.46768  1.0000
  C   C22       1.0  0.55810  0.12464  0.96768  1.0000
  C   C23       1.0  0.05810  0.12465  0.53232  1.0000
  C   C24       1.0  0.44190  0.87535  0.03232  1.0000
  O   O1        1.0  0.67201  0.99868  0.34797  1.0000
  O   O2        1.0  0.82799  0.00132  0.84797  1.0000
  O   O3        1.0  0.32798  0.00132  0.65203  1.0000
  O   O4        1.0  0.17202  0.99868  0.15203  1.0000
  O   O5        1.0  0.26279  0.85457  0.32373  1.0000
  O   O6        1.0  0.23721  0.14543  0.82373  1.0000
  O   O7        1.0  0.73721  0.14543  0.67627  1.0000
  O   O8        1.0  0.76279  0.85457  0.17627  1.0000
  O   O9        1.0  0.66170  0.22332  0.18322  1.0000
  O   O10       1.0  0.83830  0.77668  0.68323  1.0000
  O   O11       1.0  0.33829  0.77667  0.81677  1.0000
  O   O12       1.0  0.16170  0.22332  0.31677  1.0000
  O   O13       1.0  0.16836  0.52113  0.41570  1.0000
  O   O14       1.0  0.33164  0.47887  0.91570  1.0000
  O   O15       1.0  0.83165  0.47887  0.58430  1.0000
  O   O16       1.0  0.66835  0.52113  0.08430  1.0000
  O   O17       1.0  0.55391  0.60071  0.28771  1.0000
  O   O18       1.0  0.94609  0.39928  0.78771  1.0000
  O   O19       1.0  0.44610  0.39929  0.71229  1.0000
  O   O20       1.0  0.05391  0.60071  0.21229  1.0000
  O   O21       1.0  0.54168  0.38087  0.44230  1.0000
  O   O22       1.0  0.95832  0.61913  0.94230  1.0000
  O   O23       1.0  0.45832  0.61914  0.55770  1.0000
  O   O24       1.0  0.04169  0.38087  0.05770  1.0000
  O   O25       1.0  0.31907  0.96626  0.48199  1.0000
  O   O26       1.0  0.18094  0.03374  0.98199  1.0000
  O   O27       1.0  0.68094  0.03375  0.51801  1.0000
  O   O28       1.0  0.81906  0.96626  0.01801  1.0000
  O   O29       1.0  0.85635  0.72759  0.43044  1.0000
  O   O30       1.0  0.64365  0.27241  0.93044  1.0000
  O   O31       1.0  0.14365  0.27242  0.56956  1.0000
  O   O32       1.0  0.35635  0.72759  0.06956  1.0000
