data_image0
_chemical_formula_structural       Fe2H28C42N4O14
_chemical_formula_sum              "Fe2 H28 C42 N4 O14"
_cell_length_a       9.5652
_cell_length_b       10.782
_cell_length_c       10.8168
_cell_angle_alpha    96.8219
_cell_angle_beta     109.676
_cell_angle_gamma    113.15

_space_group_name_H-M_alt    "P 1"
_space_group_IT_number       1

loop_
  _space_group_symop_operation_xyz
  'x, y, z'

loop_
  _atom_site_type_symbol
  _atom_site_label
  _atom_site_symmetry_multiplicity
  _atom_site_fract_x
  _atom_site_fract_y
  _atom_site_fract_z
  _atom_site_occupancy
  Fe  Fe1       1.0  0.61812  0.98597  0.65149  1.0000
  Fe  Fe2       1.0  0.38188  0.01401  0.34851  1.0000
  H   H1        1.0  0.37226  0.59453  0.68117  1.0000
  H   H2        1.0  0.62775  0.40547  0.31884  1.0000
  H   H3        1.0  0.35800  0.18641  0.61712  1.0000
  H   H4        1.0  0.64201  0.81359  0.38288  1.0000
  H   H5        1.0  0.79290  0.55571  0.65985  1.0000
  H   H6        1.0  0.20711  0.44429  0.34015  1.0000
  H   H7        1.0  0.23891  0.79718  0.56268  1.0000
  H   H8        1.0  0.76109  0.20282  0.43732  1.0000
  H   H9        1.0  0.04403  0.80764  0.66598  1.0000
  H   H10       1.0  0.95598  0.19235  0.33401  1.0000
  H   H11       1.0  0.14789  0.99835  0.87565  1.0000
  H   H12       1.0  0.85210  0.00164  0.12434  1.0000
  H   H13       1.0  0.41100  0.22121  0.06860  1.0000
  H   H14       1.0  0.58898  0.77878  0.93139  1.0000
  H   H15       1.0  0.71541  0.38136  0.16508  1.0000
  H   H16       1.0  0.28456  0.61864  0.83491  1.0000
  H   H17       1.0  0.00251  0.44447  0.15656  1.0000
  H   H18       1.0  0.99748  0.55554  0.84345  1.0000
  H   H19       1.0  0.15615  0.37025  0.04127  1.0000
  H   H20       1.0  0.84384  0.62976  0.95874  1.0000
  H   H21       1.0  0.00005  0.16616  0.83176  1.0000
  H   H22       1.0  0.99994  0.83384  0.16824  1.0000
  H   H23       1.0  0.83353  0.92714  0.63176  1.0000
  H   H24       1.0  0.16648  0.07287  0.36823  1.0000
  H   H25       1.0  0.90248  0.08135  0.61026  1.0000
  H   H26       1.0  0.09753  0.91866  0.38975  1.0000
  H   H27       1.0  0.99473  0.35825  0.64718  1.0000
  H   H28       1.0  0.00528  0.64175  0.35282  1.0000
  C   C1        1.0  0.59406  0.59168  0.67783  1.0000
  C   C2        1.0  0.40596  0.40833  0.32218  1.0000
  C   C3        1.0  0.43271  0.52913  0.67274  1.0000
  C   C4        1.0  0.56730  0.47087  0.32726  1.0000
  C   C5        1.0  0.34908  0.38412  0.65357  1.0000
  C   C6        1.0  0.65093  0.61588  0.34644  1.0000
  C   C7        1.0  0.42544  0.29985  0.63608  1.0000
  C   C8        1.0  0.57457  0.70016  0.36393  1.0000
  C   C9        1.0  0.58518  0.36156  0.63767  1.0000
  C   C10       1.0  0.41483  0.63844  0.36234  1.0000
  C   C11       1.0  0.66933  0.50746  0.65980  1.0000
  C   C12       1.0  0.33069  0.49254  0.34020  1.0000
  C   C13       1.0  0.68051  0.74561  0.69108  1.0000
  C   C14       1.0  0.31950  0.25440  0.30893  1.0000
  C   C15       1.0  0.17777  0.31741  0.64870  1.0000
  C   C16       1.0  0.82224  0.68260  0.35130  1.0000
  C   C17       1.0  0.67156  0.27546  0.62068  1.0000
  C   C18       1.0  0.32843  0.72453  0.37931  1.0000
  C   C19       1.0  0.28372  0.87813  0.65671  1.0000
  C   C20       1.0  0.71629  0.12186  0.34329  1.0000
  C   C21       1.0  0.17540  0.88551  0.71462  1.0000
  C   C22       1.0  0.82459  0.11447  0.28537  1.0000
  C   C23       1.0  0.23346  0.99225  0.83217  1.0000
  C   C24       1.0  0.76653  0.00774  0.16782  1.0000
  C   C25       1.0  0.40503  0.09105  0.89478  1.0000
  C   C26       1.0  0.59496  0.90895  0.10522  1.0000
  C   C27       1.0  0.48613  0.20631  0.01725  1.0000
  C   C28       1.0  0.51385  0.79369  0.98274  1.0000
  C   C29       1.0  0.65514  0.29433  0.07189  1.0000
  C   C30       1.0  0.34484  0.70567  0.92811  1.0000
  C   C31       1.0  0.75990  0.27258  0.01225  1.0000
  C   C32       1.0  0.24009  0.72743  0.98775  1.0000
  C   C33       1.0  0.93557  0.35304  0.06617  1.0000
  C   C34       1.0  0.06442  0.64697  0.93383  1.0000
  C   C35       1.0  0.02027  0.31214  0.00159  1.0000
  C   C36       1.0  0.97972  0.68787  0.99841  1.0000
  C   C37       1.0  0.93382  0.19674  0.88359  1.0000
  C   C38       1.0  0.06618  0.80327  0.11642  1.0000
  C   C39       1.0  0.68151  0.15929  0.89208  1.0000
  C   C40       1.0  0.31849  0.84072  0.10792  1.0000
  C   C41       1.0  0.50608  0.07315  0.83176  1.0000
  C   C42       1.0  0.49392  0.92685  0.16825  1.0000
  N   N1        1.0  0.44684  0.97130  0.71252  1.0000
  N   N2        1.0  0.55316  0.02871  0.28749  1.0000
  N   N3        1.0  0.76545  0.12185  0.82563  1.0000
  N   N4        1.0  0.23455  0.87815  0.17437  1.0000
  O   O1        1.0  0.82598  0.79998  0.69537  1.0000
  O   O2        1.0  0.17402  0.20001  0.30461  1.0000
  O   O3        1.0  0.59204  0.81006  0.69256  1.0000
  O   O4        1.0  0.40797  0.18993  0.30745  1.0000
  O   O5        1.0  0.10851  0.40372  0.64437  1.0000
  O   O6        1.0  0.89150  0.59628  0.35563  1.0000
  O   O7        1.0  0.10737  0.19353  0.64885  1.0000
  O   O8        1.0  0.89263  0.80647  0.35116  1.0000
  O   O9        1.0  0.57949  0.13986  0.56678  1.0000
  O   O10       1.0  0.42049  0.86014  0.43320  1.0000
  O   O11       1.0  0.82822  0.33814  0.66313  1.0000
  O   O12       1.0  0.17178  0.66186  0.33687  1.0000
  O   O13       1.0  0.79800  0.99421  0.58806  1.0000
  O   O14       1.0  0.20200  0.00580  0.41194  1.0000
