data_image0
_chemical_formula_structural       Sn4H44C40Cl12O8
_chemical_formula_sum              "Sn4 H44 C40 Cl12 O8"
_cell_length_a       9.66725
_cell_length_b       9.6243
_cell_length_c       15.0238
_cell_angle_alpha    106.212
_cell_angle_beta     89.9996
_cell_angle_gamma    90.0004

_space_group_name_H-M_alt    "P 1"
_space_group_IT_number       1

loop_
  _space_group_symop_operation_xyz
  'x, y, z'

loop_
  _atom_site_type_symbol
  _atom_site_label
  _atom_site_symmetry_multiplicity
  _atom_site_fract_x
  _atom_site_fract_y
  _atom_site_fract_z
  _atom_site_occupancy
  Sn  Sn1       1.0  0.72527  0.58178  0.74981  1.0000
  Sn  Sn2       1.0  0.22527  0.41822  0.75020  1.0000
  Sn  Sn3       1.0  0.27474  0.41823  0.25019  1.0000
  Sn  Sn4       1.0  0.77474  0.58177  0.24980  1.0000
  H   H1        1.0  0.33742  0.06606  0.80126  1.0000
  H   H2        1.0  0.83742  0.93394  0.69874  1.0000
  H   H3        1.0  0.66258  0.93394  0.19875  1.0000
  H   H4        1.0  0.16259  0.06606  0.30126  1.0000
  H   H5        1.0  0.24406  0.00935  0.07076  1.0000
  H   H6        1.0  0.74407  0.99065  0.42924  1.0000
  H   H7        1.0  0.75593  0.99065  0.92924  1.0000
  H   H8        1.0  0.25593  0.00934  0.57076  1.0000
  H   H9        1.0  0.47763  0.68306  0.71380  1.0000
  H   H10       1.0  0.97763  0.31693  0.78621  1.0000
  H   H11       1.0  0.52237  0.31694  0.28621  1.0000
  H   H12       1.0  0.02238  0.68307  0.21380  1.0000
  H   H13       1.0  0.60784  0.81208  0.70780  1.0000
  H   H14       1.0  0.10784  0.18792  0.79221  1.0000
  H   H15       1.0  0.39215  0.18793  0.29221  1.0000
  H   H16       1.0  0.89216  0.81208  0.20779  1.0000
  H   H17       1.0  0.54486  0.80386  0.81781  1.0000
  H   H18       1.0  0.04486  0.19613  0.68220  1.0000
  H   H19       1.0  0.45514  0.19614  0.18220  1.0000
  H   H20       1.0  0.95514  0.80386  0.31781  1.0000
  H   H21       1.0  0.79227  0.39867  0.85241  1.0000
  H   H22       1.0  0.29227  0.60132  0.64759  1.0000
  H   H23       1.0  0.20773  0.60133  0.14759  1.0000
  H   H24       1.0  0.70773  0.39868  0.35241  1.0000
  H   H25       1.0  0.64641  0.50499  0.90276  1.0000
  H   H26       1.0  0.14641  0.49500  0.59724  1.0000
  H   H27       1.0  0.35359  0.49501  0.09723  1.0000
  H   H28       1.0  0.85359  0.50499  0.40276  1.0000
  H   H29       1.0  0.81650  0.58208  0.91982  1.0000
  H   H30       1.0  0.31650  0.41791  0.58018  1.0000
  H   H31       1.0  0.18350  0.41792  0.08018  1.0000
  H   H32       1.0  0.68350  0.58209  0.41982  1.0000
  H   H33       1.0  0.87427  0.38097  0.62311  1.0000
  H   H34       1.0  0.37427  0.61903  0.87689  1.0000
  H   H35       1.0  0.12572  0.61903  0.37689  1.0000
  H   H36       1.0  0.62572  0.38097  0.12311  1.0000
  H   H37       1.0  0.90382  0.55631  0.60726  1.0000
  H   H38       1.0  0.40382  0.44369  0.89274  1.0000
  H   H39       1.0  0.09618  0.44368  0.39273  1.0000
  H   H40       1.0  0.59618  0.55632  0.10726  1.0000
  H   H41       1.0  0.74816  0.45956  0.56427  1.0000
  H   H42       1.0  0.24816  0.54044  0.93573  1.0000
  H   H43       1.0  0.25184  0.54044  0.43573  1.0000
  H   H44       1.0  0.75184  0.45956  0.06427  1.0000
  C   C1        1.0  0.00245  0.71931  0.81447  1.0000
  C   C2        1.0  0.50245  0.28069  0.68553  1.0000
  C   C3        1.0  0.99755  0.28070  0.18553  1.0000
  C   C4        1.0  0.49756  0.71931  0.31447  1.0000
  C   C5        1.0  0.10744  0.83336  0.85886  1.0000
  C   C6        1.0  0.60744  0.16664  0.64113  1.0000
  C   C7        1.0  0.89256  0.16665  0.14114  1.0000
  C   C8        1.0  0.39256  0.83336  0.35886  1.0000
  C   C9        1.0  0.18163  0.90675  0.80585  1.0000
  C   C10       1.0  0.68164  0.09325  0.69415  1.0000
  C   C11       1.0  0.81836  0.09325  0.19415  1.0000
  C   C12       1.0  0.31837  0.90676  0.30585  1.0000
  C   C13       1.0  0.28041  0.01198  0.84452  1.0000
  C   C14       1.0  0.78041  0.98802  0.65548  1.0000
  C   C15       1.0  0.71959  0.98802  0.15548  1.0000
  C   C16       1.0  0.21960  0.01198  0.34452  1.0000
  C   C17       1.0  0.30176  0.04653  0.94000  1.0000
  C   C18       1.0  0.80177  0.95347  0.56000  1.0000
  C   C19       1.0  0.69823  0.95347  0.06000  1.0000
  C   C20       1.0  0.19824  0.04653  0.44000  1.0000
  C   C21       1.0  0.22918  0.97813  0.99610  1.0000
  C   C22       1.0  0.72919  0.02187  0.50389  1.0000
  C   C23       1.0  0.77082  0.02187  0.00390  1.0000
  C   C24       1.0  0.27082  0.97813  0.49610  1.0000
  C   C25       1.0  0.13423  0.87061  0.95432  1.0000
  C   C26       1.0  0.63424  0.12939  0.54568  1.0000
  C   C27       1.0  0.86576  0.12940  0.04568  1.0000
  C   C28       1.0  0.36577  0.87060  0.45431  1.0000
  C   C29       1.0  0.57008  0.73983  0.74724  1.0000
  C   C30       1.0  0.07008  0.26017  0.75277  1.0000
  C   C31       1.0  0.42992  0.26018  0.25277  1.0000
  C   C32       1.0  0.92992  0.73983  0.24723  1.0000
  C   C33       1.0  0.74791  0.50752  0.87099  1.0000
  C   C34       1.0  0.24791  0.49247  0.62901  1.0000
  C   C35       1.0  0.25209  0.49248  0.12900  1.0000
  C   C36       1.0  0.75209  0.50753  0.37099  1.0000
  C   C37       1.0  0.82516  0.48210  0.61997  1.0000
  C   C38       1.0  0.32517  0.51790  0.88003  1.0000
  C   C39       1.0  0.17483  0.51790  0.38003  1.0000
  C   C40       1.0  0.67483  0.48210  0.11997  1.0000
  Cl  Cl1       1.0  0.14769  0.86680  0.68848  1.0000
  Cl  Cl2       1.0  0.64769  0.13320  0.81152  1.0000
  Cl  Cl3       1.0  0.85231  0.13320  0.31152  1.0000
  Cl  Cl4       1.0  0.35232  0.86681  0.18848  1.0000
  Cl  Cl5       1.0  0.42039  0.17978  0.99068  1.0000
  Cl  Cl6       1.0  0.92040  0.82022  0.50932  1.0000
  Cl  Cl7       1.0  0.57960  0.82022  0.00932  1.0000
  Cl  Cl8       1.0  0.07961  0.17978  0.49068  1.0000
  Cl  Cl9       1.0  0.04591  0.78295  0.02319  1.0000
  Cl  Cl10      1.0  0.54592  0.21704  0.47680  1.0000
  Cl  Cl11      1.0  0.95408  0.21705  0.97680  1.0000
  Cl  Cl12      1.0  0.45408  0.78295  0.52319  1.0000
  O   O1        1.0  0.88106  0.76457  0.80271  1.0000
  O   O2        1.0  0.38106  0.23543  0.69729  1.0000
  O   O3        1.0  0.11894  0.23544  0.19729  1.0000
  O   O4        1.0  0.61895  0.76457  0.30271  1.0000
  O   O5        1.0  0.03596  0.58762  0.79208  1.0000
  O   O6        1.0  0.53596  0.41237  0.70792  1.0000
  O   O7        1.0  0.96404  0.41238  0.20792  1.0000
  O   O8        1.0  0.46404  0.58763  0.29207  1.0000
