data_image0
_chemical_formula_structural       Co4H20C36N20O24
_chemical_formula_sum              "Co4 H20 C36 N20 O24"
_cell_length_a       9.40722
_cell_length_b       10.6084
_cell_length_c       11.3233
_cell_angle_alpha    91.461
_cell_angle_beta     90
_cell_angle_gamma    89.9998

_space_group_name_H-M_alt    "P 1"
_space_group_IT_number       1

loop_
  _space_group_symop_operation_xyz
  'x, y, z'

loop_
  _atom_site_type_symbol
  _atom_site_label
  _atom_site_symmetry_multiplicity
  _atom_site_fract_x
  _atom_site_fract_y
  _atom_site_fract_z
  _atom_site_occupancy
  Co  Co1       1.0  0.09761  0.39484  0.10183  1.0000
  Co  Co2       1.0  0.59761  0.10516  0.89817  1.0000
  Co  Co3       1.0  0.90239  0.60516  0.89817  1.0000
  Co  Co4       1.0  0.40239  0.89484  0.10183  1.0000
  H   H1        1.0  0.38343  0.33485  0.92993  1.0000
  H   H2        1.0  0.88343  0.16515  0.07007  1.0000
  H   H3        1.0  0.61657  0.66515  0.07007  1.0000
  H   H4        1.0  0.11657  0.83485  0.92992  1.0000
  H   H5        1.0  0.16275  0.10914  0.16931  1.0000
  H   H6        1.0  0.66275  0.39086  0.83069  1.0000
  H   H7        1.0  0.83725  0.89085  0.83069  1.0000
  H   H8        1.0  0.33725  0.60914  0.16931  1.0000
  H   H9        1.0  0.90921  0.12136  0.45780  1.0000
  H   H10       1.0  0.40921  0.37865  0.54220  1.0000
  H   H11       1.0  0.09079  0.87864  0.54220  1.0000
  H   H12       1.0  0.59079  0.62135  0.45780  1.0000
  H   H13       1.0  0.15886  0.46177  0.47613  1.0000
  H   H14       1.0  0.65886  0.03824  0.52387  1.0000
  H   H15       1.0  0.84114  0.53823  0.52387  1.0000
  H   H16       1.0  0.34114  0.96176  0.47613  1.0000
  H   H17       1.0  0.06069  0.26482  0.79487  1.0000
  H   H18       1.0  0.56069  0.23518  0.20513  1.0000
  H   H19       1.0  0.93932  0.73518  0.20513  1.0000
  H   H20       1.0  0.43932  0.76482  0.79487  1.0000
  C   C1        1.0  0.35236  0.25806  0.98568  1.0000
  C   C2        1.0  0.85237  0.24194  0.01433  1.0000
  C   C3        1.0  0.64763  0.74194  0.01432  1.0000
  C   C4        1.0  0.14763  0.75806  0.98568  1.0000
  C   C5        1.0  0.24010  0.14245  0.10646  1.0000
  C   C6        1.0  0.74010  0.35755  0.89354  1.0000
  C   C7        1.0  0.75990  0.85755  0.89354  1.0000
  C   C8        1.0  0.25990  0.64245  0.10646  1.0000
  C   C9        1.0  0.02215  0.29852  0.31968  1.0000
  C   C10       1.0  0.52214  0.20149  0.68032  1.0000
  C   C11       1.0  0.97786  0.70148  0.68032  1.0000
  C   C12       1.0  0.47785  0.79852  0.31968  1.0000
  C   C13       1.0  0.02931  0.29452  0.45248  1.0000
  C   C14       1.0  0.52931  0.20549  0.54752  1.0000
  C   C15       1.0  0.97069  0.70549  0.54752  1.0000
  C   C16       1.0  0.47069  0.79452  0.45248  1.0000
  C   C17       1.0  0.96443  0.19403  0.50917  1.0000
  C   C18       1.0  0.46443  0.30597  0.49083  1.0000
  C   C19       1.0  0.03557  0.80597  0.49083  1.0000
  C   C20       1.0  0.53557  0.69403  0.50917  1.0000
  C   C21       1.0  0.10486  0.38478  0.51908  1.0000
  C   C22       1.0  0.60486  0.11522  0.48092  1.0000
  C   C23       1.0  0.89514  0.61522  0.48092  1.0000
  C   C24       1.0  0.39514  0.88478  0.51908  1.0000
  C   C25       1.0  0.11329  0.37275  0.64137  1.0000
  C   C26       1.0  0.61329  0.12725  0.35863  1.0000
  C   C27       1.0  0.88672  0.62725  0.35863  1.0000
  C   C28       1.0  0.38672  0.87275  0.64137  1.0000
  C   C29       1.0  0.04974  0.27465  0.70011  1.0000
  C   C30       1.0  0.54974  0.22535  0.29989  1.0000
  C   C31       1.0  0.95027  0.72535  0.29989  1.0000
  C   C32       1.0  0.45026  0.77465  0.70011  1.0000
  C   C33       1.0  0.97611  0.18640  0.63113  1.0000
  C   C34       1.0  0.47610  0.31360  0.36887  1.0000
  C   C35       1.0  0.02390  0.81360  0.36887  1.0000
  C   C36       1.0  0.52390  0.68640  0.63113  1.0000
  N   N1        1.0  0.23815  0.25849  0.05859  1.0000
  N   N2        1.0  0.73815  0.24150  0.94141  1.0000
  N   N3        1.0  0.76185  0.74150  0.94141  1.0000
  N   N4        1.0  0.26185  0.75849  0.05859  1.0000
  N   N5        1.0  0.34880  0.07321  0.06547  1.0000
  N   N6        1.0  0.84881  0.42679  0.93453  1.0000
  N   N7        1.0  0.65119  0.92679  0.93453  1.0000
  N   N8        1.0  0.15120  0.57321  0.06547  1.0000
  N   N9        1.0  0.42142  0.14824  0.98795  1.0000
  N   N10       1.0  0.92142  0.35176  0.01205  1.0000
  N   N11       1.0  0.57858  0.85176  0.01205  1.0000
  N   N12       1.0  0.07858  0.64824  0.98795  1.0000
  N   N13       1.0  0.91698  0.07723  0.69022  1.0000
  N   N14       1.0  0.41698  0.42277  0.30977  1.0000
  N   N15       1.0  0.08302  0.92277  0.30978  1.0000
  N   N16       1.0  0.58302  0.57723  0.69022  1.0000
  N   N17       1.0  0.19619  0.46469  0.71132  1.0000
  N   N18       1.0  0.69618  0.03530  0.28868  1.0000
  N   N19       1.0  0.80382  0.53530  0.28868  1.0000
  N   N20       1.0  0.30382  0.96470  0.71132  1.0000
  O   O1        1.0  0.08334  0.39595  0.27315  1.0000
  O   O2        1.0  0.58334  0.10405  0.72685  1.0000
  O   O3        1.0  0.91666  0.60405  0.72685  1.0000
  O   O4        1.0  0.41667  0.89595  0.27315  1.0000
  O   O5        1.0  0.96290  0.21159  0.26257  1.0000
  O   O6        1.0  0.46290  0.28842  0.73743  1.0000
  O   O7        1.0  0.03710  0.78842  0.73743  1.0000
  O   O8        1.0  0.53710  0.71158  0.26257  1.0000
  O   O9        1.0  0.93147  0.07354  0.79902  1.0000
  O   O10       1.0  0.43146  0.42646  0.20097  1.0000
  O   O11       1.0  0.06853  0.92646  0.20098  1.0000
  O   O12       1.0  0.56853  0.57354  0.79902  1.0000
  O   O13       1.0  0.85714  0.99454  0.62898  1.0000
  O   O14       1.0  0.35714  0.50546  0.37102  1.0000
  O   O15       1.0  0.14286  0.00546  0.37102  1.0000
  O   O16       1.0  0.64286  0.49454  0.62898  1.0000
  O   O17       1.0  0.26029  0.54737  0.65686  1.0000
  O   O18       1.0  0.76028  0.95262  0.34314  1.0000
  O   O19       1.0  0.73972  0.45263  0.34314  1.0000
  O   O20       1.0  0.23972  0.04737  0.65686  1.0000
  O   O21       1.0  0.19770  0.45521  0.82004  1.0000
  O   O22       1.0  0.69769  0.04478  0.17996  1.0000
  O   O23       1.0  0.80230  0.54478  0.17996  1.0000
  O   O24       1.0  0.30230  0.95521  0.82003  1.0000
