data_image0
_chemical_formula_structural       Ca4H44C48N4O20
_chemical_formula_sum              "Ca4 H44 C48 N4 O20"
_cell_length_a       6.82759
_cell_length_b       10.344
_cell_length_c       17.8793
_cell_angle_alpha    89.9999
_cell_angle_beta     90.0001
_cell_angle_gamma    90.0004

_space_group_name_H-M_alt    "P 1"
_space_group_IT_number       1

loop_
  _space_group_symop_operation_xyz
  'x, y, z'

loop_
  _atom_site_type_symbol
  _atom_site_label
  _atom_site_symmetry_multiplicity
  _atom_site_fract_x
  _atom_site_fract_y
  _atom_site_fract_z
  _atom_site_occupancy
  Ca  Ca1       1.0  0.50060  0.25830  0.02511  1.0000
  Ca  Ca2       1.0  0.99940  0.74170  0.52511  1.0000
  Ca  Ca3       1.0  0.49940  0.75830  0.47489  1.0000
  Ca  Ca4       1.0  0.00060  0.24170  0.97489  1.0000
  H   H1        1.0  0.40592  0.53473  0.11867  1.0000
  H   H2        1.0  0.09408  0.46527  0.61867  1.0000
  H   H3        1.0  0.59409  0.03473  0.38133  1.0000
  H   H4        1.0  0.90592  0.96527  0.88133  1.0000
  H   H5        1.0  0.60310  0.50783  0.24842  1.0000
  H   H6        1.0  0.89689  0.49217  0.74841  1.0000
  H   H7        1.0  0.39689  0.00783  0.25158  1.0000
  H   H8        1.0  0.10311  0.99217  0.75159  1.0000
  H   H9        1.0  0.12232  0.54078  0.38284  1.0000
  H   H10       1.0  0.37768  0.45923  0.88284  1.0000
  H   H11       1.0  0.87767  0.04078  0.11716  1.0000
  H   H12       1.0  0.62232  0.95922  0.61716  1.0000
  H   H13       1.0  0.30910  0.41594  0.28756  1.0000
  H   H14       1.0  0.19090  0.58407  0.78756  1.0000
  H   H15       1.0  0.69090  0.91593  0.21244  1.0000
  H   H16       1.0  0.80910  0.08408  0.71244  1.0000
  H   H17       1.0  0.13914  0.33111  0.17407  1.0000
  H   H18       1.0  0.36086  0.66891  0.67406  1.0000
  H   H19       1.0  0.86086  0.83109  0.32593  1.0000
  H   H20       1.0  0.63914  0.16891  0.82593  1.0000
  H   H21       1.0  0.87368  0.54895  0.02958  1.0000
  H   H22       1.0  0.62633  0.45104  0.52958  1.0000
  H   H23       1.0  0.12634  0.04895  0.47042  1.0000
  H   H24       1.0  0.37367  0.95104  0.97043  1.0000
  H   H25       1.0  0.01808  0.62068  0.95954  1.0000
  H   H26       1.0  0.48192  0.37932  0.45954  1.0000
  H   H27       1.0  0.98193  0.12068  0.54045  1.0000
  H   H28       1.0  0.51808  0.87932  0.04046  1.0000
  H   H29       1.0  0.06100  0.81129  0.03305  1.0000
  H   H30       1.0  0.43900  0.18870  0.53305  1.0000
  H   H31       1.0  0.93903  0.31129  0.46695  1.0000
  H   H32       1.0  0.56100  0.68871  0.96695  1.0000
  H   H33       1.0  0.89372  0.74811  0.09864  1.0000
  H   H34       1.0  0.60628  0.25189  0.59864  1.0000
  H   H35       1.0  0.10630  0.24810  0.40135  1.0000
  H   H36       1.0  0.39372  0.75189  0.90136  1.0000
  H   H37       1.0  0.30803  0.77846  0.12325  1.0000
  H   H38       1.0  0.19197  0.22154  0.62325  1.0000
  H   H39       1.0  0.69199  0.27846  0.37675  1.0000
  H   H40       1.0  0.80802  0.72154  0.87675  1.0000
  H   H41       1.0  0.14840  0.68721  0.18085  1.0000
  H   H42       1.0  0.35160  0.31279  0.68085  1.0000
  H   H43       1.0  0.85161  0.18721  0.31915  1.0000
  H   H44       1.0  0.64840  0.81279  0.81915  1.0000
  C   C1        1.0  0.75571  0.37038  0.13469  1.0000
  C   C2        1.0  0.74428  0.62962  0.63468  1.0000
  C   C3        1.0  0.24429  0.87037  0.36532  1.0000
  C   C4        1.0  0.25571  0.12963  0.86532  1.0000
  C   C5        1.0  0.72667  0.59699  0.37968  1.0000
  C   C6        1.0  0.77332  0.40301  0.87968  1.0000
  C   C7        1.0  0.27332  0.09699  0.12032  1.0000
  C   C8        1.0  0.22667  0.90301  0.62033  1.0000
  C   C9        1.0  0.86068  0.41571  0.20328  1.0000
  C   C10       1.0  0.63931  0.58430  0.70327  1.0000
  C   C11       1.0  0.13931  0.91570  0.29672  1.0000
  C   C12       1.0  0.36069  0.08430  0.79672  1.0000
  C   C13       1.0  0.75749  0.48630  0.25690  1.0000
  C   C14       1.0  0.74250  0.51370  0.75689  1.0000
  C   C15       1.0  0.24250  0.98630  0.24310  1.0000
  C   C16       1.0  0.25749  0.01370  0.74310  1.0000
  C   C17       1.0  0.84879  0.52850  0.32245  1.0000
  C   C18       1.0  0.65120  0.47149  0.82244  1.0000
  C   C19       1.0  0.15120  0.02850  0.17756  1.0000
  C   C20       1.0  0.34880  0.97150  0.67756  1.0000
  C   C21       1.0  0.04902  0.50431  0.33302  1.0000
  C   C22       1.0  0.45098  0.49569  0.83302  1.0000
  C   C23       1.0  0.95097  0.00431  0.16698  1.0000
  C   C24       1.0  0.54902  0.99569  0.66698  1.0000
  C   C25       1.0  0.15334  0.43430  0.27930  1.0000
  C   C26       1.0  0.34666  0.56571  0.77930  1.0000
  C   C27       1.0  0.84666  0.93428  0.22070  1.0000
  C   C28       1.0  0.65334  0.06572  0.72070  1.0000
  C   C29       1.0  0.05945  0.38794  0.21533  1.0000
  C   C30       1.0  0.44055  0.61207  0.71532  1.0000
  C   C31       1.0  0.94055  0.88793  0.28468  1.0000
  C   C32       1.0  0.55945  0.11207  0.78468  1.0000
  C   C33       1.0  0.18235  0.52078  0.04269  1.0000
  C   C34       1.0  0.31766  0.47921  0.54269  1.0000
  C   C35       1.0  0.81767  0.02078  0.45731  1.0000
  C   C36       1.0  0.68234  0.97921  0.95731  1.0000
  C   C37       1.0  0.00973  0.60336  0.02011  1.0000
  C   C38       1.0  0.49027  0.39664  0.52011  1.0000
  C   C39       1.0  0.99028  0.10336  0.47989  1.0000
  C   C40       1.0  0.50973  0.89664  0.97989  1.0000
  C   C41       1.0  0.02841  0.72666  0.06782  1.0000
  C   C42       1.0  0.47159  0.27334  0.56782  1.0000
  C   C43       1.0  0.97161  0.22665  0.43217  1.0000
  C   C44       1.0  0.52840  0.77334  0.93218  1.0000
  C   C45       1.0  0.19932  0.70027  0.12295  1.0000
  C   C46       1.0  0.30068  0.29972  0.62295  1.0000
  C   C47       1.0  0.80069  0.20027  0.37705  1.0000
  C   C48       1.0  0.69932  0.79973  0.87705  1.0000
  N   N1        1.0  0.28584  0.58059  0.09544  1.0000
  N   N2        1.0  0.21416  0.41941  0.59544  1.0000
  N   N3        1.0  0.71416  0.08059  0.40456  1.0000
  N   N4        1.0  0.78583  0.91941  0.90456  1.0000
  O   O1        1.0  0.58125  0.41053  0.12294  1.0000
  O   O2        1.0  0.91874  0.58947  0.62293  1.0000
  O   O3        1.0  0.41875  0.91052  0.37706  1.0000
  O   O4        1.0  0.08126  0.08947  0.87707  1.0000
  O   O5        1.0  0.84073  0.29240  0.09019  1.0000
  O   O6        1.0  0.65927  0.70762  0.59019  1.0000
  O   O7        1.0  0.15926  0.79239  0.40981  1.0000
  O   O8        1.0  0.34073  0.20762  0.90981  1.0000
  O   O9        1.0  0.55031  0.62452  0.36435  1.0000
  O   O10       1.0  0.94968  0.37548  0.86435  1.0000
  O   O11       1.0  0.44968  0.12452  0.13565  1.0000
  O   O12       1.0  0.05032  0.87547  0.63566  1.0000
  O   O13       1.0  0.80303  0.62485  0.44350  1.0000
  O   O14       1.0  0.69696  0.37516  0.94350  1.0000
  O   O15       1.0  0.19695  0.12484  0.05650  1.0000
  O   O16       1.0  0.30304  0.87515  0.55650  1.0000
  O   O17       1.0  0.22289  0.41106  0.01571  1.0000
  O   O18       1.0  0.27711  0.58895  0.51571  1.0000
  O   O19       1.0  0.77712  0.91105  0.48429  1.0000
  O   O20       1.0  0.72289  0.08895  0.98429  1.0000
