data_image0
_chemical_formula_structural       La2H14C14N4O16
_chemical_formula_sum              "La2 H14 C14 N4 O16"
_cell_length_a       7.99605
_cell_length_b       8.7404
_cell_length_c       8.74461
_cell_angle_alpha    115.377
_cell_angle_beta     100.174
_cell_angle_gamma    96.6448

_space_group_name_H-M_alt    "P 1"
_space_group_IT_number       1

loop_
  _space_group_symop_operation_xyz
  'x, y, z'

loop_
  _atom_site_type_symbol
  _atom_site_label
  _atom_site_symmetry_multiplicity
  _atom_site_fract_x
  _atom_site_fract_y
  _atom_site_fract_z
  _atom_site_occupancy
  La  La1       1.0  0.33947  0.08165  0.32226  1.0000
  La  La2       1.0  0.66053  0.91835  0.67774  1.0000
  H   H1        1.0  0.32693  0.42681  0.03994  1.0000
  H   H2        1.0  0.67306  0.57319  0.96006  1.0000
  H   H3        1.0  0.97610  0.58853  0.76026  1.0000
  H   H4        1.0  0.02390  0.41147  0.23974  1.0000
  H   H5        1.0  0.01022  0.35378  0.47634  1.0000
  H   H6        1.0  0.98978  0.64622  0.52366  1.0000
  H   H7        1.0  0.17802  0.68565  0.12260  1.0000
  H   H8        1.0  0.82198  0.31435  0.87739  1.0000
  H   H9        1.0  0.52377  0.21267  0.10595  1.0000
  H   H10       1.0  0.47623  0.78733  0.89405  1.0000
  H   H11       1.0  0.27704  0.72529  0.31493  1.0000
  H   H12       1.0  0.72296  0.27471  0.68507  1.0000
  H   H13       1.0  0.66174  0.12767  0.16193  1.0000
  H   H14       1.0  0.33826  0.87234  0.83807  1.0000
  C   C1        1.0  0.27358  0.28370  0.75763  1.0000
  C   C2        1.0  0.72642  0.71630  0.24237  1.0000
  C   C3        1.0  0.25642  0.41275  0.91423  1.0000
  C   C4        1.0  0.74358  0.58725  0.08577  1.0000
  C   C5        1.0  0.06478  0.50251  0.76024  1.0000
  C   C6        1.0  0.93522  0.49749  0.23975  1.0000
  C   C7        1.0  0.08262  0.37312  0.60330  1.0000
  C   C8        1.0  0.91738  0.62687  0.39670  1.0000
  C   C9        1.0  0.57163  0.49355  0.56963  1.0000
  C   C10       1.0  0.42837  0.50645  0.43037  1.0000
  C   C11       1.0  0.94380  0.02759  0.06740  1.0000
  C   C12       1.0  0.05620  0.97241  0.93260  1.0000
  C   C13       1.0  0.39112  0.16133  0.75299  1.0000
  C   C14       1.0  0.60888  0.83867  0.24700  1.0000
  N   N1        1.0  0.15432  0.52416  0.91518  1.0000
  N   N2        1.0  0.84568  0.47583  0.08482  1.0000
  N   N3        1.0  0.18982  0.26681  0.60198  1.0000
  N   N4        1.0  0.81018  0.73319  0.39802  1.0000
  O   O1        1.0  0.38924  0.04144  0.60157  1.0000
  O   O2        1.0  0.61075  0.95855  0.39843  1.0000
  O   O3        1.0  0.48984  0.18076  0.89172  1.0000
  O   O4        1.0  0.51016  0.81923  0.10828  1.0000
  O   O5        1.0  0.55747  0.34907  0.57373  1.0000
  O   O6        1.0  0.44252  0.65093  0.42627  1.0000
  O   O7        1.0  0.30985  0.37307  0.33153  1.0000
  O   O8        1.0  0.69015  0.62694  0.66847  1.0000
  O   O9        1.0  0.01541  0.06824  0.22397  1.0000
  O   O10       1.0  0.98459  0.93176  0.77603  1.0000
  O   O11       1.0  0.21324  0.97234  0.99240  1.0000
  O   O12       1.0  0.78676  0.02767  0.00760  1.0000
  O   O13       1.0  0.20605  0.77438  0.24987  1.0000
  O   O14       1.0  0.79395  0.22562  0.75013  1.0000
  O   O15       1.0  0.57683  0.19810  0.20873  1.0000
  O   O16       1.0  0.42317  0.80190  0.79127  1.0000
