data_image0
_chemical_formula_structural       Cu2Hg4H56C24N16Cl12O8
_chemical_formula_sum              "Cu2 Hg4 H56 C24 N16 Cl12 O8"
_cell_length_a       8.91484
_cell_length_b       10.1956
_cell_length_c       14.7864
_cell_angle_alpha    97.8782
_cell_angle_beta     89.9999
_cell_angle_gamma    90

_space_group_name_H-M_alt    "P 1"
_space_group_IT_number       1

loop_
  _space_group_symop_operation_xyz
  'x, y, z'

loop_
  _atom_site_type_symbol
  _atom_site_label
  _atom_site_symmetry_multiplicity
  _atom_site_fract_x
  _atom_site_fract_y
  _atom_site_fract_z
  _atom_site_occupancy
  Cu  Cu1       1.0  0.62243  0.50923  0.74442  1.0000
  Cu  Cu2       1.0  0.12243  0.49076  0.25557  1.0000
  Hg  Hg1       1.0  0.06586  0.36447  0.65312  1.0000
  Hg  Hg2       1.0  0.56585  0.63553  0.34688  1.0000
  Hg  Hg3       1.0  0.17734  0.64075  0.85065  1.0000
  Hg  Hg4       1.0  0.67734  0.35925  0.14935  1.0000
  H   H1        1.0  0.60950  0.43171  0.89992  1.0000
  H   H2        1.0  0.10950  0.56829  0.10008  1.0000
  H   H3        1.0  0.44296  0.41832  0.85092  1.0000
  H   H4        1.0  0.94295  0.58168  0.14908  1.0000
  H   H5        1.0  0.69974  0.24095  0.83269  1.0000
  H   H6        1.0  0.19974  0.75905  0.16731  1.0000
  H   H7        1.0  0.53647  0.91660  0.92078  1.0000
  H   H8        1.0  0.03647  0.08340  0.07922  1.0000
  H   H9        1.0  0.51261  0.06411  0.81367  1.0000
  H   H10       1.0  0.01260  0.93590  0.18633  1.0000
  H   H11       1.0  0.36347  0.17941  0.81942  1.0000
  H   H12       1.0  0.86347  0.82059  0.18058  1.0000
  H   H13       1.0  0.54977  0.68243  0.06776  1.0000
  H   H14       1.0  0.04977  0.31757  0.93224  1.0000
  H   H15       1.0  0.59573  0.72185  0.96123  1.0000
  H   H16       1.0  0.09573  0.27815  0.03877  1.0000
  H   H17       1.0  0.59546  0.17318  0.97341  1.0000
  H   H18       1.0  0.09546  0.82682  0.02659  1.0000
  H   H19       1.0  0.43125  0.27122  0.97752  1.0000
  H   H20       1.0  0.93124  0.72878  0.02248  1.0000
  H   H21       1.0  0.34407  0.97410  0.13782  1.0000
  H   H22       1.0  0.84407  0.02590  0.86218  1.0000
  H   H23       1.0  0.44809  0.84943  0.17552  1.0000
  H   H24       1.0  0.94809  0.15057  0.82449  1.0000
  H   H25       1.0  0.36373  0.09983  0.05726  1.0000
  H   H26       1.0  0.86373  0.90017  0.94275  1.0000
  H   H27       1.0  0.28061  0.05324  0.94910  1.0000
  H   H28       1.0  0.78060  0.94676  0.05090  1.0000
  H   H29       1.0  0.76554  0.57056  0.60707  1.0000
  H   H30       1.0  0.26554  0.42944  0.39293  1.0000
  H   H31       1.0  0.59959  0.64351  0.61531  1.0000
  H   H32       1.0  0.09959  0.35649  0.38469  1.0000
  H   H33       1.0  0.87712  0.71009  0.71949  1.0000
  H   H34       1.0  0.37712  0.28990  0.28051  1.0000
  H   H35       1.0  0.72240  0.08558  0.57015  1.0000
  H   H36       1.0  0.22240  0.91442  0.42985  1.0000
  H   H37       1.0  0.66739  0.91534  0.65841  1.0000
  H   H38       1.0  0.16739  0.08465  0.34159  1.0000
  H   H39       1.0  0.85819  0.92729  0.68698  1.0000
  H   H40       1.0  0.35819  0.07271  0.31302  1.0000
  H   H41       1.0  0.91921  0.02810  0.35624  1.0000
  H   H42       1.0  0.41921  0.97190  0.64376  1.0000
  H   H43       1.0  0.83086  0.16049  0.31899  1.0000
  H   H44       1.0  0.33087  0.83951  0.68101  1.0000
  H   H45       1.0  0.71815  0.79366  0.50889  1.0000
  H   H46       1.0  0.21815  0.20635  0.49111  1.0000
  H   H47       1.0  0.89957  0.74832  0.54138  1.0000
  H   H48       1.0  0.39957  0.25168  0.45862  1.0000
  H   H49       1.0  0.66309  0.28223  0.52804  1.0000
  H   H50       1.0  0.16309  0.71777  0.47196  1.0000
  H   H51       1.0  0.71183  0.31857  0.42094  1.0000
  H   H52       1.0  0.21183  0.68143  0.57906  1.0000
  H   H53       1.0  0.99018  0.97541  0.55213  1.0000
  H   H54       1.0  0.49018  0.02459  0.44787  1.0000
  H   H55       1.0  0.92375  0.91106  0.44221  1.0000
  H   H56       1.0  0.42375  0.08894  0.55779  1.0000
  C   C1        1.0  0.60090  0.23724  0.70380  1.0000
  C   C2        1.0  0.10090  0.76276  0.29620  1.0000
  C   C3        1.0  0.58620  0.26027  0.80773  1.0000
  C   C4        1.0  0.08621  0.73973  0.19227  1.0000
  C   C5        1.0  0.47797  0.16390  0.84401  1.0000
  C   C6        1.0  0.97797  0.83610  0.15600  1.0000
  C   C7        1.0  0.47929  0.17531  0.94808  1.0000
  C   C8        1.0  0.97929  0.82469  0.05192  1.0000
  C   C9        1.0  0.38853  0.06749  0.98527  1.0000
  C   C10       1.0  0.88853  0.93251  0.01474  1.0000
  C   C11       1.0  0.47683  0.86266  0.04184  1.0000
  C   C12       1.0  0.97683  0.13734  0.95816  1.0000
  C   C13       1.0  0.68297  0.77519  0.79412  1.0000
  C   C14       1.0  0.18297  0.22480  0.20587  1.0000
  C   C15       1.0  0.76295  0.74064  0.70246  1.0000
  C   C16       1.0  0.26295  0.25936  0.29754  1.0000
  C   C17       1.0  0.77339  0.86085  0.65124  1.0000
  C   C18       1.0  0.27339  0.13915  0.34876  1.0000
  C   C19       1.0  0.81639  0.82868  0.55062  1.0000
  C   C20       1.0  0.31639  0.17133  0.44937  1.0000
  C   C21       1.0  0.88844  0.94495  0.51234  1.0000
  C   C22       1.0  0.38844  0.05505  0.48766  1.0000
  C   C23       1.0  0.78687  0.14072  0.45018  1.0000
  C   C24       1.0  0.28687  0.85928  0.54982  1.0000
  N   N1        1.0  0.55529  0.40159  0.83919  1.0000
  N   N2        1.0  0.05529  0.59841  0.16080  1.0000
  N   N3        1.0  0.46823  0.94148  0.97715  1.0000
  N   N4        1.0  0.96823  0.05853  0.02285  1.0000
  N   N5        1.0  0.56533  0.75446  0.02738  1.0000
  N   N6        1.0  0.06533  0.24554  0.97262  1.0000
  N   N7        1.0  0.40119  0.88694  0.12135  1.0000
  N   N8        1.0  0.90120  0.11306  0.87865  1.0000
  N   N9        1.0  0.69123  0.62123  0.65245  1.0000
  N   N10       1.0  0.19123  0.37877  0.34755  1.0000
  N   N11       1.0  0.79020  0.05960  0.51366  1.0000
  N   N12       1.0  0.29020  0.94039  0.48634  1.0000
  N   N13       1.0  0.87039  0.11865  0.37319  1.0000
  N   N14       1.0  0.37039  0.88135  0.62681  1.0000
  N   N15       1.0  0.69745  0.24806  0.46281  1.0000
  N   N16       1.0  0.19745  0.75194  0.53718  1.0000
  Cl  Cl1       1.0  0.97542  0.47501  0.52959  1.0000
  Cl  Cl2       1.0  0.47541  0.52499  0.47041  1.0000
  Cl  Cl3       1.0  0.11776  0.15192  0.69906  1.0000
  Cl  Cl4       1.0  0.61776  0.84808  0.30093  1.0000
  Cl  Cl5       1.0  0.93495  0.47844  0.80888  1.0000
  Cl  Cl6       1.0  0.43495  0.52156  0.19112  1.0000
  Cl  Cl7       1.0  0.30794  0.52792  0.69298  1.0000
  Cl  Cl8       1.0  0.80794  0.47208  0.30702  1.0000
  Cl  Cl9       1.0  0.13492  0.85338  0.80348  1.0000
  Cl  Cl10      1.0  0.63493  0.14662  0.19653  1.0000
  Cl  Cl11      1.0  0.26735  0.52467  0.97176  1.0000
  Cl  Cl12      1.0  0.76735  0.47534  0.02824  1.0000
  O   O1        1.0  0.63307  0.33799  0.66299  1.0000
  O   O2        1.0  0.13308  0.66201  0.33701  1.0000
  O   O3        1.0  0.58998  0.12199  0.66200  1.0000
  O   O4        1.0  0.08998  0.87800  0.33800  1.0000
  O   O5        1.0  0.61310  0.68064  0.82655  1.0000
  O   O6        1.0  0.11309  0.31935  0.17344  1.0000
  O   O7        1.0  0.68728  0.89114  0.83562  1.0000
  O   O8        1.0  0.18728  0.10885  0.16438  1.0000
