data_image0
_chemical_formula_structural       La4H64C32Cl12O8
_chemical_formula_sum              "La4 H64 C32 Cl12 O8"
_cell_length_a       8.152
_cell_length_b       10.4396
_cell_length_c       14.721
_cell_angle_alpha    90
_cell_angle_beta     90
_cell_angle_gamma    93.6862

_space_group_name_H-M_alt    "P 1"
_space_group_IT_number       1

loop_
  _space_group_symop_operation_xyz
  'x, y, z'

loop_
  _atom_site_type_symbol
  _atom_site_label
  _atom_site_symmetry_multiplicity
  _atom_site_fract_x
  _atom_site_fract_y
  _atom_site_fract_z
  _atom_site_occupancy
  La  La1       1.0  0.73304  0.23418  0.27666  1.0000
  La  La2       1.0  0.76696  0.76582  0.77666  1.0000
  La  La3       1.0  0.26696  0.76582  0.72334  1.0000
  La  La4       1.0  0.23304  0.23418  0.22334  1.0000
  H   H1        1.0  0.91114  0.93482  0.23517  1.0000
  H   H2        1.0  0.58886  0.06519  0.73518  1.0000
  H   H3        1.0  0.08886  0.06519  0.76483  1.0000
  H   H4        1.0  0.41114  0.93482  0.26483  1.0000
  H   H5        1.0  0.71780  0.89080  0.18200  1.0000
  H   H6        1.0  0.78220  0.10920  0.68200  1.0000
  H   H7        1.0  0.28220  0.10920  0.81800  1.0000
  H   H8        1.0  0.21780  0.89080  0.31800  1.0000
  H   H9        1.0  0.87472  0.71072  0.28280  1.0000
  H   H10       1.0  0.62529  0.28928  0.78280  1.0000
  H   H11       1.0  0.12529  0.28928  0.71720  1.0000
  H   H12       1.0  0.37472  0.71072  0.21720  1.0000
  H   H13       1.0  0.65871  0.71847  0.29336  1.0000
  H   H14       1.0  0.84129  0.28153  0.79336  1.0000
  H   H15       1.0  0.34129  0.28153  0.70664  1.0000
  H   H16       1.0  0.15872  0.71847  0.20664  1.0000
  H   H17       1.0  0.92352  0.85744  0.41345  1.0000
  H   H18       1.0  0.57648  0.14256  0.91345  1.0000
  H   H19       1.0  0.07648  0.14256  0.58655  1.0000
  H   H20       1.0  0.42352  0.85744  0.08655  1.0000
  H   H21       1.0  0.75346  0.75717  0.45224  1.0000
  H   H22       1.0  0.74654  0.24283  0.95224  1.0000
  H   H23       1.0  0.24654  0.24283  0.54776  1.0000
  H   H24       1.0  0.25346  0.75717  0.04776  1.0000
  H   H25       1.0  0.73469  0.01710  0.44330  1.0000
  H   H26       1.0  0.76531  0.98290  0.94330  1.0000
  H   H27       1.0  0.26531  0.98290  0.55670  1.0000
  H   H28       1.0  0.23469  0.01710  0.05670  1.0000
  H   H29       1.0  0.56012  0.91500  0.41138  1.0000
  H   H30       1.0  0.93988  0.08500  0.91139  1.0000
  H   H31       1.0  0.43988  0.08500  0.58862  1.0000
  H   H32       1.0  0.06012  0.91500  0.08862  1.0000
  H   H33       1.0  0.88595  0.25244  0.52289  1.0000
  H   H34       1.0  0.61405  0.74756  0.02289  1.0000
  H   H35       1.0  0.11405  0.74756  0.47711  1.0000
  H   H36       1.0  0.38595  0.25244  0.97711  1.0000
  H   H37       1.0  0.67121  0.20367  0.51642  1.0000
  H   H38       1.0  0.82879  0.79632  0.01642  1.0000
  H   H39       1.0  0.32879  0.79632  0.48359  1.0000
  H   H40       1.0  0.17121  0.20368  0.98358  1.0000
  H   H41       1.0  0.79390  0.37632  0.65053  1.0000
  H   H42       1.0  0.70610  0.62368  0.15053  1.0000
  H   H43       1.0  0.20610  0.62368  0.34947  1.0000
  H   H44       1.0  0.29390  0.37632  0.84947  1.0000
  H   H45       1.0  0.59336  0.38161  0.60480  1.0000
  H   H46       1.0  0.90664  0.61839  0.10480  1.0000
  H   H47       1.0  0.40664  0.61839  0.39520  1.0000
  H   H48       1.0  0.09336  0.38161  0.89520  1.0000
  H   H49       1.0  0.90624  0.53839  0.54744  1.0000
  H   H50       1.0  0.59376  0.46160  0.04744  1.0000
  H   H51       1.0  0.09376  0.46161  0.45256  1.0000
  H   H52       1.0  0.40624  0.53839  0.95256  1.0000
  H   H53       1.0  0.70909  0.59478  0.56760  1.0000
  H   H54       1.0  0.79092  0.40522  0.06760  1.0000
  H   H55       1.0  0.29091  0.40522  0.43241  1.0000
  H   H56       1.0  0.20909  0.59478  0.93240  1.0000
  H   H57       1.0  0.80461  0.53884  0.39153  1.0000
  H   H58       1.0  0.69539  0.46116  0.89153  1.0000
  H   H59       1.0  0.19539  0.46116  0.60847  1.0000
  H   H60       1.0  0.30461  0.53884  0.10847  1.0000
  H   H61       1.0  0.59778  0.50107  0.42784  1.0000
  H   H62       1.0  0.90223  0.49893  0.92784  1.0000
  H   H63       1.0  0.40222  0.49893  0.57216  1.0000
  H   H64       1.0  0.09777  0.50108  0.07216  1.0000
  C   C1        1.0  0.78398  0.89681  0.24697  1.0000
  C   C2        1.0  0.71602  0.10319  0.74697  1.0000
  C   C3        1.0  0.21602  0.10319  0.75303  1.0000
  C   C4        1.0  0.28398  0.89681  0.25303  1.0000
  C   C5        1.0  0.77744  0.77342  0.30218  1.0000
  C   C6        1.0  0.72256  0.22658  0.80218  1.0000
  C   C7        1.0  0.22256  0.22658  0.69782  1.0000
  C   C8        1.0  0.27744  0.77342  0.19782  1.0000
  C   C9        1.0  0.79513  0.82531  0.39924  1.0000
  C   C10       1.0  0.70487  0.17469  0.89924  1.0000
  C   C11       1.0  0.20488  0.17469  0.60076  1.0000
  C   C12       1.0  0.29513  0.82531  0.10076  1.0000
  C   C13       1.0  0.69048  0.94028  0.39692  1.0000
  C   C14       1.0  0.80952  0.05972  0.89692  1.0000
  C   C15       1.0  0.30952  0.05972  0.60308  1.0000
  C   C16       1.0  0.19048  0.94028  0.10308  1.0000
  C   C17       1.0  0.76162  0.28652  0.51683  1.0000
  C   C18       1.0  0.73838  0.71348  0.01683  1.0000
  C   C19       1.0  0.23838  0.71348  0.48317  1.0000
  C   C20       1.0  0.26162  0.28652  0.98317  1.0000
  C   C21       1.0  0.72467  0.38707  0.58758  1.0000
  C   C22       1.0  0.77532  0.61293  0.08758  1.0000
  C   C23       1.0  0.27532  0.61293  0.41242  1.0000
  C   C24       1.0  0.22467  0.38707  0.91242  1.0000
  C   C25       1.0  0.77388  0.51434  0.54007  1.0000
  C   C26       1.0  0.72612  0.48566  0.04007  1.0000
  C   C27       1.0  0.22612  0.48566  0.45993  1.0000
  C   C28       1.0  0.27388  0.51434  0.95993  1.0000
  C   C29       1.0  0.72766  0.48614  0.44189  1.0000
  C   C30       1.0  0.77234  0.51386  0.94189  1.0000
  C   C31       1.0  0.27234  0.51386  0.55811  1.0000
  C   C32       1.0  0.22765  0.48614  0.05811  1.0000
  Cl  Cl1       1.0  0.93266  0.16807  0.12443  1.0000
  Cl  Cl2       1.0  0.56734  0.83193  0.62443  1.0000
  Cl  Cl3       1.0  0.06734  0.83193  0.87557  1.0000
  Cl  Cl4       1.0  0.43266  0.16807  0.37557  1.0000
  Cl  Cl5       1.0  0.00098  0.43422  0.25376  1.0000
  Cl  Cl6       1.0  0.49903  0.56578  0.75377  1.0000
  Cl  Cl7       1.0  0.99902  0.56578  0.74623  1.0000
  Cl  Cl8       1.0  0.50098  0.43422  0.24623  1.0000
  Cl  Cl9       1.0  0.01828  0.14508  0.36622  1.0000
  Cl  Cl10      1.0  0.48172  0.85491  0.86623  1.0000
  Cl  Cl11      1.0  0.98172  0.85491  0.63377  1.0000
  Cl  Cl12      1.0  0.51828  0.14508  0.13378  1.0000
  O   O1        1.0  0.70203  0.98889  0.30349  1.0000
  O   O2        1.0  0.79797  0.01111  0.80349  1.0000
  O   O3        1.0  0.29797  0.01111  0.69651  1.0000
  O   O4        1.0  0.20203  0.98889  0.19651  1.0000
  O   O5        1.0  0.75297  0.35031  0.42880  1.0000
  O   O6        1.0  0.74703  0.64969  0.92880  1.0000
  O   O7        1.0  0.24703  0.64969  0.57121  1.0000
  O   O8        1.0  0.25297  0.35031  0.07120  1.0000
