data_image0
_chemical_formula_structural       Cd4H40C60O24
_chemical_formula_sum              "Cd4 H40 C60 O24"
_cell_length_a       7.03125
_cell_length_b       12.4299
_cell_length_c       15.5295
_cell_angle_alpha    89.9998
_cell_angle_beta     103.071
_cell_angle_gamma    90.0004

_space_group_name_H-M_alt    "P 1"
_space_group_IT_number       1

loop_
  _space_group_symop_operation_xyz
  'x, y, z'

loop_
  _atom_site_type_symbol
  _atom_site_label
  _atom_site_symmetry_multiplicity
  _atom_site_fract_x
  _atom_site_fract_y
  _atom_site_fract_z
  _atom_site_occupancy
  Cd  Cd1       1.0  0.48388  0.19301  0.79970  1.0000
  Cd  Cd2       1.0  0.68476  0.80727  0.20027  1.0000
  Cd  Cd3       1.0  0.18475  0.69273  0.20027  1.0000
  Cd  Cd4       1.0  0.98388  0.30699  0.79969  1.0000
  H   H1        1.0  0.79680  0.12700  0.11009  1.0000
  H   H2        1.0  0.68808  0.87279  0.88994  1.0000
  H   H3        1.0  0.18807  0.62722  0.88993  1.0000
  H   H4        1.0  0.29679  0.37301  0.11009  1.0000
  H   H5        1.0  0.08061  0.11289  0.23643  1.0000
  H   H6        1.0  0.84563  0.88701  0.76359  1.0000
  H   H7        1.0  0.34564  0.61299  0.76359  1.0000
  H   H8        1.0  0.58061  0.38711  0.23643  1.0000
  H   H9        1.0  0.46737  0.10972  0.05614  1.0000
  H   H10       1.0  0.41247  0.89051  0.94383  1.0000
  H   H11       1.0  0.91247  0.60949  0.94383  1.0000
  H   H12       1.0  0.96736  0.39027  0.05614  1.0000
  H   H13       1.0  0.18265  0.12882  0.93054  1.0000
  H   H14       1.0  0.25354  0.87112  0.06945  1.0000
  H   H15       1.0  0.75354  0.62888  0.06945  1.0000
  H   H16       1.0  0.68264  0.37117  0.93054  1.0000
  H   H17       1.0  0.51847  0.25170  0.35382  1.0000
  H   H18       1.0  0.16746  0.74855  0.64609  1.0000
  H   H19       1.0  0.66745  0.75144  0.64610  1.0000
  H   H20       1.0  0.01847  0.24831  0.35381  1.0000
  H   H21       1.0  0.44610  0.24536  0.50361  1.0000
  H   H22       1.0  0.94478  0.75451  0.49637  1.0000
  H   H23       1.0  0.44478  0.74549  0.49638  1.0000
  H   H24       1.0  0.94610  0.25463  0.50361  1.0000
  H   H25       1.0  0.31278  0.07838  0.55530  1.0000
  H   H26       1.0  0.75850  0.92114  0.44481  1.0000
  H   H27       1.0  0.25850  0.57885  0.44481  1.0000
  H   H28       1.0  0.81277  0.42161  0.55530  1.0000
  H   H29       1.0  0.25436  0.91692  0.45735  1.0000
  H   H30       1.0  0.79698  0.08259  0.54278  1.0000
  H   H31       1.0  0.29699  0.41740  0.54279  1.0000
  H   H32       1.0  0.75436  0.58307  0.45735  1.0000
  H   H33       1.0  0.67076  0.08006  0.69053  1.0000
  H   H34       1.0  0.98000  0.92147  0.30919  1.0000
  H   H35       1.0  0.48000  0.57855  0.30919  1.0000
  H   H36       1.0  0.17075  0.41995  0.69052  1.0000
  H   H37       1.0  0.52325  0.99434  0.72069  1.0000
  H   H38       1.0  0.80130  0.00645  0.27912  1.0000
  H   H39       1.0  0.30131  0.49356  0.27912  1.0000
  H   H40       1.0  0.02324  0.50567  0.72069  1.0000
  C   C1        1.0  0.79892  0.14378  0.93705  1.0000
  C   C2        1.0  0.86304  0.85624  0.06301  1.0000
  C   C3        1.0  0.36305  0.64376  0.06301  1.0000
  C   C4        1.0  0.29892  0.35622  0.93705  1.0000
  C   C5        1.0  0.97185  0.13154  0.01221  1.0000
  C   C6        1.0  0.96093  0.86844  0.98784  1.0000
  C   C7        1.0  0.46093  0.63156  0.98784  1.0000
  C   C8        1.0  0.47184  0.36846  0.01221  1.0000
  C   C9        1.0  0.94365  0.12472  0.09855  1.0000
  C   C10       1.0  0.84643  0.87519  0.90149  1.0000
  C   C11       1.0  0.34642  0.62481  0.90149  1.0000
  C   C12       1.0  0.44364  0.37528  0.09855  1.0000
  C   C13       1.0  0.10371  0.11565  0.16941  1.0000
  C   C14       1.0  0.93561  0.88429  0.83061  1.0000
  C   C15       1.0  0.43561  0.61571  0.83061  1.0000
  C   C16       1.0  0.60371  0.38435  0.16941  1.0000
  C   C17       1.0  0.29435  0.11065  0.15540  1.0000
  C   C18       1.0  0.14019  0.88943  0.84461  1.0000
  C   C19       1.0  0.64020  0.61057  0.84461  1.0000
  C   C20       1.0  0.79435  0.38936  0.15540  1.0000
  C   C21       1.0  0.32154  0.11612  0.06860  1.0000
  C   C22       1.0  0.25421  0.88398  0.93138  1.0000
  C   C23       1.0  0.75421  0.61601  0.93138  1.0000
  C   C24       1.0  0.82154  0.38388  0.06860  1.0000
  C   C25       1.0  0.16160  0.12724  0.99787  1.0000
  C   C26       1.0  0.16504  0.87279  0.00215  1.0000
  C   C27       1.0  0.66504  0.62721  0.00215  1.0000
  C   C28       1.0  0.66160  0.37276  0.99787  1.0000
  C   C29       1.0  0.46536  0.09870  0.23052  1.0000
  C   C30       1.0  0.23600  0.90148  0.76948  1.0000
  C   C31       1.0  0.73600  0.59851  0.76948  1.0000
  C   C32       1.0  0.96536  0.40130  0.23051  1.0000
  C   C33       1.0  0.42849  0.08804  0.32178  1.0000
  C   C34       1.0  0.10780  0.91192  0.67825  1.0000
  C   C35       1.0  0.60780  0.58807  0.67825  1.0000
  C   C36       1.0  0.92850  0.41196  0.32177  1.0000
  C   C37       1.0  0.46184  0.17825  0.37709  1.0000
  C   C38       1.0  0.08672  0.82178  0.62289  1.0000
  C   C39       1.0  0.58672  0.67821  0.62289  1.0000
  C   C40       1.0  0.96184  0.32176  0.37708  1.0000
  C   C41       1.0  0.41935  0.17490  0.46069  1.0000
  C   C42       1.0  0.96056  0.82496  0.53931  1.0000
  C   C43       1.0  0.46057  0.67503  0.53931  1.0000
  C   C44       1.0  0.91935  0.32509  0.46068  1.0000
  C   C45       1.0  0.34261  0.08145  0.48960  1.0000
  C   C46       1.0  0.85417  0.91821  0.51046  1.0000
  C   C47       1.0  0.35418  0.58178  0.51046  1.0000
  C   C48       1.0  0.84261  0.41854  0.48960  1.0000
  C   C49       1.0  0.31158  0.99092  0.43527  1.0000
  C   C50       1.0  0.87676  0.00871  0.56480  1.0000
  C   C51       1.0  0.37677  0.49128  0.56480  1.0000
  C   C52       1.0  0.81158  0.50907  0.43527  1.0000
  C   C53       1.0  0.35484  0.99308  0.35149  1.0000
  C   C54       1.0  0.00371  0.00667  0.64858  1.0000
  C   C55       1.0  0.50371  0.49333  0.64858  1.0000
  C   C56       1.0  0.85485  0.50692  0.35149  1.0000
  C   C57       1.0  0.32713  0.89419  0.29488  1.0000
  C   C58       1.0  0.03174  0.10549  0.70521  1.0000
  C   C59       1.0  0.53173  0.39451  0.70522  1.0000
  C   C60       1.0  0.82713  0.60581  0.29488  1.0000
  O   O1        1.0  0.82404  0.17987  0.86209  1.0000
  O   O2        1.0  0.96290  0.82007  0.13797  1.0000
  O   O3        1.0  0.46290  0.67993  0.13797  1.0000
  O   O4        1.0  0.32404  0.32013  0.86209  1.0000
  O   O5        1.0  0.62928  0.12061  0.94555  1.0000
  O   O6        1.0  0.68495  0.87956  0.05444  1.0000
  O   O7        1.0  0.18495  0.62044  0.05444  1.0000
  O   O8        1.0  0.12928  0.37940  0.94555  1.0000
  O   O9        1.0  0.63621  0.10623  0.22131  1.0000
  O   O10       1.0  0.41608  0.89427  0.77861  1.0000
  O   O11       1.0  0.91608  0.60573  0.77861  1.0000
  O   O12       1.0  0.13620  0.39377  0.22131  1.0000
  O   O13       1.0  0.40997  0.89028  0.23001  1.0000
  O   O14       1.0  0.17938  0.10981  0.77005  1.0000
  O   O15       1.0  0.67938  0.39019  0.77005  1.0000
  O   O16       1.0  0.90996  0.60973  0.23001  1.0000
  O   O17       1.0  0.21749  0.81982  0.31366  1.0000
  O   O18       1.0  0.90262  0.17953  0.68649  1.0000
  O   O19       1.0  0.40262  0.32047  0.68650  1.0000
  O   O20       1.0  0.71748  0.68018  0.31366  1.0000
  O   O21       1.0  0.53717  0.06761  0.69741  1.0000
  O   O22       1.0  0.83944  0.93322  0.30229  1.0000
  O   O23       1.0  0.33944  0.56679  0.30229  1.0000
  O   O24       1.0  0.03717  0.43239  0.69741  1.0000
