data_image0
_chemical_formula_structural       Hg4H28C28N4Cl8O8
_chemical_formula_sum              "Hg4 H28 C28 N4 Cl8 O8"
_cell_length_a       7.46869
_cell_length_b       9.35723
_cell_length_c       14.1899
_cell_angle_alpha    89.9999
_cell_angle_beta     92.1109
_cell_angle_gamma    90

_space_group_name_H-M_alt    "P 1"
_space_group_IT_number       1

loop_
  _space_group_symop_operation_xyz
  'x, y, z'

loop_
  _atom_site_type_symbol
  _atom_site_label
  _atom_site_symmetry_multiplicity
  _atom_site_fract_x
  _atom_site_fract_y
  _atom_site_fract_z
  _atom_site_occupancy
  Hg  Hg1       1.0  0.24380  0.06236  0.48721  1.0000
  Hg  Hg2       1.0  0.25620  0.56236  0.01280  1.0000
  Hg  Hg3       1.0  0.75620  0.93764  0.51279  1.0000
  Hg  Hg4       1.0  0.74380  0.43764  0.98721  1.0000
  H   H1        1.0  0.09557  0.15511  0.67876  1.0000
  H   H2        1.0  0.40442  0.65511  0.82124  1.0000
  H   H3        1.0  0.90442  0.84489  0.32124  1.0000
  H   H4        1.0  0.59557  0.34489  0.17876  1.0000
  H   H5        1.0  0.03070  0.37314  0.77645  1.0000
  H   H6        1.0  0.46930  0.87314  0.72355  1.0000
  H   H7        1.0  0.96930  0.62686  0.22355  1.0000
  H   H8        1.0  0.53070  0.12686  0.27645  1.0000
  H   H9        1.0  0.08858  0.61561  0.70650  1.0000
  H   H10       1.0  0.41142  0.11561  0.79351  1.0000
  H   H11       1.0  0.91142  0.38439  0.29350  1.0000
  H   H12       1.0  0.58858  0.88439  0.20649  1.0000
  H   H13       1.0  0.21510  0.63026  0.54663  1.0000
  H   H14       1.0  0.28490  0.13026  0.95337  1.0000
  H   H15       1.0  0.78491  0.36974  0.45337  1.0000
  H   H16       1.0  0.71510  0.86974  0.04663  1.0000
  H   H17       1.0  0.35512  0.66002  0.28665  1.0000
  H   H18       1.0  0.14487  0.16002  0.21336  1.0000
  H   H19       1.0  0.64488  0.33997  0.71336  1.0000
  H   H20       1.0  0.85512  0.83998  0.78665  1.0000
  H   H21       1.0  0.30311  0.47639  0.25766  1.0000
  H   H22       1.0  0.19688  0.97639  0.24234  1.0000
  H   H23       1.0  0.69689  0.52361  0.74234  1.0000
  H   H24       1.0  0.80311  0.02362  0.75766  1.0000
  H   H25       1.0  0.52108  0.52324  0.30533  1.0000
  H   H26       1.0  0.97892  0.02324  0.19467  1.0000
  H   H27       1.0  0.47893  0.47676  0.69467  1.0000
  H   H28       1.0  0.02108  0.97676  0.80533  1.0000
  C   C1        1.0  0.12175  0.26294  0.65359  1.0000
  C   C2        1.0  0.37825  0.76294  0.84641  1.0000
  C   C3        1.0  0.87825  0.73706  0.34641  1.0000
  C   C4        1.0  0.62175  0.23706  0.15359  1.0000
  C   C5        1.0  0.08494  0.38418  0.70664  1.0000
  C   C6        1.0  0.41507  0.88419  0.79336  1.0000
  C   C7        1.0  0.91507  0.61582  0.29336  1.0000
  C   C8        1.0  0.58493  0.11581  0.20664  1.0000
  C   C9        1.0  0.11799  0.51809  0.66798  1.0000
  C   C10       1.0  0.38202  0.01809  0.83202  1.0000
  C   C11       1.0  0.88202  0.48191  0.33202  1.0000
  C   C12       1.0  0.61799  0.98191  0.16797  1.0000
  C   C13       1.0  0.18858  0.52693  0.57849  1.0000
  C   C14       1.0  0.31142  0.02693  0.92151  1.0000
  C   C15       1.0  0.81142  0.47307  0.42151  1.0000
  C   C16       1.0  0.68858  0.97307  0.07849  1.0000
  C   C17       1.0  0.22475  0.40053  0.53021  1.0000
  C   C18       1.0  0.27525  0.90053  0.96979  1.0000
  C   C19       1.0  0.77525  0.59947  0.46979  1.0000
  C   C20       1.0  0.72475  0.09947  0.03021  1.0000
  C   C21       1.0  0.30225  0.40164  0.43411  1.0000
  C   C22       1.0  0.19775  0.90165  0.06589  1.0000
  C   C23       1.0  0.69775  0.59835  0.56589  1.0000
  C   C24       1.0  0.80225  0.09836  0.93411  1.0000
  C   C25       1.0  0.37804  0.54829  0.30559  1.0000
  C   C26       1.0  0.12196  0.04830  0.19441  1.0000
  C   C27       1.0  0.62196  0.45170  0.69442  1.0000
  C   C28       1.0  0.87804  0.95171  0.80559  1.0000
  N   N1        1.0  0.19058  0.27165  0.56788  1.0000
  N   N2        1.0  0.30942  0.77166  0.93213  1.0000
  N   N3        1.0  0.80943  0.72834  0.43213  1.0000
  N   N4        1.0  0.69058  0.22835  0.06788  1.0000
  Cl  Cl1       1.0  0.08290  0.89501  0.60977  1.0000
  Cl  Cl2       1.0  0.41709  0.39502  0.89023  1.0000
  Cl  Cl3       1.0  0.91710  0.10498  0.39023  1.0000
  Cl  Cl4       1.0  0.58290  0.60499  0.10977  1.0000
  Cl  Cl5       1.0  0.41098  0.89864  0.39068  1.0000
  Cl  Cl6       1.0  0.08901  0.39864  0.10932  1.0000
  Cl  Cl7       1.0  0.58901  0.10135  0.60931  1.0000
  Cl  Cl8       1.0  0.91099  0.60136  0.89068  1.0000
  O   O1        1.0  0.34739  0.29417  0.39110  1.0000
  O   O2        1.0  0.15261  0.79418  0.10890  1.0000
  O   O3        1.0  0.65261  0.70582  0.60890  1.0000
  O   O4        1.0  0.84739  0.20583  0.89110  1.0000
  O   O5        1.0  0.31441  0.53452  0.40077  1.0000
  O   O6        1.0  0.18558  0.03452  0.09923  1.0000
  O   O7        1.0  0.68558  0.46548  0.59923  1.0000
  O   O8        1.0  0.81442  0.96549  0.90077  1.0000
