data_image0
_chemical_formula_structural       Cd2H20C40Br8N8O8
_chemical_formula_sum              "Cd2 H20 C40 Br8 N8 O8"
_cell_length_a       7.95737
_cell_length_b       7.95743
_cell_length_c       18.7125
_cell_angle_alpha    86.8796
_cell_angle_beta     86.8794
_cell_angle_gamma    74.6335

_space_group_name_H-M_alt    "P 1"
_space_group_IT_number       1

loop_
  _space_group_symop_operation_xyz
  'x, y, z'

loop_
  _atom_site_type_symbol
  _atom_site_label
  _atom_site_symmetry_multiplicity
  _atom_site_fract_x
  _atom_site_fract_y
  _atom_site_fract_z
  _atom_site_occupancy
  Cd  Cd1       1.0  0.66807  0.33194  0.75000  1.0000
  Cd  Cd2       1.0  0.33193  0.66807  0.25000  1.0000
  H   H1        1.0  0.66166  0.56786  0.60379  1.0000
  H   H2        1.0  0.43214  0.33832  0.89621  1.0000
  H   H3        1.0  0.33834  0.43215  0.39621  1.0000
  H   H4        1.0  0.56785  0.66167  0.10379  1.0000
  H   H5        1.0  0.76014  0.75041  0.51669  1.0000
  H   H6        1.0  0.24960  0.23984  0.98331  1.0000
  H   H7        1.0  0.23986  0.24961  0.48331  1.0000
  H   H8        1.0  0.75040  0.76014  0.01669  1.0000
  H   H9        1.0  0.29880  0.11090  0.60398  1.0000
  H   H10       1.0  0.88911  0.70119  0.89602  1.0000
  H   H11       1.0  0.70120  0.88912  0.39602  1.0000
  H   H12       1.0  0.11090  0.29880  0.10398  1.0000
  H   H13       1.0  0.48943  0.04641  0.70856  1.0000
  H   H14       1.0  0.95359  0.51057  0.79144  1.0000
  H   H15       1.0  0.51057  0.95360  0.29144  1.0000
  H   H16       1.0  0.04641  0.48943  0.20856  1.0000
  H   H17       1.0  0.58047  0.77492  0.80969  1.0000
  H   H18       1.0  0.22508  0.41953  0.69031  1.0000
  H   H19       1.0  0.41953  0.22508  0.19031  1.0000
  H   H20       1.0  0.77492  0.58048  0.30969  1.0000
  C   C1        1.0  0.92192  0.09700  0.55973  1.0000
  C   C2        1.0  0.90300  0.07809  0.94027  1.0000
  C   C3        1.0  0.07809  0.90301  0.44027  1.0000
  C   C4        1.0  0.09698  0.92191  0.05973  1.0000
  C   C5        1.0  0.63012  0.65889  0.64665  1.0000
  C   C6        1.0  0.34111  0.36987  0.85334  1.0000
  C   C7        1.0  0.36988  0.34111  0.35334  1.0000
  C   C8        1.0  0.65889  0.63012  0.14666  1.0000
  C   C9        1.0  0.64420  0.85774  0.50899  1.0000
  C   C10       1.0  0.14226  0.35579  0.99101  1.0000
  C   C11       1.0  0.35581  0.14227  0.49101  1.0000
  C   C12       1.0  0.85774  0.64419  0.00899  1.0000
  C   C13       1.0  0.02550  0.92542  0.56917  1.0000
  C   C14       1.0  0.07457  0.97451  0.93083  1.0000
  C   C15       1.0  0.97452  0.07458  0.43083  1.0000
  C   C16       1.0  0.92541  0.02550  0.06917  1.0000
  C   C17       1.0  0.53307  0.92085  0.56763  1.0000
  C   C18       1.0  0.07916  0.46692  0.93236  1.0000
  C   C19       1.0  0.46693  0.07917  0.43236  1.0000
  C   C20       1.0  0.92084  0.53306  0.06764  1.0000
  C   C21       1.0  0.38865  0.06388  0.55887  1.0000
  C   C22       1.0  0.93612  0.61134  0.94113  1.0000
  C   C23       1.0  0.61135  0.93613  0.44113  1.0000
  C   C24       1.0  0.06388  0.38863  0.05887  1.0000
  C   C25       1.0  0.89611  0.16992  0.49014  1.0000
  C   C26       1.0  0.83007  0.10391  0.00986  1.0000
  C   C27       1.0  0.10392  0.83008  0.50986  1.0000
  C   C28       1.0  0.16991  0.89609  0.99014  1.0000
  C   C29       1.0  0.84502  0.19807  0.62522  1.0000
  C   C30       1.0  0.80193  0.15499  0.87478  1.0000
  C   C31       1.0  0.15500  0.80194  0.37478  1.0000
  C   C32       1.0  0.19805  0.84500  0.12522  1.0000
  C   C33       1.0  0.53428  0.90719  0.70260  1.0000
  C   C34       1.0  0.09281  0.46572  0.79740  1.0000
  C   C35       1.0  0.46572  0.09281  0.29740  1.0000
  C   C36       1.0  0.90719  0.53428  0.20260  1.0000
  C   C37       1.0  0.58198  0.77091  0.75186  1.0000
  C   C38       1.0  0.22909  0.41801  0.74814  1.0000
  C   C39       1.0  0.41801  0.22909  0.24814  1.0000
  C   C40       1.0  0.77091  0.58199  0.25186  1.0000
  Br  Br1       1.0  0.05519  0.82490  0.66341  1.0000
  Br  Br2       1.0  0.17511  0.94485  0.83659  1.0000
  Br  Br3       1.0  0.94483  0.17511  0.33659  1.0000
  Br  Br4       1.0  0.82489  0.05519  0.16341  1.0000
  Br  Br5       1.0  0.74923  0.39939  0.47642  1.0000
  Br  Br6       1.0  0.60061  0.25079  0.02358  1.0000
  Br  Br7       1.0  0.25078  0.60062  0.52358  1.0000
  Br  Br8       1.0  0.39938  0.74921  0.97642  1.0000
  N   N1        1.0  0.64086  0.61691  0.71622  1.0000
  N   N2        1.0  0.38309  0.35913  0.78377  1.0000
  N   N3        1.0  0.35914  0.38310  0.28377  1.0000
  N   N4        1.0  0.61691  0.64087  0.21623  1.0000
  N   N5        1.0  0.56593  0.83448  0.63586  1.0000
  N   N6        1.0  0.16553  0.43406  0.86414  1.0000
  N   N7        1.0  0.43407  0.16553  0.36414  1.0000
  N   N8        1.0  0.83447  0.56593  0.13586  1.0000
  O   O1        1.0  0.94244  0.26293  0.65932  1.0000
  O   O2        1.0  0.73708  0.05756  0.84068  1.0000
  O   O3        1.0  0.05757  0.73709  0.34067  1.0000
  O   O4        1.0  0.26289  0.94243  0.15933  1.0000
  O   O5        1.0  0.68512  0.20593  0.64237  1.0000
  O   O6        1.0  0.79407  0.31489  0.85763  1.0000
  O   O7        1.0  0.31490  0.79407  0.35763  1.0000
  O   O8        1.0  0.20593  0.68509  0.14237  1.0000
