data_image0
_chemical_formula_structural       Hg4H36C32N4Cl8O8
_chemical_formula_sum              "Hg4 H36 C32 N4 Cl8 O8"
_cell_length_a       7.64288
_cell_length_b       9.40663
_cell_length_c       15.387
_cell_angle_alpha    90.0005
_cell_angle_beta     98.5536
_cell_angle_gamma    89.9992

_space_group_name_H-M_alt    "P 1"
_space_group_IT_number       1

loop_
  _space_group_symop_operation_xyz
  'x, y, z'

loop_
  _atom_site_type_symbol
  _atom_site_label
  _atom_site_symmetry_multiplicity
  _atom_site_fract_x
  _atom_site_fract_y
  _atom_site_fract_z
  _atom_site_occupancy
  Hg  Hg1       1.0  0.12456  0.20062  0.27316  1.0000
  Hg  Hg2       1.0  0.37544  0.70062  0.72684  1.0000
  Hg  Hg3       1.0  0.87544  0.79938  0.72684  1.0000
  Hg  Hg4       1.0  0.62456  0.29938  0.27316  1.0000
  H   H1        1.0  0.12528  0.62973  0.24643  1.0000
  H   H2        1.0  0.37472  0.12973  0.75358  1.0000
  H   H3        1.0  0.87472  0.37027  0.75357  1.0000
  H   H4        1.0  0.62529  0.87027  0.24642  1.0000
  H   H5        1.0  0.30707  0.58389  0.39281  1.0000
  H   H6        1.0  0.19292  0.08389  0.60720  1.0000
  H   H7        1.0  0.69292  0.41611  0.60720  1.0000
  H   H8        1.0  0.80708  0.91610  0.39280  1.0000
  H   H9        1.0  0.40821  0.79284  0.49012  1.0000
  H   H10       1.0  0.09180  0.29284  0.50988  1.0000
  H   H11       1.0  0.59179  0.20717  0.50987  1.0000
  H   H12       1.0  0.90820  0.70716  0.49012  1.0000
  H   H13       1.0  0.32448  0.03983  0.43426  1.0000
  H   H14       1.0  0.17553  0.53983  0.56574  1.0000
  H   H15       1.0  0.67552  0.96016  0.56574  1.0000
  H   H16       1.0  0.82447  0.46016  0.43426  1.0000
  H   H17       1.0  0.93211  0.86995  0.00520  1.0000
  H   H18       1.0  0.56789  0.36996  0.99480  1.0000
  H   H19       1.0  0.06789  0.13005  0.99481  1.0000
  H   H20       1.0  0.43211  0.63005  0.00520  1.0000
  H   H21       1.0  0.74315  0.85976  0.06023  1.0000
  H   H22       1.0  0.75686  0.35976  0.93977  1.0000
  H   H23       1.0  0.25686  0.14024  0.93977  1.0000
  H   H24       1.0  0.24314  0.64024  0.06023  1.0000
  H   H25       1.0  0.72218  0.67243  0.94414  1.0000
  H   H26       1.0  0.77782  0.17244  0.05585  1.0000
  H   H27       1.0  0.27783  0.32756  0.05586  1.0000
  H   H28       1.0  0.22218  0.82756  0.94414  1.0000
  H   H29       1.0  0.75771  0.58841  0.04936  1.0000
  H   H30       1.0  0.74229  0.08841  0.95064  1.0000
  H   H31       1.0  0.24229  0.41159  0.95064  1.0000
  H   H32       1.0  0.25771  0.91159  0.04936  1.0000
  H   H33       1.0  0.93447  0.60730  0.98663  1.0000
  H   H34       1.0  0.56552  0.10730  0.01337  1.0000
  H   H35       1.0  0.06553  0.39271  0.01337  1.0000
  H   H36       1.0  0.43448  0.89270  0.98663  1.0000
  C   C1        1.0  0.13459  0.85753  0.26373  1.0000
  C   C2        1.0  0.36543  0.35753  0.73628  1.0000
  C   C3        1.0  0.86541  0.14248  0.73627  1.0000
  C   C4        1.0  0.63458  0.64247  0.26373  1.0000
  C   C5        1.0  0.17389  0.71746  0.28970  1.0000
  C   C6        1.0  0.32611  0.21745  0.71030  1.0000
  C   C7        1.0  0.82611  0.28255  0.71029  1.0000
  C   C8        1.0  0.67389  0.78254  0.28970  1.0000
  C   C9        1.0  0.27364  0.69280  0.37189  1.0000
  C   C10       1.0  0.22636  0.19280  0.62812  1.0000
  C   C11       1.0  0.72636  0.30720  0.62811  1.0000
  C   C12       1.0  0.77365  0.80719  0.37189  1.0000
  C   C13       1.0  0.32989  0.80821  0.42562  1.0000
  C   C14       1.0  0.17011  0.30821  0.57438  1.0000
  C   C15       1.0  0.67011  0.19179  0.57438  1.0000
  C   C16       1.0  0.82988  0.69178  0.42562  1.0000
  C   C17       1.0  0.28441  0.94504  0.39543  1.0000
  C   C18       1.0  0.21560  0.44504  0.60457  1.0000
  C   C19       1.0  0.71559  0.05496  0.60457  1.0000
  C   C20       1.0  0.78439  0.55496  0.39543  1.0000
  C   C21       1.0  0.02733  0.89318  0.17679  1.0000
  C   C22       1.0  0.47267  0.39317  0.82321  1.0000
  C   C23       1.0  0.97267  0.10681  0.82321  1.0000
  C   C24       1.0  0.52733  0.60682  0.17679  1.0000
  C   C25       1.0  0.86028  0.80183  0.04585  1.0000
  C   C26       1.0  0.63972  0.30183  0.95415  1.0000
  C   C27       1.0  0.13972  0.19817  0.95415  1.0000
  C   C28       1.0  0.36028  0.69817  0.04585  1.0000
  C   C29       1.0  0.81636  0.65878  0.00467  1.0000
  C   C30       1.0  0.68364  0.15878  0.99533  1.0000
  C   C31       1.0  0.18364  0.34123  0.99534  1.0000
  C   C32       1.0  0.31636  0.84122  0.00467  1.0000
  N   N1        1.0  0.18968  0.96823  0.31634  1.0000
  N   N2        1.0  0.31033  0.46823  0.68366  1.0000
  N   N3        1.0  0.81032  0.03177  0.68366  1.0000
  N   N4        1.0  0.68967  0.53177  0.31634  1.0000
  Cl  Cl1       1.0  0.86628  0.18229  0.38948  1.0000
  Cl  Cl2       1.0  0.63372  0.68229  0.61053  1.0000
  Cl  Cl3       1.0  0.13371  0.81771  0.61052  1.0000
  Cl  Cl4       1.0  0.36628  0.31771  0.38948  1.0000
  Cl  Cl5       1.0  0.95707  0.38230  0.18476  1.0000
  Cl  Cl6       1.0  0.54293  0.88230  0.81524  1.0000
  Cl  Cl7       1.0  0.04293  0.61770  0.81524  1.0000
  Cl  Cl8       1.0  0.45707  0.11770  0.18476  1.0000
  O   O1        1.0  0.99101  0.01513  0.15145  1.0000
  O   O2        1.0  0.50899  0.51514  0.84855  1.0000
  O   O3        1.0  0.00899  0.98487  0.84855  1.0000
  O   O4        1.0  0.49102  0.48486  0.15145  1.0000
  O   O5        1.0  0.97465  0.77723  0.13029  1.0000
  O   O6        1.0  0.52537  0.27724  0.86971  1.0000
  O   O7        1.0  0.02535  0.22276  0.86971  1.0000
  O   O8        1.0  0.47464  0.72276  0.13029  1.0000
