data_image0
_chemical_formula_structural       Cd2H22C30Br8N4O12
_chemical_formula_sum              "Cd2 H22 C30 Br8 N4 O12"
_cell_length_a       9.30999
_cell_length_b       9.3434
_cell_length_c       13.6017
_cell_angle_alpha    70.4346
_cell_angle_beta     88.5211
_cell_angle_gamma    63.7001

_space_group_name_H-M_alt    "P 1"
_space_group_IT_number       1

loop_
  _space_group_symop_operation_xyz
  'x, y, z'

loop_
  _atom_site_type_symbol
  _atom_site_label
  _atom_site_symmetry_multiplicity
  _atom_site_fract_x
  _atom_site_fract_y
  _atom_site_fract_z
  _atom_site_occupancy
  Cd  Cd1       1.0  0.46122  0.30582  0.53416  1.0000
  Cd  Cd2       1.0  0.53878  0.69418  0.46583  1.0000
  H   H1        1.0  0.16024  0.26725  0.55094  1.0000
  H   H2        1.0  0.83976  0.73275  0.44906  1.0000
  H   H3        1.0  0.31684  0.10237  0.62828  1.0000
  H   H4        1.0  0.68316  0.89763  0.37172  1.0000
  H   H5        1.0  0.60844  0.95980  0.63207  1.0000
  H   H6        1.0  0.39157  0.04020  0.36793  1.0000
  H   H7        1.0  0.68157  0.94998  0.52584  1.0000
  H   H8        1.0  0.31844  0.05003  0.47415  1.0000
  H   H9        1.0  0.56521  0.42658  0.29222  1.0000
  H   H10       1.0  0.43479  0.57343  0.70777  1.0000
  H   H11       1.0  0.13141  0.39895  0.36201  1.0000
  H   H12       1.0  0.86860  0.60104  0.63799  1.0000
  H   H13       1.0  0.14710  0.46479  0.14733  1.0000
  H   H14       1.0  0.85290  0.53521  0.85267  1.0000
  H   H15       1.0  0.61194  0.21694  0.14513  1.0000
  H   H16       1.0  0.38806  0.78306  0.85487  1.0000
  H   H17       1.0  0.11372  0.77422  0.03372  1.0000
  H   H18       1.0  0.88628  0.22578  0.96628  1.0000
  H   H19       1.0  0.19179  0.91048  0.95668  1.0000
  H   H20       1.0  0.80821  0.08952  0.04332  1.0000
  H   H21       1.0  0.24873  0.81421  0.09625  1.0000
  H   H22       1.0  0.75127  0.18579  0.90375  1.0000
  C   C1        1.0  0.48483  0.08309  0.77102  1.0000
  C   C2        1.0  0.51517  0.91691  0.22898  1.0000
  C   C3        1.0  0.49492  0.04054  0.88976  1.0000
  C   C4        1.0  0.50508  0.95945  0.11024  1.0000
  C   C5        1.0  0.63988  0.92282  0.95809  1.0000
  C   C6        1.0  0.36012  0.07718  0.04192  1.0000
  C   C7        1.0  0.35521  0.11669  0.93280  1.0000
  C   C8        1.0  0.64479  0.88330  0.06720  1.0000
  C   C9        1.0  0.18880  0.63786  0.53150  1.0000
  C   C10       1.0  0.81120  0.36214  0.46850  1.0000
  C   C11       1.0  0.09018  0.82532  0.51594  1.0000
  C   C12       1.0  0.90983  0.17468  0.48406  1.0000
  C   C13       1.0  0.96953  0.05299  0.58636  1.0000
  C   C14       1.0  0.03047  0.94701  0.41364  1.0000
  C   C15       1.0  0.05708  0.87914  0.60199  1.0000
  C   C16       1.0  0.94292  0.12086  0.39802  1.0000
  C   C17       1.0  0.45086  0.42462  0.28425  1.0000
  C   C18       1.0  0.54914  0.57539  0.71575  1.0000
  C   C19       1.0  0.22471  0.41265  0.31617  1.0000
  C   C20       1.0  0.77529  0.58735  0.68383  1.0000
  C   C21       1.0  0.22857  0.44865  0.20988  1.0000
  C   C22       1.0  0.77143  0.55135  0.79012  1.0000
  C   C23       1.0  0.43447  0.48080  0.09217  1.0000
  C   C24       1.0  0.56553  0.51920  0.90783  1.0000
  C   C25       1.0  0.56661  0.34076  0.08086  1.0000
  C   C26       1.0  0.43339  0.65924  0.91913  1.0000
  C   C27       1.0  0.36366  0.64338  0.01203  1.0000
  C   C28       1.0  0.63634  0.35662  0.98797  1.0000
  C   C29       1.0  0.22227  0.79352  0.02526  1.0000
  C   C30       1.0  0.77773  0.20648  0.97474  1.0000
  Br  Br1       1.0  0.12745  0.71006  0.73998  1.0000
  Br  Br2       1.0  0.87256  0.28994  0.26002  1.0000
  Br  Br3       1.0  0.93309  0.13070  0.70083  1.0000
  Br  Br4       1.0  0.06692  0.86930  0.29918  1.0000
  Br  Br5       1.0  0.82849  0.82345  0.89844  1.0000
  Br  Br6       1.0  0.17150  0.17655  0.10156  1.0000
  Br  Br7       1.0  0.15823  0.26944  0.83976  1.0000
  Br  Br8       1.0  0.84177  0.73056  0.16024  1.0000
  N   N1        1.0  0.36481  0.39738  0.36135  1.0000
  N   N2        1.0  0.63520  0.60262  0.63865  1.0000
  N   N3        1.0  0.37257  0.45557  0.19081  1.0000
  N   N4        1.0  0.62743  0.54443  0.80919  1.0000
  O   O1        1.0  0.49892  0.21499  0.71713  1.0000
  O   O2        1.0  0.50108  0.78501  0.28288  1.0000
  O   O3        1.0  0.46005  0.98385  0.73679  1.0000
  O   O4        1.0  0.53995  0.01615  0.26321  1.0000
  O   O5        1.0  0.34277  0.58548  0.53125  1.0000
  O   O6        1.0  0.65723  0.41452  0.46874  1.0000
  O   O7        1.0  0.11799  0.54859  0.54260  1.0000
  O   O8        1.0  0.88201  0.45141  0.45740  1.0000
  O   O9        1.0  0.26787  0.17575  0.55315  1.0000
  O   O10       1.0  0.73213  0.82425  0.44685  1.0000
  O   O11       1.0  0.65051  0.01720  0.57299  1.0000
  O   O12       1.0  0.34949  0.98280  0.42701  1.0000
