data_image0
_chemical_formula_structural       Nd4H24C28S4O32
_chemical_formula_sum              "Nd4 H24 C28 S4 O32"
_cell_length_a       5.90901
_cell_length_b       10.4758
_cell_length_c       18.8293
_cell_angle_alpha    81.0863
_cell_angle_beta     80.9438
_cell_angle_gamma    73.6161

_space_group_name_H-M_alt    "P 1"
_space_group_IT_number       1

loop_
  _space_group_symop_operation_xyz
  'x, y, z'

loop_
  _atom_site_type_symbol
  _atom_site_label
  _atom_site_symmetry_multiplicity
  _atom_site_fract_x
  _atom_site_fract_y
  _atom_site_fract_z
  _atom_site_occupancy
  Nd  Nd1       1.0  0.94138  0.19808  0.53107  1.0000
  Nd  Nd2       1.0  0.67078  0.30195  0.96892  1.0000
  Nd  Nd3       1.0  0.05863  0.80193  0.46893  1.0000
  Nd  Nd4       1.0  0.32923  0.69804  0.03108  1.0000
  H   H1        1.0  0.55391  0.26419  0.66144  1.0000
  H   H2        1.0  0.47995  0.23570  0.83862  1.0000
  H   H3        1.0  0.44611  0.73580  0.33856  1.0000
  H   H4        1.0  0.52009  0.76425  0.16138  1.0000
  H   H5        1.0  0.41683  0.31768  0.59092  1.0000
  H   H6        1.0  0.32601  0.18209  0.90916  1.0000
  H   H7        1.0  0.58318  0.68233  0.40908  1.0000
  H   H8        1.0  0.67398  0.81790  0.09084  1.0000
  H   H9        1.0  0.47935  0.24310  0.45183  1.0000
  H   H10       1.0  0.17442  0.25674  0.04817  1.0000
  H   H11       1.0  0.52065  0.75691  0.54818  1.0000
  H   H12       1.0  0.82559  0.74325  0.95183  1.0000
  H   H13       1.0  0.65101  0.10056  0.44666  1.0000
  H   H14       1.0  0.19801  0.39933  0.05336  1.0000
  H   H15       1.0  0.34901  0.89946  0.55334  1.0000
  H   H16       1.0  0.80199  0.60066  0.94664  1.0000
  H   H17       1.0  0.92792  0.80789  0.74892  1.0000
  H   H18       1.0  0.48540  0.69227  0.75105  1.0000
  H   H19       1.0  0.07207  0.19211  0.25109  1.0000
  H   H20       1.0  0.51458  0.30773  0.24895  1.0000
  H   H21       1.0  0.62054  0.88909  0.86235  1.0000
  H   H22       1.0  0.37289  0.61101  0.63767  1.0000
  H   H23       1.0  0.37943  0.11089  0.13765  1.0000
  H   H24       1.0  0.62708  0.38900  0.36232  1.0000
  C   C1        1.0  0.77549  0.88769  0.60791  1.0000
  C   C2        1.0  0.27169  0.61223  0.89212  1.0000
  C   C3        1.0  0.22452  0.11232  0.39209  1.0000
  C   C4        1.0  0.72830  0.38776  0.10787  1.0000
  C   C5        1.0  0.64534  0.92114  0.68039  1.0000
  C   C6        1.0  0.24777  0.57883  0.81962  1.0000
  C   C7        1.0  0.35467  0.07888  0.31962  1.0000
  C   C8        1.0  0.75222  0.42117  0.18038  1.0000
  C   C9        1.0  0.74762  0.87112  0.74592  1.0000
  C   C10       1.0  0.36552  0.62894  0.75407  1.0000
  C   C11       1.0  0.25237  0.12888  0.25409  1.0000
  C   C12       1.0  0.63445  0.37106  0.24593  1.0000
  C   C13       1.0  0.59231  0.91321  0.80572  1.0000
  C   C14       1.0  0.31220  0.58683  0.69429  1.0000
  C   C15       1.0  0.40766  0.08679  0.19428  1.0000
  C   C16       1.0  0.68777  0.41318  0.30571  1.0000
  C   C17       1.0  0.41325  0.00042  0.69232  1.0000
  C   C18       1.0  0.10707  0.49945  0.80772  1.0000
  C   C19       1.0  0.58677  0.99959  0.30767  1.0000
  C   C20       1.0  0.89292  0.50055  0.19228  1.0000
  C   C21       1.0  0.24898  0.06803  0.63930  1.0000
  C   C22       1.0  0.95717  0.43192  0.86077  1.0000
  C   C23       1.0  0.75104  0.93199  0.36070  1.0000
  C   C24       1.0  0.04281  0.56807  0.13923  1.0000
  C   C25       1.0  0.88934  0.51984  0.47915  1.0000
  C   C26       1.0  0.88826  0.98018  0.02084  1.0000
  C   C27       1.0  0.11065  0.48016  0.52085  1.0000
  C   C28       1.0  0.11173  0.01981  0.97915  1.0000
  S   S1        1.0  0.32365  0.01145  0.78345  1.0000
  S   S2        1.0  0.11970  0.48850  0.71660  1.0000
  S   S3        1.0  0.67635  0.98855  0.21655  1.0000
  S   S4        1.0  0.88027  0.51150  0.28339  1.0000
  O   O1        1.0  0.87285  0.97168  0.56682  1.0000
  O   O2        1.0  0.41191  0.52824  0.93320  1.0000
  O   O3        1.0  0.12717  0.02834  0.43319  1.0000
  O   O4        1.0  0.58809  0.47176  0.06680  1.0000
  O   O5        1.0  0.79587  0.77322  0.58913  1.0000
  O   O6        1.0  0.15857  0.72668  0.91091  1.0000
  O   O7        1.0  0.20416  0.22680  0.41087  1.0000
  O   O8        1.0  0.84144  0.27331  0.08909  1.0000
  O   O9        1.0  0.31770  0.04993  0.57181  1.0000
  O   O10       1.0  0.94003  0.45010  0.92825  1.0000
  O   O11       1.0  0.68233  0.95009  0.42820  1.0000
  O   O12       1.0  0.05996  0.54989  0.07175  1.0000
  O   O13       1.0  0.04529  0.14325  0.65866  1.0000
  O   O14       1.0  0.84821  0.35667  0.84139  1.0000
  O   O15       1.0  0.95472  0.85677  0.34135  1.0000
  O   O16       1.0  0.15180  0.64331  0.15860  1.0000
  O   O17       1.0  0.78775  0.43126  0.47551  1.0000
  O   O18       1.0  0.69448  0.06885  0.02454  1.0000
  O   O19       1.0  0.21225  0.56874  0.52449  1.0000
  O   O20       1.0  0.30552  0.93112  0.97545  1.0000
  O   O21       1.0  0.82770  0.64216  0.45145  1.0000
  O   O22       1.0  0.92101  0.85786  0.04851  1.0000
  O   O23       1.0  0.17231  0.35786  0.54855  1.0000
  O   O24       1.0  0.07898  0.14213  0.95149  1.0000
  O   O25       1.0  0.57650  0.28668  0.60930  1.0000
  O   O26       1.0  0.47321  0.21299  0.89074  1.0000
  O   O27       1.0  0.42352  0.71334  0.39070  1.0000
  O   O28       1.0  0.52678  0.78701  0.10926  1.0000
  O   O29       1.0  0.64492  0.19353  0.45579  1.0000
  O   O30       1.0  0.29423  0.30640  0.04424  1.0000
  O   O31       1.0  0.35509  0.80649  0.54422  1.0000
  O   O32       1.0  0.70577  0.69359  0.95576  1.0000
