data_image0
_chemical_formula_structural       Gd4H24C28S4O32
_chemical_formula_sum              "Gd4 H24 C28 S4 O32"
_cell_length_a       5.88064
_cell_length_b       10.2519
_cell_length_c       18.7052
_cell_angle_alpha    80.9111
_cell_angle_beta     80.9521
_cell_angle_gamma    73.3268

_space_group_name_H-M_alt    "P 1"
_space_group_IT_number       1

loop_
  _space_group_symop_operation_xyz
  'x, y, z'

loop_
  _atom_site_type_symbol
  _atom_site_label
  _atom_site_symmetry_multiplicity
  _atom_site_fract_x
  _atom_site_fract_y
  _atom_site_fract_z
  _atom_site_occupancy
  Gd  Gd1       1.0  0.94887  0.19621  0.52967  1.0000
  Gd  Gd2       1.0  0.67491  0.30382  0.97032  1.0000
  Gd  Gd3       1.0  0.05113  0.80379  0.47033  1.0000
  Gd  Gd4       1.0  0.32509  0.69618  0.02969  1.0000
  H   H1        1.0  0.57846  0.24650  0.65842  1.0000
  H   H2        1.0  0.48348  0.25357  0.84155  1.0000
  H   H3        1.0  0.42153  0.75350  0.34158  1.0000
  H   H4        1.0  0.51652  0.74643  0.15846  1.0000
  H   H5        1.0  0.43393  0.31526  0.58987  1.0000
  H   H6        1.0  0.33948  0.18469  0.91013  1.0000
  H   H7        1.0  0.56607  0.68474  0.41013  1.0000
  H   H8        1.0  0.66053  0.81531  0.08987  1.0000
  H   H9        1.0  0.48012  0.25037  0.46793  1.0000
  H   H10       1.0  0.19855  0.24957  0.03195  1.0000
  H   H11       1.0  0.51988  0.74963  0.53207  1.0000
  H   H12       1.0  0.80146  0.75043  0.96805  1.0000
  H   H13       1.0  0.64177  0.10551  0.44939  1.0000
  H   H14       1.0  0.19670  0.39438  0.05056  1.0000
  H   H15       1.0  0.35823  0.89449  0.55061  1.0000
  H   H16       1.0  0.80330  0.60562  0.94944  1.0000
  H   H17       1.0  0.93016  0.80694  0.75084  1.0000
  H   H18       1.0  0.48804  0.69312  0.74910  1.0000
  H   H19       1.0  0.06984  0.19306  0.24916  1.0000
  H   H20       1.0  0.51194  0.30689  0.25090  1.0000
  H   H21       1.0  0.61423  0.88602  0.86386  1.0000
  H   H22       1.0  0.36432  0.61369  0.63614  1.0000
  H   H23       1.0  0.38576  0.11398  0.13614  1.0000
  H   H24       1.0  0.63567  0.38632  0.36386  1.0000
  C   C1        1.0  0.78255  0.88853  0.60787  1.0000
  C   C2        1.0  0.27901  0.61152  0.89215  1.0000
  C   C3        1.0  0.21746  0.11147  0.39213  1.0000
  C   C4        1.0  0.72099  0.38848  0.10785  1.0000
  C   C5        1.0  0.64901  0.92235  0.68043  1.0000
  C   C6        1.0  0.25222  0.57758  0.81958  1.0000
  C   C7        1.0  0.35099  0.07766  0.31957  1.0000
  C   C8        1.0  0.74777  0.42242  0.18042  1.0000
  C   C9        1.0  0.74836  0.87091  0.74701  1.0000
  C   C10       1.0  0.36645  0.62911  0.75296  1.0000
  C   C11       1.0  0.25164  0.12909  0.25299  1.0000
  C   C12       1.0  0.63354  0.37090  0.24704  1.0000
  C   C13       1.0  0.58798  0.91253  0.80668  1.0000
  C   C14       1.0  0.30734  0.58737  0.69333  1.0000
  C   C15       1.0  0.41201  0.08747  0.19331  1.0000
  C   C16       1.0  0.69265  0.41263  0.30667  1.0000
  C   C17       1.0  0.41401  0.00274  0.69132  1.0000
  C   C18       1.0  0.10870  0.49705  0.80874  1.0000
  C   C19       1.0  0.58599  0.99726  0.30868  1.0000
  C   C20       1.0  0.89130  0.50295  0.19126  1.0000
  C   C21       1.0  0.25078  0.06955  0.63693  1.0000
  C   C22       1.0  0.95766  0.43041  0.86313  1.0000
  C   C23       1.0  0.74922  0.93045  0.36307  1.0000
  C   C24       1.0  0.04235  0.56958  0.13688  1.0000
  C   C25       1.0  0.88430  0.52073  0.48128  1.0000
  C   C26       1.0  0.88629  0.97931  0.01869  1.0000
  C   C27       1.0  0.11570  0.47927  0.51872  1.0000
  C   C28       1.0  0.11371  0.02070  0.98132  1.0000
  S   S1        1.0  0.31850  0.01262  0.78297  1.0000
  S   S2        1.0  0.11455  0.48715  0.71713  1.0000
  S   S3        1.0  0.68149  0.98738  0.21703  1.0000
  S   S4        1.0  0.88545  0.51285  0.28288  1.0000
  O   O1        1.0  0.87669  0.97565  0.56602  1.0000
  O   O2        1.0  0.41826  0.52444  0.93407  1.0000
  O   O3        1.0  0.12332  0.02435  0.43397  1.0000
  O   O4        1.0  0.58175  0.47556  0.06593  1.0000
  O   O5        1.0  0.80858  0.77115  0.58919  1.0000
  O   O6        1.0  0.16867  0.72891  0.91079  1.0000
  O   O7        1.0  0.19143  0.22885  0.41081  1.0000
  O   O8        1.0  0.83133  0.27109  0.08921  1.0000
  O   O9        1.0  0.32201  0.04994  0.56921  1.0000
  O   O10       1.0  0.94118  0.45014  0.93083  1.0000
  O   O11       1.0  0.67799  0.95006  0.43078  1.0000
  O   O12       1.0  0.05883  0.54986  0.06917  1.0000
  O   O13       1.0  0.04398  0.14632  0.65509  1.0000
  O   O14       1.0  0.84591  0.35364  0.84492  1.0000
  O   O15       1.0  0.95602  0.85368  0.34491  1.0000
  O   O16       1.0  0.15411  0.64635  0.15508  1.0000
  O   O17       1.0  0.78431  0.42939  0.47824  1.0000
  O   O18       1.0  0.69190  0.07065  0.02168  1.0000
  O   O19       1.0  0.21567  0.57061  0.52176  1.0000
  O   O20       1.0  0.30810  0.92935  0.97833  1.0000
  O   O21       1.0  0.81320  0.64741  0.45610  1.0000
  O   O22       1.0  0.91652  0.85265  0.04389  1.0000
  O   O23       1.0  0.18679  0.35259  0.54390  1.0000
  O   O24       1.0  0.08349  0.14736  0.95612  1.0000
  O   O25       1.0  0.59457  0.28660  0.60786  1.0000
  O   O26       1.0  0.48933  0.21345  0.89210  1.0000
  O   O27       1.0  0.40543  0.71340  0.39214  1.0000
  O   O28       1.0  0.51069  0.78655  0.10790  1.0000
  O   O29       1.0  0.64707  0.19814  0.45884  1.0000
  O   O30       1.0  0.30412  0.30176  0.04111  1.0000
  O   O31       1.0  0.35293  0.80185  0.54116  1.0000
  O   O32       1.0  0.69589  0.69824  0.95889  1.0000
