data_image0
_chemical_formula_structural       Ho4H24C28S4O32
_chemical_formula_sum              "Ho4 H24 C28 S4 O32"
_cell_length_a       5.8597
_cell_length_b       10.1539
_cell_length_c       18.6486
_cell_angle_alpha    81.0007
_cell_angle_beta     80.9793
_cell_angle_gamma    73.2362

_space_group_name_H-M_alt    "P 1"
_space_group_IT_number       1

loop_
  _space_group_symop_operation_xyz
  'x, y, z'

loop_
  _atom_site_type_symbol
  _atom_site_label
  _atom_site_symmetry_multiplicity
  _atom_site_fract_x
  _atom_site_fract_y
  _atom_site_fract_z
  _atom_site_occupancy
  Ho  Ho1       1.0  0.95057  0.19662  0.52910  1.0000
  Ho  Ho2       1.0  0.67623  0.30339  0.97090  1.0000
  Ho  Ho3       1.0  0.04943  0.80337  0.47090  1.0000
  Ho  Ho4       1.0  0.32377  0.69662  0.02910  1.0000
  H   H1        1.0  0.59098  0.24695  0.65750  1.0000
  H   H2        1.0  0.49521  0.25302  0.84248  1.0000
  H   H3        1.0  0.40902  0.75303  0.34250  1.0000
  H   H4        1.0  0.50478  0.74700  0.15752  1.0000
  H   H5        1.0  0.43983  0.31586  0.58981  1.0000
  H   H6        1.0  0.34525  0.18427  0.91019  1.0000
  H   H7        1.0  0.56017  0.68413  0.41019  1.0000
  H   H8        1.0  0.65475  0.81575  0.08981  1.0000
  H   H9        1.0  0.48319  0.25154  0.47302  1.0000
  H   H10       1.0  0.20776  0.24845  0.02696  1.0000
  H   H11       1.0  0.51682  0.74845  0.52698  1.0000
  H   H12       1.0  0.79225  0.75156  0.97305  1.0000
  H   H13       1.0  0.64236  0.10636  0.45101  1.0000
  H   H14       1.0  0.19985  0.39359  0.04902  1.0000
  H   H15       1.0  0.35764  0.89362  0.54899  1.0000
  H   H16       1.0  0.80015  0.60643  0.95098  1.0000
  H   H17       1.0  0.92793  0.80736  0.75129  1.0000
  H   H18       1.0  0.48640  0.69266  0.74880  1.0000
  H   H19       1.0  0.07210  0.19263  0.24871  1.0000
  H   H20       1.0  0.51358  0.30736  0.25119  1.0000
  H   H21       1.0  0.60789  0.88619  0.86415  1.0000
  H   H22       1.0  0.35804  0.61359  0.63597  1.0000
  H   H23       1.0  0.39212  0.11381  0.13585  1.0000
  H   H24       1.0  0.64190  0.38644  0.36402  1.0000
  C   C1        1.0  0.78307  0.89034  0.60743  1.0000
  C   C2        1.0  0.28069  0.60971  0.89270  1.0000
  C   C3        1.0  0.21694  0.10963  0.39257  1.0000
  C   C4        1.0  0.71931  0.39030  0.10730  1.0000
  C   C5        1.0  0.64729  0.92370  0.68012  1.0000
  C   C6        1.0  0.25108  0.57624  0.82002  1.0000
  C   C7        1.0  0.35273  0.07628  0.31988  1.0000
  C   C8        1.0  0.74893  0.42378  0.17998  1.0000
  C   C9        1.0  0.74532  0.87164  0.74711  1.0000
  C   C10       1.0  0.36399  0.62829  0.75304  1.0000
  C   C11       1.0  0.25470  0.12835  0.25289  1.0000
  C   C12       1.0  0.63601  0.37172  0.24696  1.0000
  C   C13       1.0  0.58272  0.91335  0.80673  1.0000
  C   C14       1.0  0.30269  0.58654  0.69341  1.0000
  C   C15       1.0  0.41729  0.08664  0.19327  1.0000
  C   C16       1.0  0.69729  0.41348  0.30659  1.0000
  C   C17       1.0  0.41094  0.00462  0.69067  1.0000
  C   C18       1.0  0.10634  0.49522  0.80946  1.0000
  C   C19       1.0  0.58909  0.99536  0.30933  1.0000
  C   C20       1.0  0.89365  0.50480  0.19054  1.0000
  C   C21       1.0  0.24833  0.07164  0.63578  1.0000
  C   C22       1.0  0.95559  0.42839  0.86429  1.0000
  C   C23       1.0  0.75171  0.92833  0.36422  1.0000
  C   C24       1.0  0.04440  0.57162  0.13571  1.0000
  C   C25       1.0  0.88336  0.52081  0.48171  1.0000
  C   C26       1.0  0.88590  0.97918  0.01828  1.0000
  C   C27       1.0  0.11662  0.47919  0.51828  1.0000
  C   C28       1.0  0.11409  0.02083  0.98171  1.0000
  S   S1        1.0  0.31264  0.01431  0.78249  1.0000
  S   S2        1.0  0.10937  0.48555  0.71763  1.0000
  S   S3        1.0  0.68738  0.98568  0.21751  1.0000
  S   S4        1.0  0.89059  0.51448  0.28237  1.0000
  O   O1        1.0  0.87704  0.97865  0.56587  1.0000
  O   O2        1.0  0.42127  0.52150  0.93435  1.0000
  O   O3        1.0  0.12297  0.02132  0.43413  1.0000
  O   O4        1.0  0.57873  0.47852  0.06565  1.0000
  O   O5        1.0  0.81148  0.77196  0.58813  1.0000
  O   O6        1.0  0.17128  0.72813  0.91191  1.0000
  O   O7        1.0  0.18850  0.22802  0.41187  1.0000
  O   O8        1.0  0.82871  0.27188  0.08809  1.0000
  O   O9        1.0  0.32006  0.05125  0.56795  1.0000
  O   O10       1.0  0.93898  0.44884  0.93212  1.0000
  O   O11       1.0  0.67996  0.94873  0.43205  1.0000
  O   O12       1.0  0.06101  0.55116  0.06788  1.0000
  O   O13       1.0  0.04044  0.14967  0.65344  1.0000
  O   O14       1.0  0.84322  0.35047  0.84659  1.0000
  O   O15       1.0  0.95958  0.85030  0.34656  1.0000
  O   O16       1.0  0.15676  0.64955  0.15341  1.0000
  O   O17       1.0  0.78409  0.42821  0.47873  1.0000
  O   O18       1.0  0.69110  0.07176  0.02124  1.0000
  O   O19       1.0  0.21590  0.57177  0.52127  1.0000
  O   O20       1.0  0.30889  0.92823  0.97875  1.0000
  O   O21       1.0  0.80983  0.64893  0.45711  1.0000
  O   O22       1.0  0.91585  0.85104  0.04287  1.0000
  O   O23       1.0  0.19018  0.35107  0.54289  1.0000
  O   O24       1.0  0.08414  0.14897  0.95713  1.0000
  O   O25       1.0  0.60230  0.28787  0.60679  1.0000
  O   O26       1.0  0.49680  0.21213  0.89319  1.0000
  O   O27       1.0  0.39771  0.71213  0.39321  1.0000
  O   O28       1.0  0.50319  0.78789  0.10681  1.0000
  O   O29       1.0  0.64968  0.19953  0.46033  1.0000
  O   O30       1.0  0.30962  0.30043  0.03967  1.0000
  O   O31       1.0  0.35033  0.80045  0.53967  1.0000
  O   O32       1.0  0.69038  0.69958  0.96033  1.0000
