data_image0
_chemical_formula_structural       Tb4H24C28S4O32
_chemical_formula_sum              "Tb4 H24 C28 S4 O32"
_cell_length_a       5.87447
_cell_length_b       10.2241
_cell_length_c       18.7102
_cell_angle_alpha    80.8241
_cell_angle_beta     80.9802
_cell_angle_gamma    73.3013

_space_group_name_H-M_alt    "P 1"
_space_group_IT_number       1

loop_
  _space_group_symop_operation_xyz
  'x, y, z'

loop_
  _atom_site_type_symbol
  _atom_site_label
  _atom_site_symmetry_multiplicity
  _atom_site_fract_x
  _atom_site_fract_y
  _atom_site_fract_z
  _atom_site_occupancy
  Tb  Tb1       1.0  0.94903  0.19644  0.52932  1.0000
  Tb  Tb2       1.0  0.67487  0.30357  0.97066  1.0000
  Tb  Tb3       1.0  0.05098  0.80357  0.47067  1.0000
  Tb  Tb4       1.0  0.32513  0.69643  0.02934  1.0000
  H   H1        1.0  0.58306  0.24473  0.65751  1.0000
  H   H2        1.0  0.48502  0.25541  0.84244  1.0000
  H   H3        1.0  0.41693  0.75526  0.34249  1.0000
  H   H4        1.0  0.51498  0.74458  0.15756  1.0000
  H   H5        1.0  0.43614  0.31485  0.58944  1.0000
  H   H6        1.0  0.34041  0.18523  0.91054  1.0000
  H   H7        1.0  0.56386  0.68515  0.41056  1.0000
  H   H8        1.0  0.65959  0.81477  0.08947  1.0000
  H   H9        1.0  0.48151  0.25088  0.46849  1.0000
  H   H10       1.0  0.20109  0.24904  0.03145  1.0000
  H   H11       1.0  0.51849  0.74913  0.53151  1.0000
  H   H12       1.0  0.79891  0.75096  0.96856  1.0000
  H   H13       1.0  0.64271  0.10549  0.44985  1.0000
  H   H14       1.0  0.19818  0.39441  0.05012  1.0000
  H   H15       1.0  0.35730  0.89452  0.55015  1.0000
  H   H16       1.0  0.80181  0.60559  0.94988  1.0000
  H   H17       1.0  0.92965  0.80695  0.75068  1.0000
  H   H18       1.0  0.48723  0.69299  0.74947  1.0000
  H   H19       1.0  0.07034  0.19305  0.24932  1.0000
  H   H20       1.0  0.51277  0.30701  0.25053  1.0000
  H   H21       1.0  0.61305  0.88624  0.86345  1.0000
  H   H22       1.0  0.36285  0.61352  0.63665  1.0000
  H   H23       1.0  0.38694  0.11376  0.13655  1.0000
  H   H24       1.0  0.63716  0.38647  0.36335  1.0000
  C   C1        1.0  0.78305  0.88918  0.60757  1.0000
  C   C2        1.0  0.27968  0.61085  0.89252  1.0000
  C   C3        1.0  0.21696  0.11084  0.39243  1.0000
  C   C4        1.0  0.72032  0.38914  0.10748  1.0000
  C   C5        1.0  0.64884  0.92274  0.68002  1.0000
  C   C6        1.0  0.25175  0.57720  0.82008  1.0000
  C   C7        1.0  0.35116  0.07727  0.31998  1.0000
  C   C8        1.0  0.74824  0.42280  0.17992  1.0000
  C   C9        1.0  0.74780  0.87107  0.74670  1.0000
  C   C10       1.0  0.36550  0.62891  0.75340  1.0000
  C   C11       1.0  0.25219  0.12893  0.25330  1.0000
  C   C12       1.0  0.63450  0.37109  0.24660  1.0000
  C   C13       1.0  0.58700  0.91284  0.80624  1.0000
  C   C14       1.0  0.30589  0.58715  0.69387  1.0000
  C   C15       1.0  0.41299  0.08715  0.19376  1.0000
  C   C16       1.0  0.69411  0.41284  0.30613  1.0000
  C   C17       1.0  0.41341  0.00324  0.69066  1.0000
  C   C18       1.0  0.10752  0.49670  0.80944  1.0000
  C   C19       1.0  0.58659  0.99676  0.30934  1.0000
  C   C20       1.0  0.89248  0.50330  0.19056  1.0000
  C   C21       1.0  0.25012  0.07020  0.63617  1.0000
  C   C22       1.0  0.95653  0.42984  0.86387  1.0000
  C   C23       1.0  0.74988  0.92981  0.36383  1.0000
  C   C24       1.0  0.04346  0.57016  0.13613  1.0000
  C   C25       1.0  0.88417  0.52089  0.48137  1.0000
  C   C26       1.0  0.88631  0.97914  0.01861  1.0000
  C   C27       1.0  0.11584  0.47911  0.51863  1.0000
  C   C28       1.0  0.11369  0.02086  0.98140  1.0000
  S   S1        1.0  0.31728  0.01336  0.78223  1.0000
  S   S2        1.0  0.11283  0.48657  0.71787  1.0000
  S   S3        1.0  0.68271  0.98664  0.21776  1.0000
  S   S4        1.0  0.88717  0.51342  0.28213  1.0000
  O   O1        1.0  0.87656  0.97686  0.56576  1.0000
  O   O2        1.0  0.41908  0.52330  0.93440  1.0000
  O   O3        1.0  0.12343  0.02315  0.43424  1.0000
  O   O4        1.0  0.58092  0.47670  0.06560  1.0000
  O   O5        1.0  0.81016  0.77147  0.58878  1.0000
  O   O6        1.0  0.16989  0.72853  0.91126  1.0000
  O   O7        1.0  0.18985  0.22854  0.41121  1.0000
  O   O8        1.0  0.83011  0.27147  0.08874  1.0000
  O   O9        1.0  0.32095  0.05065  0.56848  1.0000
  O   O10       1.0  0.93994  0.44943  0.93157  1.0000
  O   O11       1.0  0.67906  0.94935  0.43152  1.0000
  O   O12       1.0  0.06006  0.55057  0.06843  1.0000
  O   O13       1.0  0.04303  0.14701  0.65425  1.0000
  O   O14       1.0  0.84432  0.35305  0.84574  1.0000
  O   O15       1.0  0.95698  0.85299  0.34575  1.0000
  O   O16       1.0  0.15567  0.64695  0.15426  1.0000
  O   O17       1.0  0.78445  0.42927  0.47813  1.0000
  O   O18       1.0  0.69166  0.07075  0.02181  1.0000
  O   O19       1.0  0.21557  0.57073  0.52186  1.0000
  O   O20       1.0  0.30834  0.92924  0.97819  1.0000
  O   O21       1.0  0.81282  0.64807  0.45632  1.0000
  O   O22       1.0  0.91706  0.85198  0.04367  1.0000
  O   O23       1.0  0.18719  0.35194  0.54367  1.0000
  O   O24       1.0  0.08294  0.14802  0.95633  1.0000
  O   O25       1.0  0.59742  0.28668  0.60719  1.0000
  O   O26       1.0  0.49105  0.21359  0.89278  1.0000
  O   O27       1.0  0.40258  0.71332  0.39282  1.0000
  O   O28       1.0  0.50895  0.78641  0.10722  1.0000
  O   O29       1.0  0.64849  0.19853  0.45885  1.0000
  O   O30       1.0  0.30604  0.30139  0.04110  1.0000
  O   O31       1.0  0.35151  0.80147  0.54115  1.0000
  O   O32       1.0  0.69396  0.69861  0.95890  1.0000
