data_image0
_chemical_formula_structural       K4H8C24N12O28
_chemical_formula_sum              "K4 H8 C24 N12 O28"
_cell_length_a       7.15071
_cell_length_b       12.2367
_cell_length_c       12.2367
_cell_angle_alpha    66.1756
_cell_angle_beta     72.9954
_cell_angle_gamma    72.9952

_space_group_name_H-M_alt    "P 1"
_space_group_IT_number       1

loop_
  _space_group_symop_operation_xyz
  'x, y, z'

loop_
  _atom_site_type_symbol
  _atom_site_label
  _atom_site_symmetry_multiplicity
  _atom_site_fract_x
  _atom_site_fract_y
  _atom_site_fract_z
  _atom_site_occupancy
  K   K1        1.0  0.25000  0.11507  0.88493  1.0000
  K   K2        1.0  0.75000  0.38516  0.61485  1.0000
  K   K3        1.0  0.75000  0.88493  0.11507  1.0000
  K   K4        1.0  0.25000  0.61484  0.38515  1.0000
  H   H1        1.0  0.60947  0.36856  0.16221  1.0000
  H   H2        1.0  0.64037  0.13152  0.33758  1.0000
  H   H3        1.0  0.89053  0.83779  0.63144  1.0000
  H   H4        1.0  0.85963  0.66242  0.86848  1.0000
  H   H5        1.0  0.39053  0.63144  0.83779  1.0000
  H   H6        1.0  0.35964  0.86848  0.66242  1.0000
  H   H7        1.0  0.10947  0.16221  0.36856  1.0000
  H   H8        1.0  0.14037  0.33758  0.13152  1.0000
  C   C1        1.0  0.87783  0.37233  0.87210  1.0000
  C   C2        1.0  0.62217  0.12791  0.62766  1.0000
  C   C3        1.0  0.12217  0.62767  0.12790  1.0000
  C   C4        1.0  0.37783  0.87209  0.37234  1.0000
  C   C5        1.0  0.76952  0.33058  0.99906  1.0000
  C   C6        1.0  0.59902  0.16962  0.50068  1.0000
  C   C7        1.0  0.73049  0.00094  0.66943  1.0000
  C   C8        1.0  0.90098  0.49932  0.83038  1.0000
  C   C9        1.0  0.23048  0.66942  0.00094  1.0000
  C   C10       1.0  0.40098  0.83038  0.49932  1.0000
  C   C11       1.0  0.26951  0.99906  0.33058  1.0000
  C   C12       1.0  0.09902  0.50068  0.16962  1.0000
  C   C13       1.0  0.69358  0.40340  0.06973  1.0000
  C   C14       1.0  0.66676  0.09675  0.43008  1.0000
  C   C15       1.0  0.80643  0.93027  0.59660  1.0000
  C   C16       1.0  0.83324  0.56992  0.90325  1.0000
  C   C17       1.0  0.30642  0.59660  0.93027  1.0000
  C   C18       1.0  0.33324  0.90325  0.56993  1.0000
  C   C19       1.0  0.19358  0.06973  0.40340  1.0000
  C   C20       1.0  0.16676  0.43008  0.09675  1.0000
  C   C21       1.0  0.72767  0.52228  0.02216  1.0000
  C   C22       1.0  0.77233  0.97784  0.47771  1.0000
  C   C23       1.0  0.27233  0.47772  0.97784  1.0000
  C   C24       1.0  0.22767  0.02216  0.52229  1.0000
  N   N1        1.0  0.72811  0.20835  0.05449  1.0000
  N   N2        1.0  0.49056  0.29178  0.44529  1.0000
  N   N3        1.0  0.77189  0.94551  0.79164  1.0000
  N   N4        1.0  0.00944  0.55471  0.70822  1.0000
  N   N5        1.0  0.27189  0.79164  0.94551  1.0000
  N   N6        1.0  0.50945  0.70822  0.55471  1.0000
  N   N7        1.0  0.22811  0.05449  0.20836  1.0000
  N   N8        1.0  0.99056  0.44529  0.29178  1.0000
  N   N9        1.0  0.65299  0.59699  0.09693  1.0000
  N   N10       1.0  0.84702  0.90307  0.40301  1.0000
  N   N11       1.0  0.34701  0.40301  0.90307  1.0000
  N   N12       1.0  0.15298  0.09693  0.59700  1.0000
  O   O1        1.0  0.94280  0.30735  0.80697  1.0000
  O   O2        1.0  0.55720  0.19303  0.69265  1.0000
  O   O3        1.0  0.05719  0.69265  0.19302  1.0000
  O   O4        1.0  0.44280  0.80697  0.30735  1.0000
  O   O5        1.0  0.84292  0.12643  0.01745  1.0000
  O   O6        1.0  0.48639  0.37373  0.48225  1.0000
  O   O7        1.0  0.65708  0.98255  0.87356  1.0000
  O   O8        1.0  0.01361  0.51775  0.62627  1.0000
  O   O9        1.0  0.15708  0.87356  0.98255  1.0000
  O   O10       1.0  0.51362  0.62627  0.51775  1.0000
  O   O11       1.0  0.34291  0.01745  0.12644  1.0000
  O   O12       1.0  0.98639  0.48225  0.37373  1.0000
  O   O13       1.0  0.57750  0.19090  0.13747  1.0000
  O   O14       1.0  0.40524  0.30914  0.36249  1.0000
  O   O15       1.0  0.92250  0.86254  0.80910  1.0000
  O   O16       1.0  0.09477  0.63750  0.69086  1.0000
  O   O17       1.0  0.42250  0.80910  0.86253  1.0000
  O   O18       1.0  0.59477  0.69086  0.63751  1.0000
  O   O19       1.0  0.07750  0.13747  0.19090  1.0000
  O   O20       1.0  0.90524  0.36250  0.30914  1.0000
  O   O21       1.0  0.54268  0.55722  0.19816  1.0000
  O   O22       1.0  0.79809  0.94282  0.30182  1.0000
  O   O23       1.0  0.95732  0.80184  0.44278  1.0000
  O   O24       1.0  0.70191  0.69818  0.05718  1.0000
  O   O25       1.0  0.45732  0.44278  0.80184  1.0000
  O   O26       1.0  0.20192  0.05718  0.69818  1.0000
  O   O27       1.0  0.04268  0.19816  0.55722  1.0000
  O   O28       1.0  0.29809  0.30182  0.94282  1.0000
