data_image0
_chemical_formula_structural       Cd4H36C40N20O12
_chemical_formula_sum              "Cd4 H36 C40 N20 O12"
_cell_length_a       7.08993
_cell_length_b       10.0159
_cell_length_c       17.2741
_cell_angle_alpha    89.9993
_cell_angle_beta     104.819
_cell_angle_gamma    90.0003

_space_group_name_H-M_alt    "P 1"
_space_group_IT_number       1

loop_
  _space_group_symop_operation_xyz
  'x, y, z'

loop_
  _atom_site_type_symbol
  _atom_site_label
  _atom_site_symmetry_multiplicity
  _atom_site_fract_x
  _atom_site_fract_y
  _atom_site_fract_z
  _atom_site_occupancy
  Cd  Cd1       1.0  0.00810  0.97611  0.10811  1.0000
  Cd  Cd2       1.0  0.99189  0.47611  0.39189  1.0000
  Cd  Cd3       1.0  0.99190  0.02389  0.89189  1.0000
  Cd  Cd4       1.0  0.00811  0.52389  0.60811  1.0000
  H   H1        1.0  0.19992  0.38192  0.08067  1.0000
  H   H2        1.0  0.80007  0.88192  0.41933  1.0000
  H   H3        1.0  0.80009  0.61808  0.91933  1.0000
  H   H4        1.0  0.19993  0.11808  0.58067  1.0000
  H   H5        1.0  0.39544  0.55849  0.03279  1.0000
  H   H6        1.0  0.60455  0.05848  0.46721  1.0000
  H   H7        1.0  0.60456  0.44152  0.96721  1.0000
  H   H8        1.0  0.39545  0.94151  0.53279  1.0000
  H   H9        1.0  0.32503  0.79884  0.05641  1.0000
  H   H10       1.0  0.67496  0.29884  0.44360  1.0000
  H   H11       1.0  0.67497  0.20116  0.94359  1.0000
  H   H12       1.0  0.32504  0.70116  0.55641  1.0000
  H   H13       1.0  0.63162  0.01027  0.17072  1.0000
  H   H14       1.0  0.36838  0.51027  0.32928  1.0000
  H   H15       1.0  0.36838  0.98972  0.82928  1.0000
  H   H16       1.0  0.63161  0.48973  0.67072  1.0000
  H   H17       1.0  0.45496  0.89389  0.26104  1.0000
  H   H18       1.0  0.54505  0.39389  0.23897  1.0000
  H   H19       1.0  0.54504  0.10610  0.73896  1.0000
  H   H20       1.0  0.45495  0.60611  0.76103  1.0000
  H   H21       1.0  0.55744  0.65905  0.30367  1.0000
  H   H22       1.0  0.44255  0.15905  0.19633  1.0000
  H   H23       1.0  0.44256  0.34094  0.69633  1.0000
  H   H24       1.0  0.55745  0.84095  0.80367  1.0000
  H   H25       1.0  0.89632  0.26415  0.12926  1.0000
  H   H26       1.0  0.10367  0.76415  0.37074  1.0000
  H   H27       1.0  0.10368  0.73585  0.87073  1.0000
  H   H28       1.0  0.89633  0.23585  0.62926  1.0000
  H   H29       1.0  0.70678  0.18476  0.08547  1.0000
  H   H30       1.0  0.29321  0.68475  0.41452  1.0000
  H   H31       1.0  0.29321  0.81525  0.91453  1.0000
  H   H32       1.0  0.70679  0.31525  0.58547  1.0000
  H   H33       1.0  0.87591  0.46367  0.20328  1.0000
  H   H34       1.0  0.12408  0.96368  0.29672  1.0000
  H   H35       1.0  0.12410  0.53632  0.79672  1.0000
  H   H36       1.0  0.87592  0.03632  0.70328  1.0000
  C   C1        1.0  0.17588  0.48760  0.08976  1.0000
  C   C2        1.0  0.82411  0.98760  0.41024  1.0000
  C   C3        1.0  0.82413  0.51240  0.91024  1.0000
  C   C4        1.0  0.17589  0.01240  0.58976  1.0000
  C   C5        1.0  0.28376  0.58449  0.06325  1.0000
  C   C6        1.0  0.71623  0.08449  0.43675  1.0000
  C   C7        1.0  0.71624  0.41552  0.93675  1.0000
  C   C8        1.0  0.28377  0.91551  0.56325  1.0000
  C   C9        1.0  0.24538  0.71807  0.07604  1.0000
  C   C10       1.0  0.75461  0.21807  0.42396  1.0000
  C   C11       1.0  0.75462  0.28193  0.92396  1.0000
  C   C12       1.0  0.24539  0.78193  0.57604  1.0000
  C   C13       1.0  0.00091  0.66241  0.14057  1.0000
  C   C14       1.0  0.99909  0.16241  0.35943  1.0000
  C   C15       1.0  0.99909  0.33759  0.85943  1.0000
  C   C16       1.0  0.00091  0.83759  0.64057  1.0000
  C   C17       1.0  0.03234  0.52406  0.12893  1.0000
  C   C18       1.0  0.96765  0.02406  0.37108  1.0000
  C   C19       1.0  0.96766  0.47594  0.87107  1.0000
  C   C20       1.0  0.03235  0.97594  0.62893  1.0000
  C   C21       1.0  0.66128  0.90646  0.18850  1.0000
  C   C22       1.0  0.33871  0.40646  0.31150  1.0000
  C   C23       1.0  0.33872  0.09354  0.81150  1.0000
  C   C24       1.0  0.66129  0.59354  0.68850  1.0000
  C   C25       1.0  0.56756  0.84248  0.23983  1.0000
  C   C26       1.0  0.43243  0.34249  0.26017  1.0000
  C   C27       1.0  0.43244  0.15751  0.76017  1.0000
  C   C28       1.0  0.56757  0.65752  0.73983  1.0000
  C   C29       1.0  0.62230  0.71272  0.26213  1.0000
  C   C30       1.0  0.37769  0.21272  0.23787  1.0000
  C   C31       1.0  0.37770  0.28727  0.73787  1.0000
  C   C32       1.0  0.62231  0.78729  0.76213  1.0000
  C   C33       1.0  0.76606  0.64693  0.23329  1.0000
  C   C34       1.0  0.23392  0.14693  0.26671  1.0000
  C   C35       1.0  0.23394  0.35307  0.76671  1.0000
  C   C36       1.0  0.76607  0.85307  0.73329  1.0000
  C   C37       1.0  0.84965  0.71708  0.17807  1.0000
  C   C38       1.0  0.15034  0.21708  0.32193  1.0000
  C   C39       1.0  0.15035  0.28292  0.82192  1.0000
  C   C40       1.0  0.84966  0.78292  0.67807  1.0000
  N   N1        1.0  0.10883  0.75379  0.11279  1.0000
  N   N2        1.0  0.89117  0.25379  0.38722  1.0000
  N   N3        1.0  0.89117  0.24621  0.88721  1.0000
  N   N4        1.0  0.10884  0.74621  0.61279  1.0000
  N   N5        1.0  0.79595  0.84531  0.15949  1.0000
  N   N6        1.0  0.20405  0.34531  0.34051  1.0000
  N   N7        1.0  0.20405  0.15469  0.84051  1.0000
  N   N8        1.0  0.79596  0.65469  0.65949  1.0000
  N   N9        1.0  0.20787  0.04800  0.02910  1.0000
  N   N10       1.0  0.79212  0.54800  0.47090  1.0000
  N   N11       1.0  0.79212  0.95200  0.97090  1.0000
  N   N12       1.0  0.20789  0.45199  0.52910  1.0000
  N   N13       1.0  0.33083  0.13272  0.03776  1.0000
  N   N14       1.0  0.66917  0.63271  0.46224  1.0000
  N   N15       1.0  0.66917  0.86729  0.96223  1.0000
  N   N16       1.0  0.33083  0.36728  0.53777  1.0000
  N   N17       1.0  0.45039  0.21562  0.04416  1.0000
  N   N18       1.0  0.54959  0.71562  0.45584  1.0000
  N   N19       1.0  0.54960  0.78438  0.95584  1.0000
  N   N20       1.0  0.45041  0.28437  0.54416  1.0000
  O   O1        1.0  0.84348  0.17212  0.11718  1.0000
  O   O2        1.0  0.15651  0.67212  0.38281  1.0000
  O   O3        1.0  0.15651  0.82788  0.88281  1.0000
  O   O4        1.0  0.84349  0.32788  0.61719  1.0000
  O   O5        1.0  0.82111  0.52436  0.25992  1.0000
  O   O6        1.0  0.17887  0.02437  0.24008  1.0000
  O   O7        1.0  0.17890  0.47564  0.74008  1.0000
  O   O8        1.0  0.82113  0.97564  0.75992  1.0000
  O   O9        1.0  0.92727  0.42719  0.15138  1.0000
  O   O10       1.0  0.07272  0.92719  0.34863  1.0000
  O   O11       1.0  0.07273  0.57281  0.84862  1.0000
  O   O12       1.0  0.92728  0.07281  0.65137  1.0000
