data_image0
_chemical_formula_structural       Na4H52C32O16
_chemical_formula_sum              "Na4 H52 C32 O16"
_cell_length_a       6.73461
_cell_length_b       10.1317
_cell_length_c       12.9972
_cell_angle_alpha    91.1961
_cell_angle_beta     90.0001
_cell_angle_gamma    90

_space_group_name_H-M_alt    "P 1"
_space_group_IT_number       1

loop_
  _space_group_symop_operation_xyz
  'x, y, z'

loop_
  _atom_site_type_symbol
  _atom_site_label
  _atom_site_symmetry_multiplicity
  _atom_site_fract_x
  _atom_site_fract_y
  _atom_site_fract_z
  _atom_site_occupancy
  Na  Na1       1.0  0.15715  0.88701  0.55933  1.0000
  Na  Na2       1.0  0.65714  0.61299  0.44067  1.0000
  Na  Na3       1.0  0.84285  0.11299  0.44067  1.0000
  Na  Na4       1.0  0.34285  0.38701  0.55933  1.0000
  H   H1        1.0  0.38091  0.11359  0.56677  1.0000
  H   H2        1.0  0.88091  0.38641  0.43323  1.0000
  H   H3        1.0  0.61909  0.88641  0.43323  1.0000
  H   H4        1.0  0.11909  0.61359  0.56677  1.0000
  H   H5        1.0  0.08059  0.08999  0.81659  1.0000
  H   H6        1.0  0.58059  0.41002  0.18340  1.0000
  H   H7        1.0  0.91941  0.91002  0.18341  1.0000
  H   H8        1.0  0.41941  0.58999  0.81660  1.0000
  H   H9        1.0  0.27539  0.97473  0.81372  1.0000
  H   H10       1.0  0.77539  0.52527  0.18628  1.0000
  H   H11       1.0  0.72461  0.02527  0.18628  1.0000
  H   H12       1.0  0.22461  0.47473  0.81371  1.0000
  H   H13       1.0  0.29951  0.25518  0.91038  1.0000
  H   H14       1.0  0.79951  0.24482  0.08962  1.0000
  H   H15       1.0  0.70049  0.74482  0.08962  1.0000
  H   H16       1.0  0.20049  0.75518  0.91038  1.0000
  H   H17       1.0  0.49136  0.13802  0.91325  1.0000
  H   H18       1.0  0.99135  0.36198  0.08675  1.0000
  H   H19       1.0  0.50865  0.86198  0.08675  1.0000
  H   H20       1.0  0.00865  0.63802  0.91325  1.0000
  H   H21       1.0  0.08234  0.10582  0.01393  1.0000
  H   H22       1.0  0.58234  0.39418  0.98607  1.0000
  H   H23       1.0  0.91766  0.89418  0.98607  1.0000
  H   H24       1.0  0.41766  0.60582  0.01393  1.0000
  H   H25       1.0  0.27295  0.98678  0.01553  1.0000
  H   H26       1.0  0.77295  0.51322  0.98447  1.0000
  H   H27       1.0  0.72705  0.01322  0.98447  1.0000
  H   H28       1.0  0.22705  0.48678  0.01553  1.0000
  H   H29       1.0  0.29799  0.26798  0.10697  1.0000
  H   H30       1.0  0.79799  0.23202  0.89303  1.0000
  H   H31       1.0  0.70201  0.73202  0.89303  1.0000
  H   H32       1.0  0.20201  0.76798  0.10696  1.0000
  H   H33       1.0  0.49681  0.15555  0.10457  1.0000
  H   H34       1.0  0.99681  0.34445  0.89543  1.0000
  H   H35       1.0  0.50319  0.84445  0.89543  1.0000
  H   H36       1.0  0.00319  0.65555  0.10457  1.0000
  H   H37       1.0  0.09944  0.10919  0.21415  1.0000
  H   H38       1.0  0.59944  0.39081  0.78585  1.0000
  H   H39       1.0  0.90056  0.89081  0.78585  1.0000
  H   H40       1.0  0.40056  0.60919  0.21415  1.0000
  H   H41       1.0  0.30405  0.00029  0.21383  1.0000
  H   H42       1.0  0.80405  0.49971  0.78617  1.0000
  H   H43       1.0  0.69595  0.99971  0.78617  1.0000
  H   H44       1.0  0.19595  0.50029  0.21383  1.0000
  H   H45       1.0  0.51375  0.18775  0.29294  1.0000
  H   H46       1.0  0.01374  0.31225  0.70706  1.0000
  H   H47       1.0  0.48626  0.81225  0.70706  1.0000
  H   H48       1.0  0.98626  0.68775  0.29294  1.0000
  H   H49       1.0  0.29796  0.28352  0.30465  1.0000
  H   H50       1.0  0.79796  0.21647  0.69535  1.0000
  H   H51       1.0  0.70204  0.71648  0.69535  1.0000
  H   H52       1.0  0.20204  0.78352  0.30465  1.0000
  C   C1        1.0  0.31381  0.14228  0.71813  1.0000
  C   C2        1.0  0.81382  0.35772  0.28187  1.0000
  C   C3        1.0  0.68619  0.85772  0.28187  1.0000
  C   C4        1.0  0.18619  0.64228  0.71813  1.0000
  C   C5        1.0  0.24396  0.08107  0.81678  1.0000
  C   C6        1.0  0.74396  0.41893  0.18322  1.0000
  C   C7        1.0  0.75604  0.91893  0.18323  1.0000
  C   C8        1.0  0.25604  0.58107  0.81678  1.0000
  C   C9        1.0  0.32850  0.14846  0.91334  1.0000
  C   C10       1.0  0.82850  0.35154  0.08666  1.0000
  C   C11       1.0  0.67149  0.85154  0.08666  1.0000
  C   C12       1.0  0.17149  0.64846  0.91334  1.0000
  C   C13       1.0  0.24491  0.09404  0.01297  1.0000
  C   C14       1.0  0.74491  0.40596  0.98703  1.0000
  C   C15       1.0  0.75509  0.90596  0.98703  1.0000
  C   C16       1.0  0.25509  0.59404  0.01297  1.0000
  C   C17       1.0  0.33345  0.16160  0.10842  1.0000
  C   C18       1.0  0.83345  0.33840  0.89158  1.0000
  C   C19       1.0  0.66655  0.83840  0.89158  1.0000
  C   C20       1.0  0.16655  0.66159  0.10842  1.0000
  C   C21       1.0  0.26205  0.10529  0.21004  1.0000
  C   C22       1.0  0.76205  0.39471  0.78996  1.0000
  C   C23       1.0  0.73795  0.89471  0.78996  1.0000
  C   C24       1.0  0.23795  0.60529  0.21004  1.0000
  C   C25       1.0  0.35187  0.18055  0.30155  1.0000
  C   C26       1.0  0.85187  0.31945  0.69845  1.0000
  C   C27       1.0  0.64813  0.81945  0.69845  1.0000
  C   C28       1.0  0.14813  0.68055  0.30155  1.0000
  C   C29       1.0  0.31333  0.12353  0.40615  1.0000
  C   C30       1.0  0.81333  0.37647  0.59385  1.0000
  C   C31       1.0  0.68668  0.87647  0.59385  1.0000
  C   C32       1.0  0.18667  0.62353  0.40615  1.0000
  O   O1        1.0  0.33902  0.05922  0.64004  1.0000
  O   O2        1.0  0.83902  0.44078  0.35996  1.0000
  O   O3        1.0  0.66098  0.94078  0.35996  1.0000
  O   O4        1.0  0.16098  0.55922  0.64004  1.0000
  O   O5        1.0  0.34049  0.26331  0.71101  1.0000
  O   O6        1.0  0.84049  0.23669  0.28899  1.0000
  O   O7        1.0  0.65951  0.73669  0.28899  1.0000
  O   O8        1.0  0.15951  0.76331  0.71101  1.0000
  O   O9        1.0  0.42527  0.17095  0.48050  1.0000
  O   O10       1.0  0.92527  0.32904  0.51950  1.0000
  O   O11       1.0  0.57473  0.82904  0.51950  1.0000
  O   O12       1.0  0.07473  0.67096  0.48050  1.0000
  O   O13       1.0  0.18145  0.03789  0.42013  1.0000
  O   O14       1.0  0.68145  0.46210  0.57986  1.0000
  O   O15       1.0  0.81854  0.96211  0.57987  1.0000
  O   O16       1.0  0.31853  0.53789  0.42013  1.0000
