data_image0
_chemical_formula_structural       Na4H28C20O16
_chemical_formula_sum              "Na4 H28 C20 O16"
_cell_length_a       5.24856
_cell_length_b       6.90988
_cell_length_c       18.5457
_cell_angle_alpha    90.0027
_cell_angle_beta     90.0013
_cell_angle_gamma    110.289

_space_group_name_H-M_alt    "P 1"
_space_group_IT_number       1

loop_
  _space_group_symop_operation_xyz
  'x, y, z'

loop_
  _atom_site_type_symbol
  _atom_site_label
  _atom_site_symmetry_multiplicity
  _atom_site_fract_x
  _atom_site_fract_y
  _atom_site_fract_z
  _atom_site_occupancy
  Na  Na1       1.0  0.21236  0.71758  0.54767  1.0000
  Na  Na2       1.0  0.28766  0.78242  0.04768  1.0000
  Na  Na3       1.0  0.78768  0.28241  0.45232  1.0000
  Na  Na4       1.0  0.71233  0.21760  0.95232  1.0000
  H   H1        1.0  0.04197  0.78996  0.72709  1.0000
  H   H2        1.0  0.45801  0.71003  0.22708  1.0000
  H   H3        1.0  0.95806  0.21000  0.27291  1.0000
  H   H4        1.0  0.54193  0.28999  0.77291  1.0000
  H   H5        1.0  0.79754  0.54623  0.72844  1.0000
  H   H6        1.0  0.70245  0.95375  0.22845  1.0000
  H   H7        1.0  0.20247  0.45374  0.27156  1.0000
  H   H8        1.0  0.29751  0.04626  0.77156  1.0000
  H   H9        1.0  0.48909  0.66252  0.80591  1.0000
  H   H10       1.0  0.01090  0.83745  0.30592  1.0000
  H   H11       1.0  0.51094  0.33747  0.19409  1.0000
  H   H12       1.0  0.98906  0.16253  0.69408  1.0000
  H   H13       1.0  0.70972  0.91974  0.80063  1.0000
  H   H14       1.0  0.79024  0.58023  0.30062  1.0000
  H   H15       1.0  0.29030  0.08025  0.19937  1.0000
  H   H16       1.0  0.20970  0.41976  0.69936  1.0000
  H   H17       1.0  0.87532  0.56696  0.86271  1.0000
  H   H18       1.0  0.62467  0.93304  0.36271  1.0000
  H   H19       1.0  0.12470  0.43304  0.13730  1.0000
  H   H20       1.0  0.37532  0.06696  0.63730  1.0000
  H   H21       1.0  0.07885  0.82598  0.86246  1.0000
  H   H22       1.0  0.42113  0.67402  0.36245  1.0000
  H   H23       1.0  0.92118  0.17402  0.13755  1.0000
  H   H24       1.0  0.57885  0.32598  0.63756  1.0000
  H   H25       1.0  0.74909  0.79952  0.55319  1.0000
  H   H26       1.0  0.75089  0.70043  0.05319  1.0000
  H   H27       1.0  0.25096  0.20048  0.44681  1.0000
  H   H28       1.0  0.24908  0.29957  0.94681  1.0000
  C   C1        1.0  0.69552  0.75630  0.66241  1.0000
  C   C2        1.0  0.80446  0.74368  0.16240  1.0000
  C   C3        1.0  0.30452  0.24368  0.33760  1.0000
  C   C4        1.0  0.19548  0.25634  0.83760  1.0000
  C   C5        1.0  0.82111  0.71112  0.73061  1.0000
  C   C6        1.0  0.67886  0.78886  0.23061  1.0000
  C   C7        1.0  0.17891  0.28885  0.26939  1.0000
  C   C8        1.0  0.32108  0.21116  0.76939  1.0000
  C   C9        1.0  0.70425  0.75950  0.80083  1.0000
  C   C10       1.0  0.79572  0.74048  0.30084  1.0000
  C   C11       1.0  0.29578  0.24049  0.19917  1.0000
  C   C12       1.0  0.20422  0.25952  0.69916  1.0000
  C   C13       1.0  0.86449  0.72284  0.86478  1.0000
  C   C14       1.0  0.63550  0.77716  0.36478  1.0000
  C   C15       1.0  0.13554  0.27717  0.13522  1.0000
  C   C16       1.0  0.36448  0.22283  0.63522  1.0000
  C   C17       1.0  0.76152  0.75298  0.93857  1.0000
  C   C18       1.0  0.73852  0.74701  0.43857  1.0000
  C   C19       1.0  0.23851  0.24703  0.06143  1.0000
  C   C20       1.0  0.26150  0.25298  0.56143  1.0000
  O   O1        1.0  0.84955  0.77348  0.60478  1.0000
  O   O2        1.0  0.65043  0.72643  0.10477  1.0000
  O   O3        1.0  0.15049  0.22651  0.39522  1.0000
  O   O4        1.0  0.34953  0.27357  0.89522  1.0000
  O   O5        1.0  0.46638  0.77125  0.65981  1.0000
  O   O6        1.0  0.03364  0.72880  0.15982  1.0000
  O   O7        1.0  0.53366  0.22871  0.34018  1.0000
  O   O8        1.0  0.96632  0.27125  0.84018  1.0000
  O   O9        1.0  0.85244  0.67059  0.99141  1.0000
  O   O10       1.0  0.64754  0.82941  0.49141  1.0000
  O   O11       1.0  0.14754  0.32942  0.00859  1.0000
  O   O12       1.0  0.35251  0.17059  0.50859  1.0000
  O   O13       1.0  0.60280  0.85163  0.94774  1.0000
  O   O14       1.0  0.89722  0.64838  0.44773  1.0000
  O   O15       1.0  0.39723  0.14840  0.05226  1.0000
  O   O16       1.0  0.10281  0.35162  0.55226  1.0000
