data_image0
_chemical_formula_structural       Li4H24C16O8
_chemical_formula_sum              "Li4 H24 C16 O8"
_cell_length_a       4.82038
_cell_length_b       9.21456
_cell_length_c       10.525
_cell_angle_alpha    115.768
_cell_angle_beta     89.9997
_cell_angle_gamma    90.0003

_space_group_name_H-M_alt    "P 1"
_space_group_IT_number       1

loop_
  _space_group_symop_operation_xyz
  'x, y, z'

loop_
  _atom_site_type_symbol
  _atom_site_label
  _atom_site_symmetry_multiplicity
  _atom_site_fract_x
  _atom_site_fract_y
  _atom_site_fract_z
  _atom_site_occupancy
  Li  Li1       1.0  0.91395  0.14153  0.99532  1.0000
  Li  Li2       1.0  0.41393  0.35847  0.00468  1.0000
  Li  Li3       1.0  0.08606  0.85847  0.00468  1.0000
  Li  Li4       1.0  0.58605  0.64153  0.99532  1.0000
  H   H1        1.0  0.59001  0.26336  0.35467  1.0000
  H   H2        1.0  0.09002  0.23664  0.64533  1.0000
  H   H3        1.0  0.40999  0.73663  0.64533  1.0000
  H   H4        1.0  0.90997  0.76337  0.35467  1.0000
  H   H5        1.0  0.78666  0.09989  0.24025  1.0000
  H   H6        1.0  0.28665  0.40011  0.75975  1.0000
  H   H7        1.0  0.21335  0.90010  0.75975  1.0000
  H   H8        1.0  0.71334  0.59988  0.24025  1.0000
  H   H9        1.0  0.43907  0.90626  0.25233  1.0000
  H   H10       1.0  0.93909  0.59375  0.74767  1.0000
  H   H11       1.0  0.56092  0.09374  0.74767  1.0000
  H   H12       1.0  0.06092  0.40627  0.25233  1.0000
  H   H13       1.0  0.20956  0.06495  0.34985  1.0000
  H   H14       1.0  0.70956  0.43506  0.65016  1.0000
  H   H15       1.0  0.79044  0.93506  0.65016  1.0000
  H   H16       1.0  0.29043  0.56495  0.34983  1.0000
  H   H17       1.0  0.56620  0.17822  0.54470  1.0000
  H   H18       1.0  0.06618  0.32178  0.45530  1.0000
  H   H19       1.0  0.43383  0.82178  0.45531  1.0000
  H   H20       1.0  0.93382  0.67822  0.54469  1.0000
  H   H21       1.0  0.78912  0.01708  0.44676  1.0000
  H   H22       1.0  0.28913  0.48292  0.55324  1.0000
  H   H23       1.0  0.21089  0.98292  0.55325  1.0000
  H   H24       1.0  0.71088  0.51707  0.44676  1.0000
  C   C1        1.0  0.43166  0.15343  0.14890  1.0000
  C   C2        1.0  0.93166  0.34657  0.85109  1.0000
  C   C3        1.0  0.56834  0.84656  0.85109  1.0000
  C   C4        1.0  0.06834  0.65344  0.14890  1.0000
  C   C5        1.0  0.57127  0.13871  0.27179  1.0000
  C   C6        1.0  0.07125  0.36129  0.72823  1.0000
  C   C7        1.0  0.42875  0.86129  0.72822  1.0000
  C   C8        1.0  0.92873  0.63871  0.27178  1.0000
  C   C9        1.0  0.43081  0.03314  0.33074  1.0000
  C   C10       1.0  0.93081  0.46687  0.66926  1.0000
  C   C11       1.0  0.56919  0.96686  0.66926  1.0000
  C   C12       1.0  0.06919  0.53314  0.33074  1.0000
  C   C13       1.0  0.56815  0.05051  0.46741  1.0000
  C   C14       1.0  0.06815  0.44949  0.53259  1.0000
  C   C15       1.0  0.43186  0.94949  0.53260  1.0000
  C   C16       1.0  0.93185  0.55051  0.46740  1.0000
  O   O1        1.0  0.56268  0.23302  0.09401  1.0000
  O   O2        1.0  0.06268  0.26697  0.90600  1.0000
  O   O3        1.0  0.43732  0.76699  0.90600  1.0000
  O   O4        1.0  0.93730  0.73302  0.09402  1.0000
  O   O5        1.0  0.19311  0.09160  0.10722  1.0000
  O   O6        1.0  0.69306  0.40840  0.89278  1.0000
  O   O7        1.0  0.80694  0.90840  0.89278  1.0000
  O   O8        1.0  0.30688  0.59161  0.10721  1.0000
