data_image0
_chemical_formula_structural       Cu4H32C40N12Cl4O8
_chemical_formula_sum              "Cu4 H32 C40 N12 Cl4 O8"
_cell_length_a       6.87817
_cell_length_b       9.09109
_cell_length_c       16.9095
_cell_angle_alpha    103.197
_cell_angle_beta     90.0008
_cell_angle_gamma    90.0004

_space_group_name_H-M_alt    "P 1"
_space_group_IT_number       1

loop_
  _space_group_symop_operation_xyz
  'x, y, z'

loop_
  _atom_site_type_symbol
  _atom_site_label
  _atom_site_symmetry_multiplicity
  _atom_site_fract_x
  _atom_site_fract_y
  _atom_site_fract_z
  _atom_site_occupancy
  Cu  Cu1       1.0  0.82418  0.65158  0.87425  1.0000
  Cu  Cu2       1.0  0.32417  0.34844  0.62576  1.0000
  Cu  Cu3       1.0  0.17581  0.34841  0.12575  1.0000
  Cu  Cu4       1.0  0.67581  0.65158  0.37425  1.0000
  H   H1        1.0  0.85881  0.12530  0.92392  1.0000
  H   H2        1.0  0.35881  0.87471  0.57607  1.0000
  H   H3        1.0  0.14118  0.87468  0.07607  1.0000
  H   H4        1.0  0.64118  0.12530  0.42391  1.0000
  H   H5        1.0  0.75760  0.31534  0.07103  1.0000
  H   H6        1.0  0.25761  0.68466  0.42895  1.0000
  H   H7        1.0  0.24241  0.68464  0.92895  1.0000
  H   H8        1.0  0.74240  0.31534  0.57103  1.0000
  H   H9        1.0  0.64372  0.59883  0.15559  1.0000
  H   H10       1.0  0.14372  0.40114  0.34441  1.0000
  H   H11       1.0  0.35632  0.40114  0.84441  1.0000
  H   H12       1.0  0.85627  0.59883  0.65559  1.0000
  H   H13       1.0  0.57936  0.87003  0.21606  1.0000
  H   H14       1.0  0.07933  0.12994  0.28395  1.0000
  H   H15       1.0  0.42069  0.12994  0.78395  1.0000
  H   H16       1.0  0.92061  0.87003  0.71607  1.0000
  H   H17       1.0  0.59434  0.05779  0.12603  1.0000
  H   H18       1.0  0.09432  0.94221  0.37399  1.0000
  H   H19       1.0  0.40569  0.94221  0.87398  1.0000
  H   H20       1.0  0.90564  0.05778  0.62604  1.0000
  H   H21       1.0  0.70290  0.96299  0.98130  1.0000
  H   H22       1.0  0.20289  0.03704  0.51872  1.0000
  H   H23       1.0  0.29710  0.03699  0.01870  1.0000
  H   H24       1.0  0.79709  0.96300  0.48131  1.0000
  H   H25       1.0  0.71031  0.25261  0.76358  1.0000
  H   H26       1.0  0.21029  0.74742  0.73641  1.0000
  H   H27       1.0  0.28970  0.74736  0.23641  1.0000
  H   H28       1.0  0.78971  0.25264  0.26358  1.0000
  H   H29       1.0  0.93206  0.16678  0.78383  1.0000
  H   H30       1.0  0.43205  0.83326  0.71616  1.0000
  H   H31       1.0  0.06796  0.83322  0.21616  1.0000
  H   H32       1.0  0.56795  0.16678  0.28383  1.0000
  C   C1        1.0  0.82262  0.24495  0.93929  1.0000
  C   C2        1.0  0.32261  0.75506  0.56071  1.0000
  C   C3        1.0  0.17741  0.75504  0.06071  1.0000
  C   C4        1.0  0.67739  0.24495  0.43928  1.0000
  C   C5        1.0  0.77226  0.34325  0.01230  1.0000
  C   C6        1.0  0.27227  0.65675  0.48769  1.0000
  C   C7        1.0  0.22776  0.65674  0.98769  1.0000
  C   C8        1.0  0.72774  0.34325  0.51230  1.0000
  C   C9        1.0  0.74812  0.48482  0.99289  1.0000
  C   C10       1.0  0.24814  0.51518  0.50711  1.0000
  C   C11       1.0  0.25187  0.51516  0.00710  1.0000
  C   C12       1.0  0.75188  0.48483  0.49289  1.0000
  C   C13       1.0  0.70783  0.63872  0.03692  1.0000
  C   C14       1.0  0.20785  0.36127  0.46308  1.0000
  C   C15       1.0  0.29218  0.36125  0.96308  1.0000
  C   C16       1.0  0.79217  0.63873  0.53692  1.0000
  C   C17       1.0  0.65679  0.68244  0.11876  1.0000
  C   C18       1.0  0.15678  0.31754  0.38124  1.0000
  C   C19       1.0  0.34324  0.31753  0.88124  1.0000
  C   C20       1.0  0.84320  0.68244  0.61876  1.0000
  C   C21       1.0  0.61750  0.83463  0.15181  1.0000
  C   C22       1.0  0.11747  0.16536  0.34820  1.0000
  C   C23       1.0  0.38255  0.16534  0.84819  1.0000
  C   C24       1.0  0.88247  0.83463  0.65182  1.0000
  C   C25       1.0  0.62794  0.93855  0.10270  1.0000
  C   C26       1.0  0.12793  0.06145  0.39731  1.0000
  C   C27       1.0  0.37209  0.06144  0.89730  1.0000
  C   C28       1.0  0.87203  0.93855  0.60271  1.0000
  C   C29       1.0  0.68513  0.88714  0.02206  1.0000
  C   C30       1.0  0.18511  0.11287  0.47795  1.0000
  C   C31       1.0  0.31488  0.11284  0.97794  1.0000
  C   C32       1.0  0.81486  0.88715  0.52207  1.0000
  C   C33       1.0  0.85300  0.27394  0.79397  1.0000
  C   C34       1.0  0.35298  0.72610  0.70603  1.0000
  C   C35       1.0  0.14701  0.72605  0.20603  1.0000
  C   C36       1.0  0.64701  0.27394  0.29396  1.0000
  C   C37       1.0  0.96070  0.38056  0.75021  1.0000
  C   C38       1.0  0.46068  0.61948  0.74980  1.0000
  C   C39       1.0  0.03928  0.61944  0.24978  1.0000
  C   C40       1.0  0.53929  0.38056  0.25021  1.0000
  N   N1        1.0  0.77874  0.47026  0.91264  1.0000
  N   N2        1.0  0.27876  0.52975  0.58736  1.0000
  N   N3        1.0  0.22124  0.52972  0.08735  1.0000
  N   N4        1.0  0.72126  0.47027  0.41264  1.0000
  N   N5        1.0  0.82602  0.32635  0.88098  1.0000
  N   N6        1.0  0.32600  0.67367  0.61902  1.0000
  N   N7        1.0  0.17400  0.67363  0.11902  1.0000
  N   N8        1.0  0.67400  0.32635  0.38097  1.0000
  N   N9        1.0  0.72496  0.74190  0.99018  1.0000
  N   N10       1.0  0.22496  0.25811  0.50983  1.0000
  N   N11       1.0  0.27504  0.25808  0.00982  1.0000
  N   N12       1.0  0.77505  0.74190  0.49018  1.0000
  Cl  Cl1       1.0  0.96485  0.86546  0.85879  1.0000
  Cl  Cl2       1.0  0.46485  0.13456  0.64123  1.0000
  Cl  Cl3       1.0  0.03516  0.13453  0.14122  1.0000
  Cl  Cl4       1.0  0.53516  0.86546  0.35878  1.0000
  O   O1        1.0  0.96829  0.52414  0.77828  1.0000
  O   O2        1.0  0.46827  0.47591  0.72174  1.0000
  O   O3        1.0  0.03168  0.47587  0.22172  1.0000
  O   O4        1.0  0.53171  0.52413  0.27828  1.0000
  O   O5        1.0  0.03153  0.31418  0.68302  1.0000
  O   O6        1.0  0.53152  0.68586  0.81699  1.0000
  O   O7        1.0  0.96844  0.68583  0.31698  1.0000
  O   O8        1.0  0.46846  0.31418  0.18301  1.0000
