data_image0
_chemical_formula_structural       CdH34C32N4O8
_chemical_formula_sum              "Cd1 H34 C32 N4 O8"
_cell_length_a       4.81035
_cell_length_b       13.3015
_cell_length_c       14.8323
_cell_angle_alpha    111.131
_cell_angle_beta     96.8529
_cell_angle_gamma    92.1837

_space_group_name_H-M_alt    "P 1"
_space_group_IT_number       1

loop_
  _space_group_symop_operation_xyz
  'x, y, z'

loop_
  _atom_site_type_symbol
  _atom_site_label
  _atom_site_symmetry_multiplicity
  _atom_site_fract_x
  _atom_site_fract_y
  _atom_site_fract_z
  _atom_site_occupancy
  Cd  Cd1       1.0  0.49999  0.00000  0.00000  1.0000
  H   H1        1.0  0.14688  0.13877  0.08272  1.0000
  H   H2        1.0  0.85308  0.86123  0.91727  1.0000
  H   H3        1.0  0.41346  0.22548  0.10888  1.0000
  H   H4        1.0  0.58652  0.77451  0.89111  1.0000
  H   H5        1.0  0.68233  0.28935  0.76470  1.0000
  H   H6        1.0  0.31768  0.71066  0.23530  1.0000
  H   H7        1.0  0.72428  0.13903  0.78697  1.0000
  H   H8        1.0  0.27571  0.86097  0.21303  1.0000
  H   H9        1.0  0.24107  0.30042  0.62548  1.0000
  H   H10       1.0  0.75896  0.69958  0.37453  1.0000
  H   H11       1.0  0.32590  0.44998  0.56816  1.0000
  H   H12       1.0  0.67411  0.55002  0.43184  1.0000
  H   H13       1.0  0.08391  0.61933  0.63137  1.0000
  H   H14       1.0  0.91610  0.38067  0.36863  1.0000
  H   H15       1.0  0.68148  0.48741  0.81443  1.0000
  H   H16       1.0  0.31852  0.51260  0.18557  1.0000
  H   H17       1.0  0.29458  0.10405  0.84852  1.0000
  H   H18       1.0  0.70540  0.89595  0.15147  1.0000
  H   H19       1.0  0.29302  0.01199  0.67398  1.0000
  H   H20       1.0  0.70699  0.98801  0.32602  1.0000
  H   H21       1.0  0.32302  0.92246  0.73766  1.0000
  H   H22       1.0  0.67697  0.07754  0.26234  1.0000
  H   H23       1.0  0.87335  0.99835  0.55726  1.0000
  H   H24       1.0  0.12666  0.00165  0.44274  1.0000
  H   H25       1.0  0.45654  0.88371  0.44807  1.0000
  H   H26       1.0  0.54348  0.11628  0.55193  1.0000
  H   H27       1.0  0.26993  0.72151  0.47583  1.0000
  H   H28       1.0  0.73008  0.27848  0.52417  1.0000
  H   H29       1.0  0.51240  0.67217  0.61027  1.0000
  H   H30       1.0  0.48761  0.32783  0.38973  1.0000
  H   H31       1.0  0.93137  0.78691  0.71796  1.0000
  H   H32       1.0  0.06863  0.21309  0.28205  1.0000
  H   H33       1.0  0.76451  0.63735  0.75582  1.0000
  H   H34       1.0  0.23551  0.36266  0.24418  1.0000
  C   C1        1.0  0.14095  0.37497  0.65540  1.0000
  C   C2        1.0  0.85907  0.62503  0.34461  1.0000
  C   C3        1.0  0.18668  0.45953  0.62299  1.0000
  C   C4        1.0  0.81334  0.54047  0.37702  1.0000
  C   C5        1.0  0.05266  0.55444  0.65858  1.0000
  C   C6        1.0  0.94736  0.44556  0.34142  1.0000
  C   C7        1.0  0.82492  0.48025  0.76116  1.0000
  C   C8        1.0  0.17507  0.51975  0.23884  1.0000
  C   C9        1.0  0.95766  0.38450  0.72438  1.0000
  C   C10       1.0  0.04235  0.61550  0.27562  1.0000
  C   C11       1.0  0.06313  0.22309  0.76396  1.0000
  C   C12       1.0  0.93686  0.77691  0.23604  1.0000
  C   C13       1.0  0.09632  0.06126  0.80356  1.0000
  C   C14       1.0  0.90367  0.93874  0.19644  1.0000
  C   C15       1.0  0.17723  0.97130  0.71243  1.0000
  C   C16       1.0  0.82277  0.02870  0.28757  1.0000
  C   C17       1.0  0.92828  0.90108  0.64569  1.0000
  C   C18       1.0  0.07173  0.09892  0.35430  1.0000
  C   C19       1.0  0.79188  0.92720  0.56919  1.0000
  C   C20       1.0  0.20814  0.07279  0.43081  1.0000
  C   C21       1.0  0.55706  0.86303  0.50821  1.0000
  C   C22       1.0  0.44294  0.13696  0.49179  1.0000
  C   C23       1.0  0.45343  0.77163  0.52323  1.0000
  C   C24       1.0  0.54657  0.22836  0.47678  1.0000
  C   C25       1.0  0.58862  0.74433  0.59882  1.0000
  C   C26       1.0  0.41139  0.25567  0.40118  1.0000
  C   C27       1.0  0.82367  0.80858  0.65940  1.0000
  C   C28       1.0  0.17633  0.19142  0.34060  1.0000
  C   C29       1.0  0.94994  0.01300  0.86598  1.0000
  C   C30       1.0  0.05004  0.98701  0.13402  1.0000
  C   C31       1.0  0.87258  0.56408  0.72796  1.0000
  C   C32       1.0  0.12743  0.43592  0.27204  1.0000
  N   N1        1.0  0.88727  0.29852  0.75361  1.0000
  N   N2        1.0  0.11274  0.70149  0.24640  1.0000
  N   N3        1.0  0.93214  0.13926  0.77965  1.0000
  N   N4        1.0  0.06784  0.86074  0.22034  1.0000
  O   O1        1.0  0.32198  0.22872  0.76003  1.0000
  O   O2        1.0  0.67801  0.77128  0.23997  1.0000
  O   O3        1.0  0.71426  0.04417  0.88879  1.0000
  O   O4        1.0  0.28573  0.95584  0.11121  1.0000
  O   O5        1.0  0.07575  0.94160  0.89151  1.0000
  O   O6        1.0  0.92422  0.05840  0.10848  1.0000
  O   O7        1.0  0.30098  0.16727  0.05531  1.0000
  O   O8        1.0  0.69898  0.83273  0.94468  1.0000
