data_image0
_chemical_formula_structural       H16Pb4C20N8O20
_chemical_formula_sum              "H16 Pb4 C20 N8 O20"
_cell_length_a       6.71734
_cell_length_b       8.56674
_cell_length_c       12.3251
_cell_angle_alpha    93.9895
_cell_angle_beta     89.9985
_cell_angle_gamma    90.001

_space_group_name_H-M_alt    "P 1"
_space_group_IT_number       1

loop_
  _space_group_symop_operation_xyz
  'x, y, z'

loop_
  _atom_site_type_symbol
  _atom_site_label
  _atom_site_symmetry_multiplicity
  _atom_site_fract_x
  _atom_site_fract_y
  _atom_site_fract_z
  _atom_site_occupancy
  H   H1        1.0  0.71426  0.08368  0.93396  1.0000
  H   H2        1.0  0.21427  0.41632  0.56604  1.0000
  H   H3        1.0  0.28572  0.91632  0.06604  1.0000
  H   H4        1.0  0.78576  0.58368  0.43396  1.0000
  H   H5        1.0  0.02953  0.58104  0.89587  1.0000
  H   H6        1.0  0.52955  0.91897  0.60413  1.0000
  H   H7        1.0  0.97046  0.41895  0.10413  1.0000
  H   H8        1.0  0.47046  0.08103  0.39588  1.0000
  H   H9        1.0  0.04191  0.76142  0.90635  1.0000
  H   H10       1.0  0.54188  0.73859  0.59363  1.0000
  H   H11       1.0  0.95810  0.23858  0.09364  1.0000
  H   H12       1.0  0.45813  0.26142  0.40636  1.0000
  H   H13       1.0  0.76069  0.14706  0.59734  1.0000
  H   H14       1.0  0.26069  0.35295  0.90267  1.0000
  H   H15       1.0  0.23930  0.85295  0.40267  1.0000
  H   H16       1.0  0.73933  0.64705  0.09733  1.0000
  Pb  Pb1       1.0  0.59567  0.69064  0.85459  1.0000
  Pb  Pb2       1.0  0.09570  0.80931  0.64539  1.0000
  Pb  Pb3       1.0  0.40431  0.30934  0.14542  1.0000
  Pb  Pb4       1.0  0.90431  0.19064  0.35458  1.0000
  C   C1        1.0  0.72650  0.35204  0.70766  1.0000
  C   C2        1.0  0.22647  0.14796  0.79234  1.0000
  C   C3        1.0  0.27350  0.64796  0.29235  1.0000
  C   C4        1.0  0.77352  0.85204  0.20766  1.0000
  C   C5        1.0  0.74362  0.19400  0.68091  1.0000
  C   C6        1.0  0.24363  0.30600  0.81909  1.0000
  C   C7        1.0  0.25636  0.80601  0.31909  1.0000
  C   C8        1.0  0.75636  0.69400  0.18091  1.0000
  C   C9        1.0  0.74020  0.08976  0.76626  1.0000
  C   C10       1.0  0.24022  0.41024  0.73374  1.0000
  C   C11       1.0  0.25978  0.91024  0.23374  1.0000
  C   C12       1.0  0.75979  0.58976  0.26625  1.0000
  C   C13       1.0  0.68946  0.31733  0.89396  1.0000
  C   C14       1.0  0.18946  0.18266  0.60604  1.0000
  C   C15       1.0  0.31053  0.68268  0.10604  1.0000
  C   C16       1.0  0.81054  0.81733  0.39395  1.0000
  C   C17       1.0  0.73626  0.47143  0.62195  1.0000
  C   C18       1.0  0.23625  0.02857  0.87806  1.0000
  C   C19       1.0  0.26375  0.52858  0.37806  1.0000
  C   C20       1.0  0.76374  0.97142  0.12194  1.0000
  N   N1        1.0  0.69918  0.41296  0.81073  1.0000
  N   N2        1.0  0.19919  0.08703  0.68928  1.0000
  N   N3        1.0  0.30081  0.58704  0.18928  1.0000
  N   N4        1.0  0.80082  0.91296  0.31072  1.0000
  N   N5        1.0  0.71723  0.15823  0.87029  1.0000
  N   N6        1.0  0.21724  0.34177  0.62971  1.0000
  N   N7        1.0  0.28276  0.84178  0.12971  1.0000
  N   N8        1.0  0.78277  0.65823  0.37029  1.0000
  O   O1        1.0  0.69926  0.61389  0.65557  1.0000
  O   O2        1.0  0.19928  0.88611  0.84443  1.0000
  O   O3        1.0  0.30076  0.38612  0.34443  1.0000
  O   O4        1.0  0.80071  0.11389  0.15558  1.0000
  O   O5        1.0  0.78252  0.42798  0.52573  1.0000
  O   O6        1.0  0.28253  0.07203  0.97427  1.0000
  O   O7        1.0  0.21747  0.57202  0.47428  1.0000
  O   O8        1.0  0.71747  0.92798  0.02573  1.0000
  O   O9        1.0  0.75716  0.94198  0.75152  1.0000
  O   O10       1.0  0.25715  0.55802  0.74848  1.0000
  O   O11       1.0  0.24282  0.05802  0.24848  1.0000
  O   O12       1.0  0.74287  0.44198  0.25152  1.0000
  O   O13       1.0  0.65681  0.37239  0.98950  1.0000
  O   O14       1.0  0.15681  0.12760  0.51050  1.0000
  O   O15       1.0  0.34319  0.62760  0.01051  1.0000
  O   O16       1.0  0.84321  0.87239  0.48949  1.0000
  O   O17       1.0  0.95020  0.67285  0.91881  1.0000
  O   O18       1.0  0.45020  0.82717  0.58119  1.0000
  O   O19       1.0  0.04979  0.32715  0.08118  1.0000
  O   O20       1.0  0.54980  0.17283  0.41882  1.0000
