data_image0
_chemical_formula_structural       Zn4Sn4H64C24Se14N12
_chemical_formula_sum              "Zn4 Sn4 H64 C24 Se14 N12"
_cell_length_a       10.329
_cell_length_b       11.0471
_cell_length_c       13.7512
_cell_angle_alpha    89.9999
_cell_angle_beta     110.13
_cell_angle_gamma    90.0001

_space_group_name_H-M_alt    "P 1"
_space_group_IT_number       1

loop_
  _space_group_symop_operation_xyz
  'x, y, z'

loop_
  _atom_site_type_symbol
  _atom_site_label
  _atom_site_symmetry_multiplicity
  _atom_site_fract_x
  _atom_site_fract_y
  _atom_site_fract_z
  _atom_site_occupancy
  Zn  Zn1       1.0  0.96411  0.73950  0.94116  1.0000
  Zn  Zn2       1.0  0.03589  0.23951  0.05884  1.0000
  Zn  Zn3       1.0  0.07449  0.53590  0.45976  1.0000
  Zn  Zn4       1.0  0.92551  0.03590  0.54024  1.0000
  Sn  Sn1       1.0  0.05423  0.73382  0.69433  1.0000
  Sn  Sn2       1.0  0.94578  0.23383  0.30568  1.0000
  Sn  Sn3       1.0  0.04662  0.05095  0.83473  1.0000
  Sn  Sn4       1.0  0.95338  0.55095  0.16527  1.0000
  H   H1        1.0  0.84902  0.61457  0.47079  1.0000
  H   H2        1.0  0.15098  0.11457  0.52921  1.0000
  H   H3        1.0  0.80852  0.50227  0.38535  1.0000
  H   H4        1.0  0.19148  0.00227  0.61465  1.0000
  H   H5        1.0  0.71371  0.40442  0.61573  1.0000
  H   H6        1.0  0.28629  0.90442  0.38427  1.0000
  H   H7        1.0  0.71286  0.55735  0.57717  1.0000
  H   H8        1.0  0.28714  0.05735  0.42283  1.0000
  H   H9        1.0  0.52525  0.61707  0.44874  1.0000
  H   H10       1.0  0.47475  0.11707  0.55126  1.0000
  H   H11       1.0  0.43188  0.50943  0.49495  1.0000
  H   H12       1.0  0.56812  0.00943  0.50505  1.0000
  H   H13       1.0  0.29437  0.56399  0.31551  1.0000
  H   H14       1.0  0.70563  0.06399  0.68449  1.0000
  H   H15       1.0  0.43612  0.52908  0.27247  1.0000
  H   H16       1.0  0.56388  0.02908  0.72753  1.0000
  H   H17       1.0  0.27100  0.37427  0.23517  1.0000
  H   H18       1.0  0.72900  0.87427  0.76483  1.0000
  H   H19       1.0  0.28021  0.35913  0.35923  1.0000
  H   H20       1.0  0.71979  0.85913  0.64077  1.0000
  H   H21       1.0  0.41456  0.20049  0.32785  1.0000
  H   H22       1.0  0.58544  0.70050  0.67215  1.0000
  H   H23       1.0  0.50889  0.30524  0.27874  1.0000
  H   H24       1.0  0.49111  0.80525  0.72126  1.0000
  H   H25       1.0  0.64632  0.25575  0.45900  1.0000
  H   H26       1.0  0.35368  0.75575  0.54100  1.0000
  H   H27       1.0  0.50591  0.29340  0.50177  1.0000
  H   H28       1.0  0.49410  0.79340  0.49823  1.0000
  H   H29       1.0  0.19166  0.67345  0.08016  1.0000
  H   H30       1.0  0.80834  0.17345  0.91984  1.0000
  H   H31       1.0  0.23033  0.75682  0.99465  1.0000
  H   H32       1.0  0.76967  0.25682  0.00535  1.0000
  H   H33       1.0  0.11386  0.86760  0.14138  1.0000
  H   H34       1.0  0.88613  0.36760  0.85862  1.0000
  H   H35       1.0  0.19362  0.94104  0.06378  1.0000
  H   H36       1.0  0.80638  0.44104  0.93622  1.0000
  H   H37       1.0  0.33808  0.93558  0.24905  1.0000
  H   H38       1.0  0.66192  0.43558  0.75095  1.0000
  H   H39       1.0  0.32718  0.77511  0.25065  1.0000
  H   H40       1.0  0.67282  0.27511  0.74935  1.0000
  H   H41       1.0  0.54956  0.72603  0.30287  1.0000
  H   H42       1.0  0.45044  0.22603  0.69713  1.0000
  H   H43       1.0  0.59530  0.88125  0.32700  1.0000
  H   H44       1.0  0.40470  0.38125  0.67300  1.0000
  H   H45       1.0  0.79230  0.76647  0.31118  1.0000
  H   H46       1.0  0.20770  0.26647  0.68882  1.0000
  H   H47       1.0  0.68716  0.70657  0.18824  1.0000
  H   H48       1.0  0.31284  0.20657  0.81176  1.0000
  H   H49       1.0  0.81531  0.86570  0.16110  1.0000
  H   H50       1.0  0.18469  0.36570  0.83890  1.0000
  H   H51       1.0  0.77027  0.96177  0.24196  1.0000
  H   H52       1.0  0.22973  0.46177  0.75804  1.0000
  H   H53       1.0  0.59822  0.86087  0.03779  1.0000
  H   H54       1.0  0.40178  0.36087  0.96221  1.0000
  H   H55       1.0  0.64526  0.01567  0.06888  1.0000
  H   H56       1.0  0.35474  0.51566  0.93112  1.0000
  H   H57       1.0  0.50586  0.02694  0.18271  1.0000
  H   H58       1.0  0.49414  0.52694  0.81728  1.0000
  H   H59       1.0  0.40209  0.97346  0.05870  1.0000
  H   H60       1.0  0.59791  0.47346  0.94130  1.0000
  H   H61       1.0  0.93960  0.45924  0.61030  1.0000
  H   H62       1.0  0.06040  0.95923  0.38970  1.0000
  H   H63       1.0  0.86547  0.35152  0.51217  1.0000
  H   H64       1.0  0.13453  0.85151  0.48783  1.0000
  C   C1        1.0  0.71798  0.46337  0.55203  1.0000
  C   C2        1.0  0.28201  0.96337  0.44797  1.0000
  C   C3        1.0  0.48716  0.52341  0.43898  1.0000
  C   C4        1.0  0.51284  0.02341  0.56102  1.0000
  C   C5        1.0  0.38691  0.50774  0.32967  1.0000
  C   C6        1.0  0.61309  0.00774  0.67033  1.0000
  C   C7        1.0  0.45748  0.29236  0.33588  1.0000
  C   C8        1.0  0.54252  0.79236  0.66412  1.0000
  C   C9        1.0  0.55716  0.31609  0.44479  1.0000
  C   C10       1.0  0.44284  0.81609  0.55521  1.0000
  C   C11       1.0  0.19830  0.85919  0.11029  1.0000
  C   C12       1.0  0.80170  0.35919  0.88971  1.0000
  C   C13       1.0  0.33253  0.85272  0.20182  1.0000
  C   C14       1.0  0.66747  0.35272  0.79818  1.0000
  C   C15       1.0  0.57389  0.80831  0.26760  1.0000
  C   C16       1.0  0.42611  0.30831  0.73240  1.0000
  C   C17       1.0  0.70230  0.78356  0.24152  1.0000
  C   C18       1.0  0.29770  0.28356  0.75848  1.0000
  C   C19       1.0  0.61536  0.93115  0.09740  1.0000
  C   C20       1.0  0.38464  0.43115  0.90260  1.0000
  C   C21       1.0  0.48910  0.94899  0.12845  1.0000
  C   C22       1.0  0.51090  0.44899  0.87154  1.0000
  C   C23       1.0  0.85527  0.44472  0.53639  1.0000
  C   C24       1.0  0.14473  0.94472  0.46361  1.0000
  Se  Se1       1.0  0.92599  0.17822  0.67627  1.0000
  Se  Se2       1.0  0.07401  0.67823  0.32372  1.0000
  Se  Se3       1.0  0.20474  0.18283  0.97689  1.0000
  Se  Se4       1.0  0.79526  0.68283  0.02311  1.0000
  Se  Se5       1.0  0.21916  0.60748  0.63354  1.0000
  Se  Se6       1.0  0.78085  0.10748  0.36646  1.0000
  Se  Se7       1.0  0.87990  0.94961  0.90925  1.0000
  Se  Se8       1.0  0.12010  0.44961  0.09075  1.0000
  Se  Se9       1.0  0.22105  0.89950  0.80216  1.0000
  Se  Se10      1.0  0.77895  0.39950  0.19783  1.0000
  Se  Se11      1.0  0.85250  0.82315  0.54488  1.0000
  Se  Se12      1.0  0.14750  0.32315  0.45513  1.0000
  Se  Se13      1.0  0.96329  0.59991  0.80431  1.0000
  Se  Se14      1.0  0.03674  0.09992  0.19570  1.0000
  N   N1        1.0  0.87384  0.52702  0.45773  1.0000
  N   N2        1.0  0.12616  0.02702  0.54227  1.0000
  N   N3        1.0  0.60293  0.44159  0.45612  1.0000
  N   N4        1.0  0.39707  0.94159  0.54388  1.0000
  N   N5        1.0  0.34061  0.37929  0.31248  1.0000
  N   N6        1.0  0.65939  0.87929  0.68752  1.0000
  N   N7        1.0  0.16968  0.75384  0.03997  1.0000
  N   N8        1.0  0.83032  0.25384  0.96004  1.0000
  N   N9        1.0  0.45698  0.83879  0.17498  1.0000
  N   N10       1.0  0.54302  0.33879  0.82502  1.0000
  N   N11       1.0  0.73644  0.89028  0.18787  1.0000
  N   N12       1.0  0.26356  0.39028  0.81212  1.0000
