data_image0
_chemical_formula_structural       Cu2H24C16N32Cl4
_chemical_formula_sum              "Cu2 H24 C16 N32 Cl4"
_cell_length_a       6.57933
_cell_length_b       8.42553
_cell_length_c       15.2424
_cell_angle_alpha    91.8663
_cell_angle_beta     89.9999
_cell_angle_gamma    90.0001

_space_group_name_H-M_alt    "P 1"
_space_group_IT_number       1

loop_
  _space_group_symop_operation_xyz
  'x, y, z'

loop_
  _atom_site_type_symbol
  _atom_site_label
  _atom_site_symmetry_multiplicity
  _atom_site_fract_x
  _atom_site_fract_y
  _atom_site_fract_z
  _atom_site_occupancy
  Cu  Cu1       1.0  0.00000  0.50001  0.50000  1.0000
  Cu  Cu2       1.0  0.50000  0.99999  1.00000  1.0000
  H   H1        1.0  0.34332  0.78634  0.67451  1.0000
  H   H2        1.0  0.84331  0.71365  0.82549  1.0000
  H   H3        1.0  0.65669  0.21367  0.32549  1.0000
  H   H4        1.0  0.15668  0.28633  0.17451  1.0000
  H   H5        1.0  0.35686  0.98868  0.55974  1.0000
  H   H6        1.0  0.85685  0.51132  0.94026  1.0000
  H   H7        1.0  0.64316  0.01133  0.44027  1.0000
  H   H8        1.0  0.14314  0.48866  0.05974  1.0000
  H   H9        1.0  0.54794  0.60374  0.56993  1.0000
  H   H10       1.0  0.04794  0.89626  0.93006  1.0000
  H   H11       1.0  0.45206  0.39628  0.43007  1.0000
  H   H12       1.0  0.95205  0.10372  0.06994  1.0000
  H   H13       1.0  0.24036  0.06493  0.65791  1.0000
  H   H14       1.0  0.74035  0.43507  0.84209  1.0000
  H   H15       1.0  0.75965  0.93508  0.34209  1.0000
  H   H16       1.0  0.25964  0.56491  0.15790  1.0000
  H   H17       1.0  0.48938  0.91377  0.74816  1.0000
  H   H18       1.0  0.98936  0.58622  0.75184  1.0000
  H   H19       1.0  0.51063  0.08624  0.25184  1.0000
  H   H20       1.0  0.01061  0.41376  0.24816  1.0000
  H   H21       1.0  0.55249  0.22194  0.76759  1.0000
  H   H22       1.0  0.05251  0.27808  0.73241  1.0000
  H   H23       1.0  0.44751  0.77807  0.23241  1.0000
  H   H24       1.0  0.94751  0.72192  0.26759  1.0000
  C   C1        1.0  0.66973  0.68509  0.58866  1.0000
  C   C2        1.0  0.16972  0.81491  0.91133  1.0000
  C   C3        1.0  0.33028  0.31492  0.41133  1.0000
  C   C4        1.0  0.83026  0.18507  0.08867  1.0000
  C   C5        1.0  0.60063  0.23906  0.70048  1.0000
  C   C6        1.0  0.10063  0.26095  0.79952  1.0000
  C   C7        1.0  0.39937  0.76095  0.29952  1.0000
  C   C8        1.0  0.89937  0.73905  0.20048  1.0000
  C   C9        1.0  0.38336  0.02272  0.62874  1.0000
  C   C10       1.0  0.88335  0.47728  0.87127  1.0000
  C   C11       1.0  0.61666  0.97729  0.37127  1.0000
  C   C12       1.0  0.11664  0.52270  0.12873  1.0000
  C   C13       1.0  0.45867  0.88045  0.67914  1.0000
  C   C14       1.0  0.95866  0.61955  0.82086  1.0000
  C   C15       1.0  0.54134  0.11956  0.32086  1.0000
  C   C16       1.0  0.04133  0.38044  0.17914  1.0000
  N   N1        1.0  0.86547  0.67578  0.56819  1.0000
  N   N2        1.0  0.36547  0.82422  0.93181  1.0000
  N   N3        1.0  0.13453  0.32424  0.43181  1.0000
  N   N4        1.0  0.63452  0.17577  0.06819  1.0000
  N   N5        1.0  0.82916  0.88724  0.65220  1.0000
  N   N6        1.0  0.32915  0.61275  0.84780  1.0000
  N   N7        1.0  0.17085  0.11276  0.34780  1.0000
  N   N8        1.0  0.67084  0.38724  0.15219  1.0000
  N   N9        1.0  0.75101  0.31142  0.58370  1.0000
  N   N10       1.0  0.25101  0.18858  0.91630  1.0000
  N   N11       1.0  0.24899  0.68860  0.41630  1.0000
  N   N12       1.0  0.74899  0.81141  0.08370  1.0000
  N   N13       1.0  0.73819  0.34009  0.67192  1.0000
  N   N14       1.0  0.23820  0.15992  0.82809  1.0000
  N   N15       1.0  0.26180  0.65993  0.32808  1.0000
  N   N16       1.0  0.76181  0.84007  0.17191  1.0000
  N   N17       1.0  0.64538  0.81466  0.64102  1.0000
  N   N18       1.0  0.14537  0.68534  0.85897  1.0000
  N   N19       1.0  0.35463  0.18535  0.35898  1.0000
  N   N20       1.0  0.85462  0.31464  0.14103  1.0000
  N   N21       1.0  0.62725  0.19843  0.55849  1.0000
  N   N22       1.0  0.12724  0.30157  0.94152  1.0000
  N   N23       1.0  0.37276  0.80159  0.44151  1.0000
  N   N24       1.0  0.87276  0.69841  0.05848  1.0000
  N   N25       1.0  0.53057  0.15173  0.63150  1.0000
  N   N26       1.0  0.03057  0.34827  0.86850  1.0000
  N   N27       1.0  0.46943  0.84828  0.36850  1.0000
  N   N28       1.0  0.96943  0.65172  0.13150  1.0000
  N   N29       1.0  0.96060  0.80207  0.60822  1.0000
  N   N30       1.0  0.46059  0.69792  0.89178  1.0000
  N   N31       1.0  0.03941  0.19794  0.39178  1.0000
  N   N32       1.0  0.53940  0.30207  0.10821  1.0000
  Cl  Cl1       1.0  0.23194  0.47293  0.61300  1.0000
  Cl  Cl2       1.0  0.73193  0.02707  0.88700  1.0000
  Cl  Cl3       1.0  0.76807  0.52709  0.38700  1.0000
  Cl  Cl4       1.0  0.26806  0.97291  0.11299  1.0000
