data_image0
_chemical_formula_structural       CoH18C12N24Cl2
_chemical_formula_sum              "Co1 H18 C12 N24 Cl2"
_cell_length_a       6.83944
_cell_length_b       9.06513
_cell_length_c       9.28796
_cell_angle_alpha    100.631
_cell_angle_beta     91.8359
_cell_angle_gamma    99.1057

_space_group_name_H-M_alt    "P 1"
_space_group_IT_number       1

loop_
  _space_group_symop_operation_xyz
  'x, y, z'

loop_
  _atom_site_type_symbol
  _atom_site_label
  _atom_site_symmetry_multiplicity
  _atom_site_fract_x
  _atom_site_fract_y
  _atom_site_fract_z
  _atom_site_occupancy
  Co  Co1       1.0  0.00000  0.00000  0.50000  1.0000
  H   H1        1.0  0.28433  0.38796  0.44087  1.0000
  H   H2        1.0  0.71567  0.61204  0.55913  1.0000
  H   H3        1.0  0.97092  0.66097  0.30897  1.0000
  H   H4        1.0  0.02908  0.33903  0.69103  1.0000
  H   H5        1.0  0.08816  0.38578  0.30824  1.0000
  H   H6        1.0  0.91183  0.61422  0.69176  1.0000
  H   H7        1.0  0.44198  0.35695  0.21627  1.0000
  H   H8        1.0  0.55802  0.64305  0.78373  1.0000
  H   H9        1.0  0.38902  0.04771  0.87083  1.0000
  H   H10       1.0  0.61097  0.95228  0.12916  1.0000
  H   H11       1.0  0.58684  0.06035  0.65058  1.0000
  H   H12       1.0  0.41316  0.93964  0.34942  1.0000
  H   H13       1.0  0.51115  0.55478  0.28900  1.0000
  H   H14       1.0  0.48885  0.44522  0.71100  1.0000
  H   H15       1.0  0.21378  0.28309  0.96514  1.0000
  H   H16       1.0  0.78622  0.71691  0.03486  1.0000
  H   H17       1.0  0.37854  0.85834  0.89822  1.0000
  H   H18       1.0  0.62146  0.14165  0.10178  1.0000
  C   C1        1.0  0.38555  0.46405  0.24525  1.0000
  C   C2        1.0  0.61445  0.53595  0.75474  1.0000
  C   C3        1.0  0.08114  0.69033  0.40109  1.0000
  C   C4        1.0  0.91886  0.30967  0.59891  1.0000
  C   C5        1.0  0.68933  0.00882  0.71001  1.0000
  C   C6        1.0  0.31067  0.99117  0.28999  1.0000
  C   C7        1.0  0.23122  0.44891  0.35944  1.0000
  C   C8        1.0  0.76878  0.55110  0.64056  1.0000
  C   C9        1.0  0.22931  0.40621  0.98437  1.0000
  C   C10       1.0  0.77069  0.59379  0.01563  1.0000
  C   C11       1.0  0.47132  0.97170  0.91820  1.0000
  C   C12       1.0  0.52868  0.02830  0.08180  1.0000
  N   N1        1.0  0.86809  0.97634  0.67621  1.0000
  N   N2        1.0  0.13191  0.02366  0.32379  1.0000
  N   N3        1.0  0.30615  0.49967  0.11054  1.0000
  N   N4        1.0  0.69385  0.50033  0.88946  1.0000
  N   N5        1.0  0.22391  0.63775  0.96433  1.0000
  N   N6        1.0  0.77609  0.36225  0.03567  1.0000
  N   N7        1.0  0.20013  0.59735  0.43823  1.0000
  N   N8        1.0  0.79987  0.40265  0.56177  1.0000
  N   N9        1.0  0.80503  0.90424  0.88280  1.0000
  N   N10       1.0  0.19497  0.09577  0.11720  1.0000
  N   N11       1.0  0.11869  0.81916  0.50095  1.0000
  N   N12       1.0  0.88131  0.18084  0.49905  1.0000
  N   N13       1.0  0.93638  0.91214  0.78541  1.0000
  N   N14       1.0  0.06362  0.08786  0.21459  1.0000
  N   N15       1.0  0.65021  0.96496  0.83741  1.0000
  N   N16       1.0  0.34979  0.03504  0.16259  1.0000
  N   N17       1.0  0.31320  0.66955  0.56171  1.0000
  N   N18       1.0  0.68680  0.33045  0.43829  1.0000
  N   N19       1.0  0.30134  0.64530  0.09594  1.0000
  N   N20       1.0  0.69866  0.35470  0.90406  1.0000
  N   N21       1.0  0.26348  0.80267  0.59884  1.0000
  N   N22       1.0  0.73652  0.19733  0.40116  1.0000
  N   N23       1.0  0.17799  0.49050  0.89157  1.0000
  N   N24       1.0  0.82201  0.50950  0.10843  1.0000
  Cl  Cl1       1.0  0.30623  0.17892  0.64045  1.0000
  Cl  Cl2       1.0  0.69377  0.82108  0.35955  1.0000
