data_image0
_chemical_formula_structural       Cd4H36C42N4O22
_chemical_formula_sum              "Cd4 H36 C42 N4 O22"
_cell_length_a       8.29263
_cell_length_b       10.4805
_cell_length_c       13.1163
_cell_angle_alpha    100.173
_cell_angle_beta     94.2958
_cell_angle_gamma    98.4412

_space_group_name_H-M_alt    "P 1"
_space_group_IT_number       1

loop_
  _space_group_symop_operation_xyz
  'x, y, z'

loop_
  _atom_site_type_symbol
  _atom_site_label
  _atom_site_symmetry_multiplicity
  _atom_site_fract_x
  _atom_site_fract_y
  _atom_site_fract_z
  _atom_site_occupancy
  Cd  Cd1       1.0  0.52066  0.55274  0.79292  1.0000
  Cd  Cd2       1.0  0.47934  0.44726  0.20708  1.0000
  Cd  Cd3       1.0  0.86412  0.24574  0.11075  1.0000
  Cd  Cd4       1.0  0.13588  0.75426  0.88925  1.0000
  H   H1        1.0  0.16454  0.19126  0.21478  1.0000
  H   H2        1.0  0.83546  0.80875  0.78522  1.0000
  H   H3        1.0  0.07420  0.05234  0.14044  1.0000
  H   H4        1.0  0.92580  0.94766  0.85956  1.0000
  H   H5        1.0  0.72581  0.94785  0.00431  1.0000
  H   H6        1.0  0.27419  0.05215  0.99569  1.0000
  H   H7        1.0  0.31727  0.54503  0.55943  1.0000
  H   H8        1.0  0.68273  0.45497  0.44057  1.0000
  H   H9        1.0  0.87591  0.34958  0.65304  1.0000
  H   H10       1.0  0.12409  0.65041  0.34696  1.0000
  H   H11       1.0  0.42937  0.28554  0.64037  1.0000
  H   H12       1.0  0.57063  0.71446  0.35964  1.0000
  H   H13       1.0  0.05097  0.19327  0.36195  1.0000
  H   H14       1.0  0.94903  0.80673  0.63805  1.0000
  H   H15       1.0  0.59206  0.18740  0.26048  1.0000
  H   H16       1.0  0.40794  0.81260  0.73951  1.0000
  H   H17       1.0  0.32710  0.79246  0.16269  1.0000
  H   H18       1.0  0.67290  0.20754  0.83730  1.0000
  H   H19       1.0  0.22836  0.07255  0.60817  1.0000
  H   H20       1.0  0.77164  0.92745  0.39184  1.0000
  H   H21       1.0  0.03243  0.03666  0.74001  1.0000
  H   H22       1.0  0.96757  0.96334  0.25999  1.0000
  H   H23       1.0  0.23523  0.42344  0.91271  1.0000
  H   H24       1.0  0.76476  0.57656  0.08729  1.0000
  H   H25       1.0  0.36932  0.01273  0.28549  1.0000
  H   H26       1.0  0.63069  0.98727  0.71451  1.0000
  H   H27       1.0  0.58855  0.08417  0.49961  1.0000
  H   H28       1.0  0.41145  0.91583  0.50039  1.0000
  H   H29       1.0  0.64407  0.25861  0.54578  1.0000
  H   H30       1.0  0.35593  0.74139  0.45422  1.0000
  H   H31       1.0  0.71975  0.14615  0.61869  1.0000
  H   H32       1.0  0.28024  0.85385  0.38130  1.0000
  H   H33       1.0  0.73482  0.41645  0.90684  1.0000
  H   H34       1.0  0.26518  0.58355  0.09316  1.0000
  H   H35       1.0  0.83961  0.47785  0.82327  1.0000
  H   H36       1.0  0.16039  0.52214  0.17673  1.0000
  C   C1        1.0  0.49358  0.73122  0.99184  1.0000
  C   C2        1.0  0.50642  0.26878  0.00816  1.0000
  C   C3        1.0  0.64555  0.95782  0.06636  1.0000
  C   C4        1.0  0.35446  0.04218  0.93364  1.0000
  C   C5        1.0  0.21550  0.46397  0.54514  1.0000
  C   C6        1.0  0.78450  0.53603  0.45486  1.0000
  C   C7        1.0  0.10127  0.45355  0.61724  1.0000
  C   C8        1.0  0.89873  0.54645  0.38276  1.0000
  C   C9        1.0  0.52291  0.85414  0.07409  1.0000
  C   C10       1.0  0.47709  0.14587  0.92592  1.0000
  C   C11       1.0  0.00819  0.21327  0.92065  1.0000
  C   C12       1.0  0.99181  0.78673  0.07935  1.0000
  C   C13       1.0  0.96638  0.35177  0.59720  1.0000
  C   C14       1.0  0.03362  0.64823  0.40280  1.0000
  C   C15       1.0  0.12145  0.55313  0.71527  1.0000
  C   C16       1.0  0.87855  0.44687  0.28473  1.0000
  C   C17       1.0  0.33921  0.26477  0.69405  1.0000
  C   C18       1.0  0.66079  0.73523  0.30595  1.0000
  C   C19       1.0  0.11787  0.22797  0.83607  1.0000
  C   C20       1.0  0.88213  0.77203  0.16393  1.0000
  C   C21       1.0  0.06785  0.26534  0.43434  1.0000
  C   C22       1.0  0.93215  0.73466  0.56566  1.0000
  C   C23       1.0  0.31184  0.39068  0.37186  1.0000
  C   C24       1.0  0.68816  0.60932  0.62814  1.0000
  C   C25       1.0  0.95051  0.25802  0.50548  1.0000
  C   C26       1.0  0.04949  0.74198  0.49452  1.0000
  C   C27       1.0  0.56991  0.09150  0.20943  1.0000
  C   C28       1.0  0.43009  0.90850  0.79057  1.0000
  C   C29       1.0  0.42213  0.87231  0.15454  1.0000
  C   C30       1.0  0.57787  0.12769  0.84546  1.0000
  C   C31       1.0  0.22806  0.14828  0.67664  1.0000
  C   C32       1.0  0.77194  0.85172  0.32336  1.0000
  C   C33       1.0  0.19821  0.37023  0.45307  1.0000
  C   C34       1.0  0.80179  0.62977  0.54693  1.0000
  C   C35       1.0  0.11692  0.12890  0.74926  1.0000
  C   C36       1.0  0.88307  0.87110  0.25074  1.0000
  C   C37       1.0  0.23129  0.34348  0.84664  1.0000
  C   C38       1.0  0.76870  0.65653  0.15336  1.0000
  C   C39       1.0  0.44658  0.99279  0.22290  1.0000
  C   C40       1.0  0.55342  0.00722  0.77710  1.0000
  C   C41       1.0  0.68619  0.16292  0.53982  1.0000
  C   C42       1.0  0.31381  0.83708  0.46018  1.0000
  N   N1        1.0  0.34076  0.36033  0.77794  1.0000
  N   N2        1.0  0.65924  0.63967  0.22206  1.0000
  N   N3        1.0  0.66782  0.07426  0.13211  1.0000
  N   N4        1.0  0.33218  0.92574  0.86789  1.0000
  O   O1        1.0  0.82057  0.15688  0.47774  1.0000
  O   O2        1.0  0.17943  0.84312  0.52226  1.0000
  O   O3        1.0  0.05802  0.13834  0.18176  1.0000
  O   O4        1.0  0.94198  0.86167  0.81824  1.0000
  O   O5        1.0  0.35876  0.65235  0.98432  1.0000
  O   O6        1.0  0.64124  0.34765  0.01568  1.0000
  O   O7        1.0  0.25874  0.63073  0.74198  1.0000
  O   O8        1.0  0.74126  0.36927  0.25802  1.0000
  O   O9        1.0  0.00269  0.56225  0.77118  1.0000
  O   O10       1.0  0.99731  0.43775  0.22882  1.0000
  O   O11       1.0  0.92744  0.10170  0.92479  1.0000
  O   O12       1.0  0.07256  0.89831  0.07522  1.0000
  O   O13       1.0  0.00416  0.31751  0.98689  1.0000
  O   O14       1.0  0.99584  0.68249  0.01311  1.0000
  O   O15       1.0  0.60406  0.71672  0.93033  1.0000
  O   O16       1.0  0.39594  0.28328  0.06967  1.0000
  O   O17       1.0  0.39455  0.50457  0.37777  1.0000
  O   O18       1.0  0.60544  0.49543  0.62222  1.0000
  O   O19       1.0  0.32093  0.29548  0.29696  1.0000
  O   O20       1.0  0.67907  0.70452  0.70304  1.0000
  O   O21       1.0  0.73099  0.43302  0.83509  1.0000
  O   O22       1.0  0.26901  0.56698  0.16491  1.0000
