data_image0
_chemical_formula_structural       Mn2H24C16N20
_chemical_formula_sum              "Mn2 H24 C16 N20"
_cell_length_a       6.89381
_cell_length_b       9.41231
_cell_length_c       9.41223
_cell_angle_alpha    94.7378
_cell_angle_beta     90.0018
_cell_angle_gamma    89.9998

_space_group_name_H-M_alt    "P 1"
_space_group_IT_number       1

loop_
  _space_group_symop_operation_xyz
  'x, y, z'

loop_
  _atom_site_type_symbol
  _atom_site_label
  _atom_site_symmetry_multiplicity
  _atom_site_fract_x
  _atom_site_fract_y
  _atom_site_fract_z
  _atom_site_occupancy
  Mn  Mn1       1.0  0.25000  0.99414  0.00587  1.0000
  Mn  Mn2       1.0  0.74999  0.00588  0.99413  1.0000
  H   H1        1.0  0.25002  0.33723  0.02345  1.0000
  H   H2        1.0  0.75000  0.66277  0.97656  1.0000
  H   H3        1.0  0.75002  0.02344  0.33720  1.0000
  H   H4        1.0  0.25000  0.97655  0.66280  1.0000
  H   H5        1.0  0.25000  0.34226  0.47232  1.0000
  H   H6        1.0  0.74997  0.65775  0.52768  1.0000
  H   H7        1.0  0.74998  0.47232  0.34226  1.0000
  H   H8        1.0  0.24997  0.52767  0.65774  1.0000
  H   H9        1.0  0.25000  0.51806  0.27352  1.0000
  H   H10       1.0  0.74997  0.48193  0.72648  1.0000
  H   H11       1.0  0.74999  0.27350  0.51804  1.0000
  H   H12       1.0  0.24998  0.72649  0.48196  1.0000
  H   H13       1.0  0.37882  0.05991  0.46879  1.0000
  H   H14       1.0  0.87881  0.94011  0.53124  1.0000
  H   H15       1.0  0.62119  0.46878  0.05989  1.0000
  H   H16       1.0  0.12117  0.53122  0.94010  1.0000
  H   H17       1.0  0.62119  0.94011  0.53123  1.0000
  H   H18       1.0  0.12119  0.05990  0.46877  1.0000
  H   H19       1.0  0.37882  0.53120  0.94010  1.0000
  H   H20       1.0  0.87882  0.46878  0.05990  1.0000
  H   H21       1.0  0.25003  0.95353  0.33463  1.0000
  H   H22       1.0  0.75000  0.04647  0.66538  1.0000
  H   H23       1.0  0.75001  0.33464  0.95352  1.0000
  H   H24       1.0  0.25001  0.66535  0.04648  1.0000
  C   C1        1.0  0.25001  0.31271  0.13355  1.0000
  C   C2        1.0  0.75000  0.68729  0.86645  1.0000
  C   C3        1.0  0.75001  0.13354  0.31269  1.0000
  C   C4        1.0  0.25000  0.86645  0.68731  1.0000
  C   C5        1.0  0.25002  0.05494  0.39989  1.0000
  C   C6        1.0  0.75000  0.94507  0.60012  1.0000
  C   C7        1.0  0.75000  0.39990  0.05493  1.0000
  C   C8        1.0  0.25000  0.60009  0.94507  1.0000
  C   C9        1.0  0.25000  0.40282  0.25576  1.0000
  C   C10       1.0  0.74998  0.59718  0.74424  1.0000
  C   C11       1.0  0.75000  0.25575  0.40280  1.0000
  C   C12       1.0  0.24998  0.74425  0.59720  1.0000
  C   C13       1.0  0.25001  0.17622  0.30993  1.0000
  C   C14       1.0  0.75000  0.82379  0.69007  1.0000
  C   C15       1.0  0.75001  0.30993  0.17620  1.0000
  C   C16       1.0  0.25000  0.69007  0.82379  1.0000
  N   N1        1.0  0.49562  0.10671  0.89328  1.0000
  N   N2        1.0  0.99563  0.89330  0.10671  1.0000
  N   N3        1.0  0.50438  0.89329  0.10671  1.0000
  N   N4        1.0  0.00438  0.10670  0.89328  1.0000
  N   N5        1.0  0.25001  0.17271  0.16822  1.0000
  N   N6        1.0  0.75000  0.82729  0.83178  1.0000
  N   N7        1.0  0.75001  0.16822  0.17269  1.0000
  N   N8        1.0  0.25000  0.83179  0.82732  1.0000
  N   N9        1.0  0.48771  0.19363  0.80637  1.0000
  N   N10       1.0  0.98772  0.80638  0.19362  1.0000
  N   N11       1.0  0.51230  0.80637  0.19363  1.0000
  N   N12       1.0  0.01230  0.19363  0.80638  1.0000
  N   N13       1.0  0.25000  0.31421  0.36580  1.0000
  N   N14       1.0  0.74998  0.68580  0.63420  1.0000
  N   N15       1.0  0.75000  0.36580  0.31420  1.0000
  N   N16       1.0  0.24998  0.63419  0.68579  1.0000
  N   N17       1.0  0.48218  0.27837  0.72162  1.0000
  N   N18       1.0  0.98219  0.72162  0.27836  1.0000
  N   N19       1.0  0.51781  0.72163  0.27837  1.0000
  N   N20       1.0  0.01783  0.27839  0.72164  1.0000
