data_image0
_chemical_formula_structural       Zn6H40C56N20O12
_chemical_formula_sum              "Zn6 H40 C56 N20 O12"
_cell_length_a       10.2082
_cell_length_b       12.8179
_cell_length_c       12.8178
_cell_angle_alpha    97.4273
_cell_angle_beta     99.1427
_cell_angle_gamma    99.1428

_space_group_name_H-M_alt    "P 1"
_space_group_IT_number       1

loop_
  _space_group_symop_operation_xyz
  'x, y, z'

loop_
  _atom_site_type_symbol
  _atom_site_label
  _atom_site_symmetry_multiplicity
  _atom_site_fract_x
  _atom_site_fract_y
  _atom_site_fract_z
  _atom_site_occupancy
  Zn  Zn1       1.0  0.75000  0.43659  0.56341  1.0000
  Zn  Zn2       1.0  0.25000  0.56341  0.43659  1.0000
  Zn  Zn3       1.0  0.55435  0.50647  0.74874  1.0000
  Zn  Zn4       1.0  0.94565  0.25126  0.49353  1.0000
  Zn  Zn5       1.0  0.44565  0.49353  0.25126  1.0000
  Zn  Zn6       1.0  0.05435  0.74874  0.50647  1.0000
  H   H1        1.0  0.04394  0.95760  0.63794  1.0000
  H   H2        1.0  0.45606  0.36206  0.04241  1.0000
  H   H3        1.0  0.95606  0.04241  0.36206  1.0000
  H   H4        1.0  0.54394  0.63794  0.95759  1.0000
  H   H5        1.0  0.25121  0.86305  0.40005  1.0000
  H   H6        1.0  0.24879  0.59995  0.13695  1.0000
  H   H7        1.0  0.74879  0.13695  0.59995  1.0000
  H   H8        1.0  0.75121  0.40005  0.86305  1.0000
  H   H9        1.0  0.19202  0.14050  0.68282  1.0000
  H   H10       1.0  0.30798  0.31718  0.85951  1.0000
  H   H11       1.0  0.80798  0.85950  0.31718  1.0000
  H   H12       1.0  0.69202  0.68282  0.14049  1.0000
  H   H13       1.0  0.40890  0.03952  0.43607  1.0000
  H   H14       1.0  0.09111  0.56393  0.96048  1.0000
  H   H15       1.0  0.59110  0.96048  0.56393  1.0000
  H   H16       1.0  0.90889  0.43607  0.03952  1.0000
  H   H17       1.0  0.92230  0.62774  0.82953  1.0000
  H   H18       1.0  0.57770  0.17047  0.37226  1.0000
  H   H19       1.0  0.07770  0.37226  0.17047  1.0000
  H   H20       1.0  0.42230  0.82953  0.62774  1.0000
  H   H21       1.0  0.65397  0.68709  0.61709  1.0000
  H   H22       1.0  0.84603  0.38291  0.31291  1.0000
  H   H23       1.0  0.34602  0.31291  0.38291  1.0000
  H   H24       1.0  0.15397  0.61709  0.68709  1.0000
  H   H25       1.0  0.00368  0.74773  0.00580  1.0000
  H   H26       1.0  0.49632  0.99420  0.25227  1.0000
  H   H27       1.0  0.99632  0.25227  0.99420  1.0000
  H   H28       1.0  0.50368  0.00580  0.74773  1.0000
  H   H29       1.0  0.65754  0.84088  0.73289  1.0000
  H   H30       1.0  0.84246  0.26711  0.15912  1.0000
  H   H31       1.0  0.34246  0.15912  0.26711  1.0000
  H   H32       1.0  0.15754  0.73289  0.84087  1.0000
  H   H33       1.0  0.91101  0.91367  0.04534  1.0000
  H   H34       1.0  0.58899  0.95466  0.08633  1.0000
  H   H35       1.0  0.08899  0.08633  0.95466  1.0000
  H   H36       1.0  0.41101  0.04534  0.91367  1.0000
  H   H37       1.0  0.73521  0.95891  0.90845  1.0000
  H   H38       1.0  0.76479  0.09155  0.04109  1.0000
  H   H39       1.0  0.26479  0.04109  0.09155  1.0000
  H   H40       1.0  0.23521  0.90845  0.95891  1.0000
  C   C1        1.0  0.84900  0.66514  0.59350  1.0000
  C   C2        1.0  0.65100  0.40650  0.33486  1.0000
  C   C3        1.0  0.15100  0.33486  0.40650  1.0000
  C   C4        1.0  0.34900  0.59350  0.66514  1.0000
  C   C5        1.0  0.12538  0.98041  0.59499  1.0000
  C   C6        1.0  0.37462  0.40501  0.01959  1.0000
  C   C7        1.0  0.87462  0.01959  0.40501  1.0000
  C   C8        1.0  0.62538  0.59499  0.98041  1.0000
  C   C9        1.0  0.24089  0.92722  0.46110  1.0000
  C   C10       1.0  0.25911  0.53890  0.07278  1.0000
  C   C11       1.0  0.75911  0.07278  0.53890  1.0000
  C   C12       1.0  0.74089  0.46110  0.92722  1.0000
  C   C13       1.0  0.20804  0.08038  0.62017  1.0000
  C   C14       1.0  0.29197  0.37983  0.91962  1.0000
  C   C15       1.0  0.79197  0.91962  0.37983  1.0000
  C   C16       1.0  0.70803  0.62017  0.08037  1.0000
  C   C17       1.0  0.32830  0.02480  0.48158  1.0000
  C   C18       1.0  0.17169  0.51842  0.97520  1.0000
  C   C19       1.0  0.67170  0.97520  0.51842  1.0000
  C   C20       1.0  0.82831  0.48158  0.02480  1.0000
  C   C21       1.0  0.31447  0.10272  0.56455  1.0000
  C   C22       1.0  0.18553  0.43544  0.89728  1.0000
  C   C23       1.0  0.68553  0.89728  0.43545  1.0000
  C   C24       1.0  0.81447  0.56455  0.10272  1.0000
  C   C25       1.0  0.41173  0.20232  0.59524  1.0000
  C   C26       1.0  0.08827  0.40476  0.79768  1.0000
  C   C27       1.0  0.58827  0.79768  0.40477  1.0000
  C   C28       1.0  0.91173  0.59524  0.20232  1.0000
  C   C29       1.0  0.88358  0.70155  0.84698  1.0000
  C   C30       1.0  0.61642  0.15302  0.29845  1.0000
  C   C31       1.0  0.11642  0.29845  0.15302  1.0000
  C   C32       1.0  0.38358  0.84698  0.70155  1.0000
  C   C33       1.0  0.73812  0.65606  0.66152  1.0000
  C   C34       1.0  0.76188  0.33848  0.34394  1.0000
  C   C35       1.0  0.26188  0.34394  0.33848  1.0000
  C   C36       1.0  0.23812  0.66152  0.65606  1.0000
  C   C37       1.0  0.92807  0.76838  0.94544  1.0000
  C   C38       1.0  0.57193  0.05456  0.23162  1.0000
  C   C39       1.0  0.07193  0.23162  0.05456  1.0000
  C   C40       1.0  0.42807  0.94544  0.76838  1.0000
  C   C41       1.0  0.73440  0.82096  0.79248  1.0000
  C   C42       1.0  0.76561  0.20752  0.17904  1.0000
  C   C43       1.0  0.26561  0.17904  0.20752  1.0000
  C   C44       1.0  0.23439  0.79248  0.82096  1.0000
  C   C45       1.0  0.87626  0.86181  0.96811  1.0000
  C   C46       1.0  0.62374  0.03190  0.13819  1.0000
  C   C47       1.0  0.12374  0.13819  0.03189  1.0000
  C   C48       1.0  0.37626  0.96810  0.86181  1.0000
  C   C49       1.0  0.78641  0.72789  0.76931  1.0000
  C   C50       1.0  0.71359  0.23069  0.27211  1.0000
  C   C51       1.0  0.21359  0.27211  0.23069  1.0000
  C   C52       1.0  0.28641  0.76931  0.72789  1.0000
  C   C53       1.0  0.77860  0.88752  0.89123  1.0000
  C   C54       1.0  0.72140  0.10877  0.11248  1.0000
  C   C55       1.0  0.22140  0.11248  0.10877  1.0000
  C   C56       1.0  0.27860  0.89123  0.88752  1.0000
  N   N1        1.0  0.14232  0.90447  0.51760  1.0000
  N   N2        1.0  0.35768  0.48240  0.09553  1.0000
  N   N3        1.0  0.85768  0.09553  0.48240  1.0000
  N   N4        1.0  0.64232  0.51760  0.90447  1.0000
  N   N5        1.0  0.40888  0.27857  0.67746  1.0000
  N   N6        1.0  0.09112  0.32254  0.72143  1.0000
  N   N7        1.0  0.59112  0.72143  0.32254  1.0000
  N   N8        1.0  0.90888  0.67746  0.27857  1.0000
  N   N9        1.0  0.51581  0.35244  0.67829  1.0000
  N   N10       1.0  0.98419  0.32171  0.64756  1.0000
  N   N11       1.0  0.48419  0.64756  0.32171  1.0000
  N   N12       1.0  0.01581  0.67829  0.35244  1.0000
  N   N13       1.0  0.58235  0.32289  0.60055  1.0000
  N   N14       1.0  0.91765  0.39945  0.67711  1.0000
  N   N15       1.0  0.41765  0.67711  0.39945  1.0000
  N   N16       1.0  0.08235  0.60055  0.32289  1.0000
  N   N17       1.0  0.51890  0.22852  0.54715  1.0000
  N   N18       1.0  0.98110  0.45285  0.77148  1.0000
  N   N19       1.0  0.48110  0.77148  0.45286  1.0000
  N   N20       1.0  0.01890  0.54715  0.22852  1.0000
  O   O1        1.0  0.69790  0.54819  0.67141  1.0000
  O   O2        1.0  0.80210  0.32859  0.45181  1.0000
  O   O3        1.0  0.30210  0.45181  0.32859  1.0000
  O   O4        1.0  0.19790  0.67141  0.54819  1.0000
  O   O5        1.0  0.87983  0.58172  0.54816  1.0000
  O   O6        1.0  0.62017  0.45184  0.41828  1.0000
  O   O7        1.0  0.12017  0.41828  0.45184  1.0000
  O   O8        1.0  0.37983  0.54816  0.58172  1.0000
  O   O9        1.0  0.90592  0.76029  0.58564  1.0000
  O   O10       1.0  0.59408  0.41436  0.23971  1.0000
  O   O11       1.0  0.09408  0.23971  0.41436  1.0000
  O   O12       1.0  0.40592  0.58564  0.76029  1.0000
