data_image0
_chemical_formula_structural       Cd4H56C48N4O24
_chemical_formula_sum              "Cd4 H56 C48 N4 O24"
_cell_length_a       10.921
_cell_length_b       11.2221
_cell_length_c       11.222
_cell_angle_alpha    82.9862
_cell_angle_beta     86.4829
_cell_angle_gamma    86.4838

_space_group_name_H-M_alt    "P 1"
_space_group_IT_number       1

loop_
  _space_group_symop_operation_xyz
  'x, y, z'

loop_
  _atom_site_type_symbol
  _atom_site_label
  _atom_site_symmetry_multiplicity
  _atom_site_fract_x
  _atom_site_fract_y
  _atom_site_fract_z
  _atom_site_occupancy
  Cd  Cd1       1.0  0.00531  0.37237  0.23571  1.0000
  Cd  Cd2       1.0  0.50531  0.23571  0.37237  1.0000
  Cd  Cd3       1.0  0.40268  0.76423  0.53833  1.0000
  Cd  Cd4       1.0  0.90268  0.53833  0.76423  1.0000
  H   H1        1.0  0.30141  0.54122  0.48019  1.0000
  H   H2        1.0  0.80141  0.48020  0.54122  1.0000
  H   H3        1.0  0.19205  0.63723  0.49324  1.0000
  H   H4        1.0  0.69206  0.49324  0.63723  1.0000
  H   H5        1.0  0.57518  0.94887  0.54788  1.0000
  H   H6        1.0  0.07518  0.54788  0.94887  1.0000
  H   H7        1.0  0.59819  0.84902  0.65886  1.0000
  H   H8        1.0  0.09820  0.65886  0.84902  1.0000
  H   H9        1.0  0.17647  0.43487  0.39874  1.0000
  H   H10       1.0  0.67648  0.39874  0.43485  1.0000
  H   H11       1.0  0.06487  0.53053  0.40966  1.0000
  H   H12       1.0  0.56488  0.40966  0.53052  1.0000
  H   H13       1.0  0.84612  0.31595  0.06843  1.0000
  H   H14       1.0  0.34612  0.06843  0.31595  1.0000
  H   H15       1.0  0.82618  0.21953  0.18614  1.0000
  H   H16       1.0  0.32618  0.18614  0.21954  1.0000
  H   H17       1.0  0.85203  0.28628  0.48756  1.0000
  H   H18       1.0  0.35203  0.48756  0.28629  1.0000
  H   H19       1.0  0.02865  0.96246  0.66299  1.0000
  H   H20       1.0  0.52865  0.66299  0.96245  1.0000
  H   H21       1.0  0.62934  0.60568  0.45664  1.0000
  H   H22       1.0  0.12934  0.45664  0.60569  1.0000
  H   H23       1.0  0.60325  0.89503  0.09425  1.0000
  H   H24       1.0  0.10325  0.09426  0.89503  1.0000
  H   H25       1.0  0.85870  0.12636  0.66182  1.0000
  H   H26       1.0  0.35870  0.66182  0.12637  1.0000
  H   H27       1.0  0.76747  0.72542  0.09739  1.0000
  H   H28       1.0  0.26747  0.09739  0.72542  1.0000
  H   H29       1.0  0.57332  0.32888  0.72320  1.0000
  H   H30       1.0  0.07332  0.72321  0.32888  1.0000
  H   H31       1.0  0.37114  0.16765  0.03679  1.0000
  H   H32       1.0  0.87114  0.03679  0.16765  1.0000
  H   H33       1.0  0.15650  0.13086  0.31676  1.0000
  H   H34       1.0  0.65649  0.31676  0.13086  1.0000
  H   H35       1.0  0.71604  0.03382  0.98351  1.0000
  H   H36       1.0  0.21604  0.98351  0.03382  1.0000
  H   H37       1.0  0.60322  0.11282  0.07033  1.0000
  H   H38       1.0  0.10323  0.07032  0.11282  1.0000
  H   H39       1.0  0.70879  0.19340  0.96886  1.0000
  H   H40       1.0  0.20879  0.96886  0.19340  1.0000
  H   H41       1.0  0.69830  0.03070  0.76342  1.0000
  H   H42       1.0  0.19830  0.76341  0.03070  1.0000
  H   H43       1.0  0.70440  0.18993  0.74713  1.0000
  H   H44       1.0  0.20440  0.74712  0.18993  1.0000
  H   H45       1.0  0.58513  0.12239  0.68255  1.0000
  H   H46       1.0  0.08513  0.68255  0.12239  1.0000
  H   H47       1.0  0.45805  0.90538  0.27366  1.0000
  H   H48       1.0  0.95805  0.27366  0.90539  1.0000
  H   H49       1.0  0.54869  0.92396  0.89858  1.0000
  H   H50       1.0  0.04869  0.89858  0.92395  1.0000
  H   H51       1.0  0.42598  0.00523  0.82477  1.0000
  H   H52       1.0  0.92599  0.82477  0.00523  1.0000
  H   H53       1.0  0.43303  0.99997  0.98383  1.0000
  H   H54       1.0  0.93303  0.98383  0.99997  1.0000
  H   H55       1.0  0.27739  0.53032  0.88679  1.0000
  H   H56       1.0  0.77739  0.88679  0.53032  1.0000
  C   C1        1.0  0.92274  0.21363  0.49066  1.0000
  C   C2        1.0  0.42273  0.49066  0.21364  1.0000
  C   C3        1.0  0.48216  0.23270  0.87898  1.0000
  C   C4        1.0  0.98216  0.87898  0.23271  1.0000
  C   C5        1.0  0.02091  0.03434  0.58883  1.0000
  C   C6        1.0  0.52090  0.58883  0.03434  1.0000
  C   C7        1.0  0.62710  0.66689  0.37388  1.0000
  C   C8        1.0  0.12710  0.37389  0.66690  1.0000
  C   C9        1.0  0.61254  0.82837  0.17233  1.0000
  C   C10       1.0  0.11253  0.17233  0.82838  1.0000
  C   C11       1.0  0.92747  0.12422  0.58793  1.0000
  C   C12       1.0  0.42746  0.58792  0.12422  1.0000
  C   C13       1.0  0.10758  0.03645  0.49173  1.0000
  C   C14       1.0  0.60758  0.49173  0.03645  1.0000
  C   C15       1.0  0.80483  0.54910  0.28310  1.0000
  C   C16       1.0  0.30483  0.28311  0.54910  1.0000
  C   C17       1.0  0.70346  0.73585  0.17418  1.0000
  C   C18       1.0  0.20346  0.17418  0.73586  1.0000
  C   C19       1.0  0.21424  0.94591  0.49292  1.0000
  C   C20       1.0  0.71423  0.49292  0.94591  1.0000
  C   C21       1.0  0.42818  0.43954  0.79677  1.0000
  C   C22       1.0  0.92819  0.79678  0.43954  1.0000
  C   C23       1.0  0.45141  0.54528  0.70494  1.0000
  C   C24       1.0  0.95140  0.70495  0.54529  1.0000
  C   C25       1.0  0.50083  0.33262  0.79373  1.0000
  C   C26       1.0  0.00083  0.79374  0.33262  1.0000
  C   C27       1.0  0.71113  0.65272  0.27718  1.0000
  C   C28       1.0  0.21113  0.27718  0.65273  1.0000
  C   C29       1.0  0.38783  0.24303  0.96816  1.0000
  C   C30       1.0  0.88783  0.96816  0.24303  1.0000
  C   C31       1.0  0.31243  0.34846  0.97146  1.0000
  C   C32       1.0  0.81243  0.97146  0.34846  1.0000
  C   C33       1.0  0.09384  0.12722  0.39595  1.0000
  C   C34       1.0  0.59384  0.39596  0.12722  1.0000
  C   C35       1.0  0.65292  0.11422  0.98206  1.0000
  C   C36       1.0  0.15293  0.98206  0.11422  1.0000
  C   C37       1.0  0.64211  0.11566  0.76059  1.0000
  C   C38       1.0  0.14211  0.76059  0.11566  1.0000
  C   C39       1.0  0.53115  0.83513  0.27197  1.0000
  C   C40       1.0  0.03114  0.27198  0.83513  1.0000
  C   C41       1.0  0.48783  0.00582  0.89815  1.0000
  C   C42       1.0  0.98784  0.89815  0.00583  1.0000
  C   C43       1.0  0.33311  0.44684  0.88505  1.0000
  C   C44       1.0  0.83311  0.88505  0.44684  1.0000
  C   C45       1.0  0.56497  0.11758  0.87916  1.0000
  C   C46       1.0  0.06497  0.87916  0.11758  1.0000
  C   C47       1.0  0.21079  0.35510  0.06647  1.0000
  C   C48       1.0  0.71078  0.06647  0.35510  1.0000
  N   N1        1.0  0.53839  0.75535  0.37158  1.0000
  N   N2        1.0  0.03838  0.37158  0.75535  1.0000
  N   N3        1.0  0.00417  0.21469  0.39539  1.0000
  N   N4        1.0  0.50417  0.39539  0.21470  1.0000
  O   O1        1.0  0.22026  0.86681  0.58433  1.0000
  O   O2        1.0  0.72025  0.58432  0.86680  1.0000
  O   O3        1.0  0.12430  0.43705  0.05233  1.0000
  O   O4        1.0  0.62430  0.05233  0.43705  1.0000
  O   O5        1.0  0.27963  0.62828  0.46572  1.0000
  O   O6        1.0  0.77963  0.46572  0.62828  1.0000
  O   O7        1.0  0.29464  0.95094  0.40540  1.0000
  O   O8        1.0  0.79464  0.40540  0.95094  1.0000
  O   O9        1.0  0.53385  0.89334  0.61294  1.0000
  O   O10       1.0  0.03385  0.61294  0.89334  1.0000
  O   O11       1.0  0.39098  0.64397  0.71812  1.0000
  O   O12       1.0  0.89097  0.71812  0.64398  1.0000
  O   O13       1.0  0.52863  0.53235  0.61603  1.0000
  O   O14       1.0  0.02863  0.61604  0.53236  1.0000
  O   O15       1.0  0.80523  0.47189  0.37726  1.0000
  O   O16       1.0  0.30522  0.37727  0.47189  1.0000
  O   O17       1.0  0.11021  0.48045  0.35268  1.0000
  O   O18       1.0  0.61022  0.35268  0.48044  1.0000
  O   O19       1.0  0.89017  0.25976  0.13023  1.0000
  O   O20       1.0  0.39018  0.13024  0.25976  1.0000
  O   O21       1.0  0.87900  0.54239  0.19244  1.0000
  O   O22       1.0  0.37899  0.19245  0.54239  1.0000
  O   O23       1.0  0.21067  0.27848  0.16058  1.0000
  O   O24       1.0  0.71067  0.16058  0.27848  1.0000
