data_image0
_chemical_formula_structural       Zn2H28C40N8O8
_chemical_formula_sum              "Zn2 H28 C40 N8 O8"
_cell_length_a       8.22373
_cell_length_b       10.0304
_cell_length_c       11.884
_cell_angle_alpha    112.525
_cell_angle_beta     93.9958
_cell_angle_gamma    104.611

_space_group_name_H-M_alt    "P 1"
_space_group_IT_number       1

loop_
  _space_group_symop_operation_xyz
  'x, y, z'

loop_
  _atom_site_type_symbol
  _atom_site_label
  _atom_site_symmetry_multiplicity
  _atom_site_fract_x
  _atom_site_fract_y
  _atom_site_fract_z
  _atom_site_occupancy
  Zn  Zn1       1.0  0.75252  0.00086  0.74966  1.0000
  Zn  Zn2       1.0  0.24748  0.99914  0.25034  1.0000
  H   H1        1.0  0.41095  0.57999  0.88565  1.0000
  H   H2        1.0  0.58904  0.42000  0.11434  1.0000
  H   H3        1.0  0.20442  0.32624  0.83097  1.0000
  H   H4        1.0  0.79557  0.67375  0.16903  1.0000
  H   H5        1.0  0.08967  0.47534  0.19613  1.0000
  H   H6        1.0  0.91034  0.52466  0.80388  1.0000
  H   H7        1.0  0.29964  0.72987  0.25424  1.0000
  H   H8        1.0  0.70036  0.27013  0.74576  1.0000
  H   H9        1.0  0.67647  0.79110  0.97759  1.0000
  H   H10       1.0  0.32353  0.20890  0.02240  1.0000
  H   H11       1.0  0.60029  0.19243  0.22788  1.0000
  H   H12       1.0  0.39971  0.80757  0.77212  1.0000
  H   H13       1.0  0.72949  0.64058  0.32076  1.0000
  H   H14       1.0  0.27051  0.35942  0.67924  1.0000
  H   H15       1.0  0.52214  0.38723  0.26688  1.0000
  H   H16       1.0  0.47786  0.61277  0.73312  1.0000
  H   H17       1.0  0.20183  0.59298  0.50110  1.0000
  H   H18       1.0  0.79817  0.40702  0.49890  1.0000
  H   H19       1.0  0.40814  0.84896  0.55525  1.0000
  H   H20       1.0  0.59187  0.15104  0.44475  1.0000
  H   H21       1.0  0.76994  0.91113  0.28734  1.0000
  H   H22       1.0  0.23006  0.08887  0.71266  1.0000
  H   H23       1.0  0.95747  0.24093  0.65541  1.0000
  H   H24       1.0  0.04253  0.75907  0.34459  1.0000
  H   H25       1.0  0.97678  0.17583  0.42569  1.0000
  H   H26       1.0  0.02322  0.82417  0.57431  1.0000
  H   H27       1.0  0.78334  0.08274  0.07194  1.0000
  H   H28       1.0  0.21666  0.91726  0.92806  1.0000
  C   C1        1.0  0.33968  0.55801  0.95366  1.0000
  C   C2        1.0  0.66031  0.44199  0.04634  1.0000
  C   C3        1.0  0.22510  0.41652  0.92285  1.0000
  C   C4        1.0  0.77489  0.58347  0.07715  1.0000
  C   C5        1.0  0.13134  0.38653  0.00896  1.0000
  C   C6        1.0  0.86866  0.61347  0.99105  1.0000
  C   C7        1.0  0.16014  0.50051  0.12872  1.0000
  C   C8        1.0  0.83986  0.49949  0.87128  1.0000
  C   C9        1.0  0.27540  0.64314  0.16004  1.0000
  C   C10       1.0  0.72460  0.35686  0.83996  1.0000
  C   C11       1.0  0.36371  0.67520  0.07193  1.0000
  C   C12       1.0  0.63629  0.32479  0.92806  1.0000
  C   C13       1.0  0.47740  0.82530  0.09774  1.0000
  C   C14       1.0  0.52260  0.17470  0.90226  1.0000
  C   C15       1.0  0.61801  0.86193  0.04536  1.0000
  C   C16       1.0  0.38199  0.13807  0.95464  1.0000
  C   C17       1.0  0.58152  0.07279  0.17553  1.0000
  C   C18       1.0  0.41848  0.92721  0.82447  1.0000
  C   C19       1.0  0.99806  0.23670  0.97093  1.0000
  C   C20       1.0  0.00194  0.76330  0.02908  1.0000
  C   C21       1.0  0.61171  0.63101  0.35763  1.0000
  C   C22       1.0  0.38829  0.36899  0.64237  1.0000
  C   C23       1.0  0.49710  0.48956  0.32813  1.0000
  C   C24       1.0  0.50289  0.51044  0.67187  1.0000
  C   C25       1.0  0.34824  0.47404  0.37828  1.0000
  C   C26       1.0  0.65176  0.52596  0.62172  1.0000
  C   C27       1.0  0.31720  0.60478  0.46099  1.0000
  C   C28       1.0  0.68280  0.39522  0.53901  1.0000
  C   C29       1.0  0.43270  0.74732  0.49143  1.0000
  C   C30       1.0  0.56731  0.25268  0.50858  1.0000
  C   C31       1.0  0.58090  0.76251  0.43927  1.0000
  C   C32       1.0  0.41910  0.23749  0.56073  1.0000
  C   C33       1.0  0.70434  0.91021  0.46796  1.0000
  C   C34       1.0  0.29566  0.08979  0.53204  1.0000
  C   C35       1.0  0.78350  0.96254  0.38739  1.0000
  C   C36       1.0  0.21650  0.03746  0.61261  1.0000
  C   C37       1.0  0.88313  0.13674  0.57808  1.0000
  C   C38       1.0  0.11687  0.86326  0.42193  1.0000
  C   C39       1.0  0.23137  0.31797  0.34777  1.0000
  C   C40       1.0  0.76863  0.68203  0.65223  1.0000
  N   N1        1.0  0.76904  0.02195  0.58789  1.0000
  N   N2        1.0  0.23096  0.97804  0.41211  1.0000
  N   N3        1.0  0.89458  0.10437  0.45852  1.0000
  N   N4        1.0  0.10542  0.89563  0.54148  1.0000
  N   N5        1.0  0.45597  0.96052  0.17932  1.0000
  N   N6        1.0  0.54403  0.03948  0.82068  1.0000
  N   N7        1.0  0.68109  0.01684  0.09598  1.0000
  N   N8        1.0  0.31891  0.98316  0.90402  1.0000
  O   O1        1.0  0.92582  0.20780  0.05204  1.0000
  O   O2        1.0  0.07418  0.79221  0.94797  1.0000
  O   O3        1.0  0.96775  0.14866  0.85361  1.0000
  O   O4        1.0  0.03226  0.85134  0.14640  1.0000
  O   O5        1.0  0.10011  0.30438  0.39583  1.0000
  O   O6        1.0  0.89989  0.69562  0.60416  1.0000
  O   O7        1.0  0.28064  0.20898  0.27367  1.0000
  O   O8        1.0  0.71936  0.79102  0.72634  1.0000
