data_image0
_chemical_formula_structural       Co2H20C32N2O8
_chemical_formula_sum              "Co2 H20 C32 N2 O8"
_cell_length_a       7.30689
_cell_length_b       9.40382
_cell_length_c       10.8595
_cell_angle_alpha    82.9684
_cell_angle_beta     73.2184
_cell_angle_gamma    68.8964

_space_group_name_H-M_alt    "P 1"
_space_group_IT_number       1

loop_
  _space_group_symop_operation_xyz
  'x, y, z'

loop_
  _atom_site_type_symbol
  _atom_site_label
  _atom_site_symmetry_multiplicity
  _atom_site_fract_x
  _atom_site_fract_y
  _atom_site_fract_z
  _atom_site_occupancy
  Co  Co1       1.0  0.37140  0.11667  0.49760  1.0000
  Co  Co2       1.0  0.62860  0.88333  0.50239  1.0000
  H   H1        1.0  0.56900  0.62307  0.24943  1.0000
  H   H2        1.0  0.43101  0.37693  0.75056  1.0000
  H   H3        1.0  0.45512  0.49023  0.11702  1.0000
  H   H4        1.0  0.54486  0.50977  0.88299  1.0000
  H   H5        1.0  0.15845  0.64122  0.02624  1.0000
  H   H6        1.0  0.84154  0.35879  0.97376  1.0000
  H   H7        1.0  0.98676  0.91418  0.07023  1.0000
  H   H8        1.0  0.01324  0.08582  0.92977  1.0000
  H   H9        1.0  0.69172  0.39950  0.32307  1.0000
  H   H10       1.0  0.30827  0.60050  0.67694  1.0000
  H   H11       1.0  0.91234  0.54056  0.18719  1.0000
  H   H12       1.0  0.08765  0.45944  0.81282  1.0000
  H   H13       1.0  0.36646  0.11263  0.04664  1.0000
  H   H14       1.0  0.63354  0.88738  0.95337  1.0000
  H   H15       1.0  0.24979  0.39235  0.04245  1.0000
  H   H16       1.0  0.75020  0.60765  0.95755  1.0000
  H   H17       1.0  0.35439  0.44149  0.38174  1.0000
  H   H18       1.0  0.64563  0.55850  0.61825  1.0000
  H   H19       1.0  0.10299  0.71255  0.39378  1.0000
  H   H20       1.0  0.89703  0.28743  0.60621  1.0000
  C   C1        1.0  0.41529  0.90668  0.32208  1.0000
  C   C2        1.0  0.58473  0.09331  0.67792  1.0000
  C   C3        1.0  0.34898  0.84175  0.23096  1.0000
  C   C4        1.0  0.65103  0.15825  0.76904  1.0000
  C   C5        1.0  0.44463  0.68539  0.20656  1.0000
  C   C6        1.0  0.55537  0.31461  0.79344  1.0000
  C   C7        1.0  0.37935  0.61210  0.13324  1.0000
  C   C8        1.0  0.62064  0.38790  0.86676  1.0000
  C   C9        1.0  0.21360  0.69535  0.08405  1.0000
  C   C10       1.0  0.78639  0.30465  0.91596  1.0000
  C   C11       1.0  0.11713  0.85049  0.10771  1.0000
  C   C12       1.0  0.88286  0.14951  0.89229  1.0000
  C   C13       1.0  0.18449  0.92672  0.17889  1.0000
  C   C14       1.0  0.81552  0.07329  0.82111  1.0000
  C   C15       1.0  0.09685  0.09560  0.18569  1.0000
  C   C16       1.0  0.90315  0.90440  0.81431  1.0000
  C   C17       1.0  0.90205  0.17819  0.26083  1.0000
  C   C18       1.0  0.09795  0.82181  0.73917  1.0000
  C   C19       1.0  0.83948  0.33817  0.26042  1.0000
  C   C20       1.0  0.16052  0.66183  0.73958  1.0000
  C   C21       1.0  0.96280  0.41655  0.18471  1.0000
  C   C22       1.0  0.03719  0.58345  0.81530  1.0000
  C   C23       1.0  0.21722  0.17628  0.10678  1.0000
  C   C24       1.0  0.78277  0.82373  0.89323  1.0000
  C   C25       1.0  0.15166  0.33452  0.10541  1.0000
  C   C26       1.0  0.84834  0.66548  0.89459  1.0000
  C   C27       1.0  0.19538  0.46859  0.43500  1.0000
  C   C28       1.0  0.80463  0.53141  0.56499  1.0000
  C   C29       1.0  0.05748  0.61720  0.44165  1.0000
  C   C30       1.0  0.94252  0.38280  0.55834  1.0000
  C   C31       1.0  0.75844  0.10482  0.34518  1.0000
  C   C32       1.0  0.24156  0.89517  0.65482  1.0000
  N   N1        1.0  0.13873  0.35084  0.49328  1.0000
  N   N2        1.0  0.86129  0.64915  0.50671  1.0000
  O   O1        1.0  0.31319  0.04306  0.36005  1.0000
  O   O2        1.0  0.68682  0.95693  0.63994  1.0000
  O   O3        1.0  0.57073  0.19095  0.37810  1.0000
  O   O4        1.0  0.42927  0.80906  0.62189  1.0000
  O   O5        1.0  0.82545  0.96536  0.38113  1.0000
  O   O6        1.0  0.17453  0.03464  0.61888  1.0000
  O   O7        1.0  0.56778  0.81713  0.36171  1.0000
  O   O8        1.0  0.43224  0.18287  0.63829  1.0000
