data_image0
_chemical_formula_structural       Li4H76C48N8O4
_chemical_formula_sum              "Li4 H76 C48 N8 O4"
_cell_length_a       7.39657
_cell_length_b       9.7508
_cell_length_c       16.4651
_cell_angle_alpha    98.4929
_cell_angle_beta     90
_cell_angle_gamma    89.9993

_space_group_name_H-M_alt    "P 1"
_space_group_IT_number       1

loop_
  _space_group_symop_operation_xyz
  'x, y, z'

loop_
  _atom_site_type_symbol
  _atom_site_label
  _atom_site_symmetry_multiplicity
  _atom_site_fract_x
  _atom_site_fract_y
  _atom_site_fract_z
  _atom_site_occupancy
  Li  Li1       1.0  0.29417  0.26728  0.67070  1.0000
  Li  Li2       1.0  0.79417  0.23272  0.82929  1.0000
  Li  Li3       1.0  0.70583  0.73272  0.32930  1.0000
  Li  Li4       1.0  0.20582  0.76728  0.17070  1.0000
  H   H1        1.0  0.96993  0.39475  0.91587  1.0000
  H   H2        1.0  0.46992  0.10525  0.58413  1.0000
  H   H3        1.0  0.03008  0.60525  0.08414  1.0000
  H   H4        1.0  0.53007  0.89475  0.41587  1.0000
  H   H5        1.0  0.85415  0.62876  0.95777  1.0000
  H   H6        1.0  0.35415  0.87124  0.54223  1.0000
  H   H7        1.0  0.14585  0.37124  0.04224  1.0000
  H   H8        1.0  0.64584  0.12875  0.45777  1.0000
  H   H9        1.0  0.88326  0.81170  0.86662  1.0000
  H   H10       1.0  0.38326  0.68830  0.63338  1.0000
  H   H11       1.0  0.11674  0.18830  0.13339  1.0000
  H   H12       1.0  0.61675  0.31169  0.36662  1.0000
  H   H13       1.0  0.04846  0.75251  0.73291  1.0000
  H   H14       1.0  0.54846  0.74749  0.76709  1.0000
  H   H15       1.0  0.95154  0.24748  0.26709  1.0000
  H   H16       1.0  0.45153  0.25251  0.23291  1.0000
  H   H17       1.0  0.15885  0.51723  0.68764  1.0000
  H   H18       1.0  0.65885  0.98278  0.81236  1.0000
  H   H19       1.0  0.84115  0.48278  0.31237  1.0000
  H   H20       1.0  0.34113  0.01723  0.18764  1.0000
  H   H21       1.0  0.19435  0.03454  0.72587  1.0000
  H   H22       1.0  0.69434  0.46545  0.77413  1.0000
  H   H23       1.0  0.80566  0.96545  0.27413  1.0000
  H   H24       1.0  0.30565  0.53455  0.22587  1.0000
  H   H25       1.0  0.01940  0.98106  0.78882  1.0000
  H   H26       1.0  0.51940  0.51894  0.71118  1.0000
  H   H27       1.0  0.98060  0.01894  0.21119  1.0000
  H   H28       1.0  0.48060  0.48106  0.28881  1.0000
  H   H29       1.0  0.96203  0.07321  0.70661  1.0000
  H   H30       1.0  0.46203  0.42680  0.79339  1.0000
  H   H31       1.0  0.03797  0.92679  0.29339  1.0000
  H   H32       1.0  0.53798  0.57321  0.20661  1.0000
  H   H33       1.0  0.34017  0.15764  0.84788  1.0000
  H   H34       1.0  0.84016  0.34235  0.65212  1.0000
  H   H35       1.0  0.65984  0.84235  0.15212  1.0000
  H   H36       1.0  0.15984  0.65765  0.34788  1.0000
  H   H37       1.0  0.21550  0.28384  0.91552  1.0000
  H   H38       1.0  0.71549  0.21615  0.58448  1.0000
  H   H39       1.0  0.78451  0.71615  0.08448  1.0000
  H   H40       1.0  0.28451  0.78385  0.41552  1.0000
  H   H41       1.0  0.16400  0.10453  0.91168  1.0000
  H   H42       1.0  0.66400  0.39547  0.58832  1.0000
  H   H43       1.0  0.83600  0.89546  0.08832  1.0000
  H   H44       1.0  0.33601  0.60453  0.41168  1.0000
  H   H45       1.0  0.41028  0.33400  0.48635  1.0000
  H   H46       1.0  0.91028  0.16599  0.01365  1.0000
  H   H47       1.0  0.58972  0.66600  0.51365  1.0000
  H   H48       1.0  0.08972  0.83401  0.98635  1.0000
  H   H49       1.0  0.28181  0.47534  0.54007  1.0000
  H   H50       1.0  0.78181  0.02466  0.95993  1.0000
  H   H51       1.0  0.71819  0.52466  0.45993  1.0000
  H   H52       1.0  0.21818  0.97535  0.04007  1.0000
  H   H53       1.0  0.20752  0.37506  0.37705  1.0000
  H   H54       1.0  0.70752  0.12493  0.12294  1.0000
  H   H55       1.0  0.79248  0.62493  0.62294  1.0000
  H   H56       1.0  0.29249  0.87507  0.87706  1.0000
  H   H57       1.0  0.02837  0.42414  0.44681  1.0000
  H   H58       1.0  0.52837  0.07586  0.05318  1.0000
  H   H59       1.0  0.97163  0.57586  0.55318  1.0000
  H   H60       1.0  0.47163  0.92414  0.94682  1.0000
  H   H61       1.0  0.16707  0.13564  0.38155  1.0000
  H   H62       1.0  0.66708  0.36436  0.11845  1.0000
  H   H63       1.0  0.83292  0.86435  0.61845  1.0000
  H   H64       1.0  0.33293  0.63564  0.88155  1.0000
  H   H65       1.0  0.94211  0.18691  0.40837  1.0000
  H   H66       1.0  0.44212  0.31309  0.09163  1.0000
  H   H67       1.0  0.05788  0.81309  0.59163  1.0000
  H   H68       1.0  0.55789  0.68691  0.90837  1.0000
  H   H69       1.0  0.99273  0.14100  0.54585  1.0000
  H   H70       1.0  0.49273  0.35901  0.95415  1.0000
  H   H71       1.0  0.00727  0.85901  0.45415  1.0000
  H   H72       1.0  0.50727  0.64100  0.04585  1.0000
  H   H73       1.0  0.20773  0.07251  0.51066  1.0000
  H   H74       1.0  0.70773  0.42749  0.98934  1.0000
  H   H75       1.0  0.79227  0.92749  0.48934  1.0000
  H   H76       1.0  0.29228  0.57251  0.01066  1.0000
  C   C1        1.0  0.06870  0.43120  0.79533  1.0000
  C   C2        1.0  0.56870  0.06881  0.70466  1.0000
  C   C3        1.0  0.93130  0.56881  0.20467  1.0000
  C   C4        1.0  0.43130  0.93120  0.29533  1.0000
  C   C5        1.0  0.98460  0.47048  0.87383  1.0000
  C   C6        1.0  0.48458  0.02951  0.62617  1.0000
  C   C7        1.0  0.01542  0.52952  0.12618  1.0000
  C   C8        1.0  0.51541  0.97047  0.37383  1.0000
  C   C9        1.0  0.91964  0.60484  0.89790  1.0000
  C   C10       1.0  0.41965  0.89518  0.60210  1.0000
  C   C11       1.0  0.08036  0.39518  0.10211  1.0000
  C   C12       1.0  0.58036  0.10483  0.39789  1.0000
  C   C13       1.0  0.93738  0.70790  0.84799  1.0000
  C   C14       1.0  0.43738  0.79211  0.65200  1.0000
  C   C15       1.0  0.06263  0.29210  0.15201  1.0000
  C   C16       1.0  0.56262  0.20789  0.34799  1.0000
  C   C17       1.0  0.02849  0.67384  0.77270  1.0000
  C   C18       1.0  0.52848  0.82618  0.72730  1.0000
  C   C19       1.0  0.97152  0.32618  0.22730  1.0000
  C   C20       1.0  0.47150  0.17384  0.27270  1.0000
  C   C21       1.0  0.09324  0.54131  0.74748  1.0000
  C   C22       1.0  0.59324  0.95868  0.75251  1.0000
  C   C23       1.0  0.90677  0.45868  0.25251  1.0000
  C   C24       1.0  0.40675  0.04131  0.24749  1.0000
  C   C25       1.0  0.06224  0.06395  0.75455  1.0000
  C   C26       1.0  0.56223  0.43605  0.74544  1.0000
  C   C27       1.0  0.93777  0.93605  0.24545  1.0000
  C   C28       1.0  0.43777  0.56395  0.25455  1.0000
  C   C29       1.0  0.20574  0.18433  0.87485  1.0000
  C   C30       1.0  0.70574  0.31567  0.62515  1.0000
  C   C31       1.0  0.79426  0.81567  0.12515  1.0000
  C   C32       1.0  0.29426  0.68433  0.37485  1.0000
  C   C33       1.0  0.27377  0.36965  0.50606  1.0000
  C   C34       1.0  0.77377  0.13035  0.99394  1.0000
  C   C35       1.0  0.72623  0.63035  0.49394  1.0000
  C   C36       1.0  0.22623  0.86966  0.00606  1.0000
  C   C37       1.0  0.14361  0.35336  0.43383  1.0000
  C   C38       1.0  0.64361  0.14664  0.06617  1.0000
  C   C39       1.0  0.85639  0.64664  0.56617  1.0000
  C   C40       1.0  0.35639  0.85336  0.93383  1.0000
  C   C41       1.0  0.08396  0.20081  0.42713  1.0000
  C   C42       1.0  0.58397  0.29919  0.07287  1.0000
  C   C43       1.0  0.91603  0.79918  0.57287  1.0000
  C   C44       1.0  0.41604  0.70081  0.92713  1.0000
  C   C45       1.0  0.11659  0.16227  0.51311  1.0000
  C   C46       1.0  0.61659  0.33773  0.98689  1.0000
  C   C47       1.0  0.88341  0.83773  0.48689  1.0000
  C   C48       1.0  0.38342  0.66227  0.01312  1.0000
  N   N1        1.0  0.12318  0.30211  0.76253  1.0000
  N   N2        1.0  0.62317  0.19789  0.73747  1.0000
  N   N3        1.0  0.87683  0.69789  0.23747  1.0000
  N   N4        1.0  0.37682  0.80211  0.26253  1.0000
  N   N5        1.0  0.06978  0.19554  0.81092  1.0000
  N   N6        1.0  0.56978  0.30445  0.68908  1.0000
  N   N7        1.0  0.93022  0.80445  0.18908  1.0000
  N   N8        1.0  0.43022  0.69554  0.31092  1.0000
  O   O1        1.0  0.20112  0.28197  0.56182  1.0000
  O   O2        1.0  0.70113  0.21803  0.93818  1.0000
  O   O3        1.0  0.79887  0.71803  0.43818  1.0000
  O   O4        1.0  0.29887  0.78198  0.06182  1.0000
