data_image0
_chemical_formula_structural       Ho2P2H34C18N6O22
_chemical_formula_sum              "Ho2 P2 H34 C18 N6 O22"
_cell_length_a       6.8105
_cell_length_b       8.58716
_cell_length_c       14.2045
_cell_angle_alpha    90.0004
_cell_angle_beta     92.7939
_cell_angle_gamma    90.0001

_space_group_name_H-M_alt    "P 1"
_space_group_IT_number       1

loop_
  _space_group_symop_operation_xyz
  'x, y, z'

loop_
  _atom_site_type_symbol
  _atom_site_label
  _atom_site_symmetry_multiplicity
  _atom_site_fract_x
  _atom_site_fract_y
  _atom_site_fract_z
  _atom_site_occupancy
  Ho  Ho1       1.0  0.75384  0.76568  0.97068  1.0000
  Ho  Ho2       1.0  0.24616  0.26568  0.02932  1.0000
  P   P1        1.0  0.26309  0.83991  0.05799  1.0000
  P   P2        1.0  0.73692  0.33990  0.94201  1.0000
  H   H1        1.0  0.65663  0.08328  0.03236  1.0000
  H   H2        1.0  0.34338  0.58328  0.96763  1.0000
  H   H3        1.0  0.84671  0.04076  0.09405  1.0000
  H   H4        1.0  0.15329  0.54075  0.90595  1.0000
  H   H5        1.0  0.87104  0.60728  0.14601  1.0000
  H   H6        1.0  0.12897  0.10729  0.85400  1.0000
  H   H7        1.0  0.64147  0.59329  0.13687  1.0000
  H   H8        1.0  0.35854  0.09328  0.86313  1.0000
  H   H9        1.0  0.47659  0.01647  0.21474  1.0000
  H   H10       1.0  0.52341  0.51647  0.78527  1.0000
  H   H11       1.0  0.60280  0.86732  0.17476  1.0000
  H   H12       1.0  0.39720  0.36731  0.82524  1.0000
  H   H13       1.0  0.18424  0.87529  0.22196  1.0000
  H   H14       1.0  0.81576  0.37528  0.77804  1.0000
  H   H15       1.0  0.31328  0.69624  0.20479  1.0000
  H   H16       1.0  0.68672  0.19623  0.79521  1.0000
  H   H17       1.0  0.57527  0.72455  0.31768  1.0000
  H   H18       1.0  0.42472  0.22455  0.68231  1.0000
  H   H19       1.0  0.76126  0.05197  0.33010  1.0000
  H   H20       1.0  0.23874  0.55197  0.66990  1.0000
  H   H21       1.0  0.86906  0.88068  0.28458  1.0000
  H   H22       1.0  0.13094  0.38069  0.71542  1.0000
  H   H23       1.0  0.82646  0.89444  0.40664  1.0000
  H   H24       1.0  0.17355  0.39445  0.59336  1.0000
  H   H25       1.0  0.41427  0.14575  0.34939  1.0000
  H   H26       1.0  0.58573  0.64575  0.65061  1.0000
  H   H27       1.0  0.18105  0.22289  0.46686  1.0000
  H   H28       1.0  0.81894  0.72289  0.53314  1.0000
  H   H29       1.0  0.05715  0.02710  0.58027  1.0000
  H   H30       1.0  0.94285  0.52710  0.41973  1.0000
  H   H31       1.0  0.16426  0.75155  0.56979  1.0000
  H   H32       1.0  0.83574  0.25155  0.43021  1.0000
  H   H33       1.0  0.38857  0.66979  0.44574  1.0000
  H   H34       1.0  0.61143  0.16979  0.55426  1.0000
  C   C1        1.0  0.30489  0.81999  0.18606  1.0000
  C   C2        1.0  0.69511  0.31999  0.81394  1.0000
  C   C3        1.0  0.56421  0.85226  0.31874  1.0000
  C   C4        1.0  0.43579  0.35227  0.68126  1.0000
  C   C5        1.0  0.76715  0.92457  0.33597  1.0000
  C   C6        1.0  0.23285  0.42457  0.66403  1.0000
  C   C7        1.0  0.41695  0.90137  0.38912  1.0000
  C   C8        1.0  0.58305  0.40137  0.61088  1.0000
  C   C9        1.0  0.35808  0.05718  0.39598  1.0000
  C   C10       1.0  0.64192  0.55718  0.60402  1.0000
  C   C11       1.0  0.22650  0.10147  0.46325  1.0000
  C   C12       1.0  0.77350  0.60147  0.53675  1.0000
  C   C13       1.0  0.15644  0.99197  0.52610  1.0000
  C   C14       1.0  0.84356  0.49197  0.47390  1.0000
  C   C15       1.0  0.21589  0.83678  0.51994  1.0000
  C   C16       1.0  0.78412  0.33678  0.48006  1.0000
  C   C17       1.0  0.34289  0.79116  0.45079  1.0000
  C   C18       1.0  0.65711  0.29116  0.54921  1.0000
  N   N1        1.0  0.49242  0.89639  0.21963  1.0000
  N   N2        1.0  0.50758  0.39639  0.78037  1.0000
  N   N3        1.0  0.03202  0.79901  0.81586  1.0000
  N   N4        1.0  0.96798  0.29901  0.18414  1.0000
  N   N5        1.0  0.55508  0.87398  0.79188  1.0000
  N   N6        1.0  0.44491  0.37398  0.20812  1.0000
  O   O1        1.0  0.42766  0.74791  0.01161  1.0000
  O   O2        1.0  0.57234  0.24791  0.98839  1.0000
  O   O3        1.0  0.06072  0.76947  0.03701  1.0000
  O   O4        1.0  0.93929  0.26946  0.96298  1.0000
  O   O5        1.0  0.27811  0.01331  0.03807  1.0000
  O   O6        1.0  0.72190  0.51330  0.96194  1.0000
  O   O7        1.0  0.95434  0.91784  0.85511  1.0000
  O   O8        1.0  0.04567  0.41784  0.14490  1.0000
  O   O9        1.0  0.98048  0.66543  0.84731  1.0000
  O   O10       1.0  0.01952  0.16543  0.15269  1.0000
  O   O11       1.0  0.14689  0.81304  0.75189  1.0000
  O   O12       1.0  0.85311  0.31305  0.24811  1.0000
  O   O13       1.0  0.55610  0.96524  0.86382  1.0000
  O   O14       1.0  0.44389  0.46524  0.13618  1.0000
  O   O15       1.0  0.59427  0.73044  0.81149  1.0000
  O   O16       1.0  0.40570  0.23045  0.18851  1.0000
  O   O17       1.0  0.52481  0.92094  0.71063  1.0000
  O   O18       1.0  0.47518  0.42095  0.28937  1.0000
  O   O19       1.0  0.73061  0.99203  0.06168  1.0000
  O   O20       1.0  0.26940  0.49203  0.93832  1.0000
  O   O21       1.0  0.75076  0.66997  0.13588  1.0000
  O   O22       1.0  0.24925  0.16996  0.86413  1.0000
