data_image0
_chemical_formula_structural       Tb2P2H34C18N6O22
_chemical_formula_sum              "Tb2 P2 H34 C18 N6 O22"
_cell_length_a       6.8562
_cell_length_b       8.60938
_cell_length_c       14.2018
_cell_angle_alpha    90.0001
_cell_angle_beta     92.863
_cell_angle_gamma    89.9999

_space_group_name_H-M_alt    "P 1"
_space_group_IT_number       1

loop_
  _space_group_symop_operation_xyz
  'x, y, z'

loop_
  _atom_site_type_symbol
  _atom_site_label
  _atom_site_symmetry_multiplicity
  _atom_site_fract_x
  _atom_site_fract_y
  _atom_site_fract_z
  _atom_site_occupancy
  Tb  Tb1       1.0  0.25332  0.81080  0.97023  1.0000
  Tb  Tb2       1.0  0.74668  0.31080  0.02977  1.0000
  P   P1        1.0  0.76297  0.88318  0.05869  1.0000
  P   P2        1.0  0.23704  0.38318  0.94131  1.0000
  H   H1        1.0  0.34623  0.08540  0.09582  1.0000
  H   H2        1.0  0.65377  0.58539  0.90418  1.0000
  H   H3        1.0  0.15868  0.12980  0.03343  1.0000
  H   H4        1.0  0.84132  0.62980  0.96657  1.0000
  H   H5        1.0  0.14129  0.63689  0.13756  1.0000
  H   H6        1.0  0.85871  0.13689  0.86244  1.0000
  H   H7        1.0  0.36929  0.65104  0.14675  1.0000
  H   H8        1.0  0.63071  0.15104  0.85325  1.0000
  H   H9        1.0  0.97635  0.05811  0.21432  1.0000
  H   H10       1.0  0.02365  0.55811  0.78568  1.0000
  H   H11       1.0  0.10118  0.90828  0.17563  1.0000
  H   H12       1.0  0.89882  0.40828  0.82437  1.0000
  H   H13       1.0  0.68541  0.91754  0.22277  1.0000
  H   H14       1.0  0.31459  0.41754  0.77723  1.0000
  H   H15       1.0  0.81341  0.73892  0.20527  1.0000
  H   H16       1.0  0.18659  0.23892  0.79473  1.0000
  H   H17       1.0  0.07441  0.76880  0.31936  1.0000
  H   H18       1.0  0.92559  0.26880  0.68064  1.0000
  H   H19       1.0  0.25937  0.09545  0.33076  1.0000
  H   H20       1.0  0.74063  0.59545  0.66924  1.0000
  H   H21       1.0  0.36580  0.92421  0.28544  1.0000
  H   H22       1.0  0.63420  0.42421  0.71456  1.0000
  H   H23       1.0  0.32390  0.93845  0.40745  1.0000
  H   H24       1.0  0.67610  0.43845  0.59255  1.0000
  H   H25       1.0  0.91277  0.18898  0.34879  1.0000
  H   H26       1.0  0.08723  0.68898  0.65121  1.0000
  H   H27       1.0  0.67964  0.26685  0.46534  1.0000
  H   H28       1.0  0.32036  0.76684  0.53466  1.0000
  H   H29       1.0  0.55670  0.07264  0.57944  1.0000
  H   H30       1.0  0.44330  0.57263  0.42056  1.0000
  H   H31       1.0  0.66487  0.79812  0.57076  1.0000
  H   H32       1.0  0.33514  0.29812  0.42924  1.0000
  H   H33       1.0  0.88867  0.71530  0.44746  1.0000
  H   H34       1.0  0.11133  0.21530  0.55254  1.0000
  C   C1        1.0  0.80516  0.86249  0.18681  1.0000
  C   C2        1.0  0.19483  0.36249  0.81319  1.0000
  C   C3        1.0  0.06302  0.89618  0.31968  1.0000
  C   C4        1.0  0.93698  0.39618  0.68032  1.0000
  C   C5        1.0  0.26471  0.96840  0.33675  1.0000
  C   C6        1.0  0.73529  0.46840  0.66325  1.0000
  C   C7        1.0  0.91641  0.94570  0.38978  1.0000
  C   C8        1.0  0.08360  0.44569  0.61022  1.0000
  C   C9        1.0  0.85714  0.10110  0.39576  1.0000
  C   C10       1.0  0.14286  0.60109  0.60424  1.0000
  C   C11       1.0  0.72555  0.14580  0.46248  1.0000
  C   C12       1.0  0.27445  0.64579  0.53752  1.0000
  C   C13       1.0  0.65611  0.03721  0.52576  1.0000
  C   C14       1.0  0.34389  0.53720  0.47424  1.0000
  C   C15       1.0  0.71603  0.88248  0.52053  1.0000
  C   C16       1.0  0.28397  0.38248  0.47947  1.0000
  C   C17       1.0  0.84292  0.83640  0.45187  1.0000
  C   C18       1.0  0.15708  0.33639  0.54813  1.0000
  N   N1        1.0  0.99167  0.93856  0.22021  1.0000
  N   N2        1.0  0.00833  0.43856  0.77979  1.0000
  N   N3        1.0  0.53335  0.84350  0.81571  1.0000
  N   N4        1.0  0.46665  0.34350  0.18429  1.0000
  N   N5        1.0  0.05560  0.91835  0.79027  1.0000
  N   N6        1.0  0.94439  0.41835  0.20973  1.0000
  O   O1        1.0  0.92594  0.79112  0.01211  1.0000
  O   O2        1.0  0.07406  0.29112  0.98788  1.0000
  O   O3        1.0  0.56122  0.81377  0.03806  1.0000
  O   O4        1.0  0.43878  0.31376  0.96194  1.0000
  O   O5        1.0  0.77883  0.05617  0.03891  1.0000
  O   O6        1.0  0.22117  0.55617  0.96108  1.0000
  O   O7        1.0  0.45625  0.96299  0.85391  1.0000
  O   O8        1.0  0.54374  0.46299  0.14609  1.0000
  O   O9        1.0  0.47993  0.71077  0.84717  1.0000
  O   O10       1.0  0.52007  0.21077  0.15283  1.0000
  O   O11       1.0  0.64965  0.85595  0.75265  1.0000
  O   O12       1.0  0.35035  0.35595  0.24735  1.0000
  O   O13       1.0  0.05504  0.00866  0.86264  1.0000
  O   O14       1.0  0.94496  0.50866  0.13736  1.0000
  O   O15       1.0  0.09528  0.77520  0.80930  1.0000
  O   O16       1.0  0.90471  0.27520  0.19070  1.0000
  O   O17       1.0  0.02621  0.96608  0.70913  1.0000
  O   O18       1.0  0.97379  0.46607  0.29088  1.0000
  O   O19       1.0  0.22998  0.03810  0.06345  1.0000
  O   O20       1.0  0.77002  0.53810  0.93655  1.0000
  O   O21       1.0  0.24971  0.71353  0.13678  1.0000
  O   O22       1.0  0.75030  0.21353  0.86322  1.0000
