data_image0
_chemical_formula_structural       Zn2H22C34N12O8
_chemical_formula_sum              "Zn2 H22 C34 N12 O8"
_cell_length_a       9.66926
_cell_length_b       10.6496
_cell_length_c       11.4005
_cell_angle_alpha    68.3196
_cell_angle_beta     64.4883
_cell_angle_gamma    65.5611

_space_group_name_H-M_alt    "P 1"
_space_group_IT_number       1

loop_
  _space_group_symop_operation_xyz
  'x, y, z'

loop_
  _atom_site_type_symbol
  _atom_site_label
  _atom_site_symmetry_multiplicity
  _atom_site_fract_x
  _atom_site_fract_y
  _atom_site_fract_z
  _atom_site_occupancy
  Zn  Zn1       1.0  0.36445  0.50773  0.25754  1.0000
  Zn  Zn2       1.0  0.63555  0.49227  0.74247  1.0000
  H   H1        1.0  0.92793  0.38374  0.24170  1.0000
  H   H2        1.0  0.07207  0.61626  0.75830  1.0000
  H   H3        1.0  0.95791  0.10486  0.32952  1.0000
  H   H4        1.0  0.04208  0.89514  0.67048  1.0000
  H   H5        1.0  0.14042  0.11549  0.31800  1.0000
  H   H6        1.0  0.85958  0.88451  0.68200  1.0000
  H   H7        1.0  0.35581  0.11014  0.12561  1.0000
  H   H8        1.0  0.64418  0.88986  0.87440  1.0000
  H   H9        1.0  0.91246  0.12084  0.14525  1.0000
  H   H10       1.0  0.08755  0.87915  0.85475  1.0000
  H   H11       1.0  0.11799  0.36674  0.45947  1.0000
  H   H12       1.0  0.88202  0.63325  0.54053  1.0000
  H   H13       1.0  0.97873  0.19949  0.90033  1.0000
  H   H14       1.0  0.02128  0.80051  0.09967  1.0000
  H   H15       1.0  0.55796  0.36183  0.44200  1.0000
  H   H16       1.0  0.44204  0.63817  0.55800  1.0000
  H   H17       1.0  0.44190  0.19293  0.87961  1.0000
  H   H18       1.0  0.55810  0.80707  0.12039  1.0000
  H   H19       1.0  0.49975  0.26330  0.68380  1.0000
  H   H20       1.0  0.50025  0.73671  0.31620  1.0000
  H   H21       1.0  0.03849  0.26872  0.70344  1.0000
  H   H22       1.0  0.96152  0.73127  0.29655  1.0000
  C   C1        1.0  0.14775  0.90520  0.33086  1.0000
  C   C2        1.0  0.85225  0.09480  0.66913  1.0000
  C   C3        1.0  0.95998  0.43390  0.13503  1.0000
  C   C4        1.0  0.04002  0.56610  0.86497  1.0000
  C   C5        1.0  0.10535  0.46560  0.06930  1.0000
  C   C6        1.0  0.89464  0.53440  0.93070  1.0000
  C   C7        1.0  0.85401  0.46739  0.06741  1.0000
  C   C8        1.0  0.14599  0.53261  0.93259  1.0000
  C   C9        1.0  0.20689  0.43269  0.15208  1.0000
  C   C10       1.0  0.79310  0.56732  0.84792  1.0000
  C   C11       1.0  0.08918  0.06297  0.28718  1.0000
  C   C12       1.0  0.91082  0.93703  0.71282  1.0000
  C   C13       1.0  0.28189  0.12591  0.06861  1.0000
  C   C14       1.0  0.71811  0.87409  0.93139  1.0000
  C   C15       1.0  0.03118  0.13008  0.08004  1.0000
  C   C16       1.0  0.96882  0.86991  0.91996  1.0000
  C   C17       1.0  0.26263  0.25574  0.71804  1.0000
  C   C18       1.0  0.73738  0.74425  0.28196  1.0000
  C   C19       1.0  0.22055  0.19935  0.86441  1.0000
  C   C20       1.0  0.77945  0.80065  0.13560  1.0000
  C   C21       1.0  0.19796  0.34310  0.51417  1.0000
  C   C22       1.0  0.80204  0.65689  0.48583  1.0000
  C   C23       1.0  0.07076  0.17602  0.94273  1.0000
  C   C24       1.0  0.92924  0.82398  0.05727  1.0000
  C   C25       1.0  0.44382  0.34029  0.50378  1.0000
  C   C26       1.0  0.55618  0.65970  0.49622  1.0000
  C   C27       1.0  0.32668  0.17201  0.93143  1.0000
  C   C28       1.0  0.67333  0.82799  0.06858  1.0000
  C   C29       1.0  0.41035  0.28283  0.64028  1.0000
  C   C30       1.0  0.58965  0.71716  0.35972  1.0000
  C   C31       1.0  0.15568  0.28618  0.65108  1.0000
  C   C32       1.0  0.84432  0.71382  0.34892  1.0000
  C   C33       1.0  0.69823  0.43360  0.14744  1.0000
  C   C34       1.0  0.30177  0.56640  0.85256  1.0000
  N   N1        1.0  0.20381  0.81807  0.24954  1.0000
  N   N2        1.0  0.79619  0.18193  0.75046  1.0000
  N   N3        1.0  0.24014  0.68839  0.32989  1.0000
  N   N4        1.0  0.75985  0.31161  0.67012  1.0000
  N   N5        1.0  0.20752  0.69675  0.45322  1.0000
  N   N6        1.0  0.79247  0.30326  0.54678  1.0000
  N   N7        1.0  0.14923  0.83385  0.45601  1.0000
  N   N8        1.0  0.85077  0.16616  0.54398  1.0000
  N   N9        1.0  0.13577  0.10653  0.14049  1.0000
  N   N10       1.0  0.86423  0.89348  0.85951  1.0000
  N   N11       1.0  0.33877  0.37158  0.44151  1.0000
  N   N12       1.0  0.66124  0.62841  0.55849  1.0000
  O   O1        1.0  0.24921  0.53865  0.13992  1.0000
  O   O2        1.0  0.75077  0.46137  0.86009  1.0000
  O   O3        1.0  0.23666  0.31371  0.23014  1.0000
  O   O4        1.0  0.76333  0.68630  0.76985  1.0000
  O   O5        1.0  0.57123  0.54332  0.14788  1.0000
  O   O6        1.0  0.42876  0.45668  0.85212  1.0000
  O   O7        1.0  0.69859  0.31005  0.21255  1.0000
  O   O8        1.0  0.30141  0.68995  0.78745  1.0000
