data_image0
_chemical_formula_structural       Sn2H28C24N4Cl4
_chemical_formula_sum              "Sn2 H28 C24 N4 Cl4"
_cell_length_a       6.3787
_cell_length_b       10.1163
_cell_length_c       10.5322
_cell_angle_alpha    90.0004
_cell_angle_beta     98.8576
_cell_angle_gamma    89.9994

_space_group_name_H-M_alt    "P 1"
_space_group_IT_number       1

loop_
  _space_group_symop_operation_xyz
  'x, y, z'

loop_
  _atom_site_type_symbol
  _atom_site_label
  _atom_site_symmetry_multiplicity
  _atom_site_fract_x
  _atom_site_fract_y
  _atom_site_fract_z
  _atom_site_occupancy
  Sn  Sn1       1.0  0.99995  1.00000  0.00002  1.0000
  Sn  Sn2       1.0  0.00005  0.50000  0.49997  1.0000
  H   H1        1.0  0.77856  0.15931  0.82237  1.0000
  H   H2        1.0  0.22143  0.65931  0.67763  1.0000
  H   H3        1.0  0.22140  0.84070  0.17762  1.0000
  H   H4        1.0  0.77860  0.34070  0.32237  1.0000
  H   H5        1.0  0.63793  0.00566  0.83130  1.0000
  H   H6        1.0  0.36206  0.50567  0.66870  1.0000
  H   H7        1.0  0.36200  0.99435  0.16867  1.0000
  H   H8        1.0  0.63800  0.49435  0.33133  1.0000
  H   H9        1.0  0.86113  0.01369  0.74566  1.0000
  H   H10       1.0  0.13884  0.51369  0.75433  1.0000
  H   H11       1.0  0.13885  0.98630  0.25435  1.0000
  H   H12       1.0  0.86113  0.48631  0.24563  1.0000
  H   H13       1.0  0.03708  0.29343  0.13237  1.0000
  H   H14       1.0  0.96292  0.79343  0.36763  1.0000
  H   H15       1.0  0.96288  0.70658  0.86764  1.0000
  H   H16       1.0  0.03712  0.20659  0.63236  1.0000
  H   H17       1.0  0.24756  0.49964  0.14614  1.0000
  H   H18       1.0  0.75244  0.99965  0.35386  1.0000
  H   H19       1.0  0.75242  0.50035  0.85387  1.0000
  H   H20       1.0  0.24757  0.00036  0.64614  1.0000
  H   H21       1.0  0.56860  0.34059  0.84480  1.0000
  H   H22       1.0  0.43141  0.84059  0.65519  1.0000
  H   H23       1.0  0.43137  0.65939  0.15521  1.0000
  H   H24       1.0  0.56863  0.15939  0.34480  1.0000
  H   H25       1.0  0.35200  0.13955  0.85081  1.0000
  H   H26       1.0  0.64802  0.63955  0.64920  1.0000
  H   H27       1.0  0.64796  0.86045  0.14921  1.0000
  H   H28       1.0  0.35205  0.36044  0.35080  1.0000
  C   C1        1.0  0.79232  0.05154  0.82737  1.0000
  C   C2        1.0  0.20766  0.55154  0.67262  1.0000
  C   C3        1.0  0.20762  0.94846  0.17262  1.0000
  C   C4        1.0  0.79238  0.44847  0.32737  1.0000
  C   C5        1.0  0.15896  0.30849  0.07158  1.0000
  C   C6        1.0  0.84105  0.80850  0.42842  1.0000
  C   C7        1.0  0.84100  0.69151  0.92843  1.0000
  C   C8        1.0  0.15899  0.19151  0.57158  1.0000
  C   C9        1.0  0.27735  0.42411  0.07729  1.0000
  C   C10       1.0  0.72264  0.92411  0.42272  1.0000
  C   C11       1.0  0.72262  0.57588  0.92272  1.0000
  C   C12       1.0  0.27738  0.07589  0.57729  1.0000
  C   C13       1.0  0.43305  0.43989  0.99736  1.0000
  C   C14       1.0  0.56695  0.93989  0.50265  1.0000
  C   C15       1.0  0.56692  0.56010  0.00266  1.0000
  C   C16       1.0  0.43308  0.06010  0.49735  1.0000
  C   C17       1.0  0.45555  0.33603  0.91227  1.0000
  C   C18       1.0  0.54447  0.83603  0.58774  1.0000
  C   C19       1.0  0.54443  0.66396  0.08774  1.0000
  C   C20       1.0  0.45558  0.16396  0.41226  1.0000
  C   C21       1.0  0.33216  0.22311  0.91306  1.0000
  C   C22       1.0  0.66785  0.72311  0.58694  1.0000
  C   C23       1.0  0.66779  0.77689  0.08694  1.0000
  C   C24       1.0  0.33221  0.27689  0.41306  1.0000
  N   N1        1.0  0.18646  0.20834  0.99159  1.0000
  N   N2        1.0  0.81354  0.70833  0.50841  1.0000
  N   N3        1.0  0.81349  0.79166  0.00842  1.0000
  N   N4        1.0  0.18652  0.29166  0.49158  1.0000
  Cl  Cl1       1.0  0.74535  0.11617  0.13630  1.0000
  Cl  Cl2       1.0  0.25466  0.61618  0.36370  1.0000
  Cl  Cl3       1.0  0.25458  0.88383  0.86371  1.0000
  Cl  Cl4       1.0  0.74542  0.38384  0.63628  1.0000
