data_image0
_chemical_formula_structural       Co2P4H14C8N6O14
_chemical_formula_sum              "Co2 P4 H14 C8 N6 O14"
_cell_length_a       5.12956
_cell_length_b       9.52309
_cell_length_c       10.8827
_cell_angle_alpha    64.6746
_cell_angle_beta     87.699
_cell_angle_gamma    74.9892

_space_group_name_H-M_alt    "P 1"
_space_group_IT_number       1

loop_
  _space_group_symop_operation_xyz
  'x, y, z'

loop_
  _atom_site_type_symbol
  _atom_site_label
  _atom_site_symmetry_multiplicity
  _atom_site_fract_x
  _atom_site_fract_y
  _atom_site_fract_z
  _atom_site_occupancy
  Co  Co1       1.0  0.43411  0.94531  0.37951  1.0000
  Co  Co2       1.0  0.56589  0.05469  0.62049  1.0000
  P   P1        1.0  0.85108  0.17403  0.19625  1.0000
  P   P2        1.0  0.14892  0.82597  0.80375  1.0000
  P   P3        1.0  0.98882  0.25732  0.42291  1.0000
  P   P4        1.0  0.01118  0.74268  0.57709  1.0000
  H   H1        1.0  0.91221  0.48944  0.42912  1.0000
  H   H2        1.0  0.08779  0.51056  0.57088  1.0000
  H   H3        1.0  0.93446  0.28106  0.97449  1.0000
  H   H4        1.0  0.06554  0.71894  0.02551  1.0000
  H   H5        1.0  0.66785  0.52395  0.06289  1.0000
  H   H6        1.0  0.33215  0.47605  0.93711  1.0000
  H   H7        1.0  0.48569  0.45074  0.21003  1.0000
  H   H8        1.0  0.51430  0.54926  0.78997  1.0000
  H   H9        1.0  0.37877  0.61900  0.34303  1.0000
  H   H10       1.0  0.62122  0.38100  0.65697  1.0000
  H   H11       1.0  0.92625  0.90124  0.17510  1.0000
  H   H12       1.0  0.07375  0.09876  0.82490  1.0000
  H   H13       1.0  0.31040  0.27611  0.20305  1.0000
  H   H14       1.0  0.68960  0.72390  0.79695  1.0000
  C   C1        1.0  0.67480  0.48145  0.17382  1.0000
  C   C2        1.0  0.32520  0.51855  0.82618  1.0000
  C   C3        1.0  0.91968  0.33323  0.23607  1.0000
  C   C4        1.0  0.08032  0.66677  0.76393  1.0000
  C   C5        1.0  0.53440  0.67101  0.28556  1.0000
  C   C6        1.0  0.46559  0.32899  0.71444  1.0000
  C   C7        1.0  0.80998  0.81401  0.19656  1.0000
  C   C8        1.0  0.19002  0.18599  0.80344  1.0000
  N   N1        1.0  0.61323  0.79476  0.28562  1.0000
  N   N2        1.0  0.38677  0.20523  0.71437  1.0000
  N   N3        1.0  0.68142  0.61758  0.20103  1.0000
  N   N4        1.0  0.31859  0.38242  0.79897  1.0000
  N   N5        1.0  0.85588  0.70865  0.14325  1.0000
  N   N6        1.0  0.14412  0.29135  0.85675  1.0000
  O   O1        1.0  0.24578  0.11829  0.47018  1.0000
  O   O2        1.0  0.75422  0.88171  0.52982  1.0000
  O   O3        1.0  0.59338  0.13313  0.25777  1.0000
  O   O4        1.0  0.40662  0.86687  0.74224  1.0000
  O   O5        1.0  0.10872  0.03743  0.23764  1.0000
  O   O6        1.0  0.89128  0.96257  0.76236  1.0000
  O   O7        1.0  0.73156  0.23651  0.49256  1.0000
  O   O8        1.0  0.26844  0.76349  0.50744  1.0000
  O   O9        1.0  0.15038  0.37410  0.16802  1.0000
  O   O10       1.0  0.84963  0.62590  0.83198  1.0000
  O   O11       1.0  0.07359  0.40387  0.43566  1.0000
  O   O12       1.0  0.92641  0.59613  0.56434  1.0000
  O   O13       1.0  0.78103  0.25756  0.03671  1.0000
  O   O14       1.0  0.21897  0.74244  0.96329  1.0000
