data_image0
_chemical_formula_structural       Ca2H12C20N8O8
_chemical_formula_sum              "Ca2 H12 C20 N8 O8"
_cell_length_a       6.56661
_cell_length_b       6.56661
_cell_length_c       13.7143
_cell_angle_alpha    103.777
_cell_angle_beta     103.776
_cell_angle_gamma    90.0827

_space_group_name_H-M_alt    "P 1"
_space_group_IT_number       1

loop_
  _space_group_symop_operation_xyz
  'x, y, z'

loop_
  _atom_site_type_symbol
  _atom_site_label
  _atom_site_symmetry_multiplicity
  _atom_site_fract_x
  _atom_site_fract_y
  _atom_site_fract_z
  _atom_site_occupancy
  Ca  Ca1       1.0  0.87548  0.12452  0.75000  1.0000
  Ca  Ca2       1.0  0.12452  0.87548  0.25000  1.0000
  H   H1        1.0  0.73922  0.81790  0.47891  1.0000
  H   H2        1.0  0.26078  0.18210  0.52109  1.0000
  H   H3        1.0  0.73965  0.16068  0.47897  1.0000
  H   H4        1.0  0.26034  0.83932  0.52103  1.0000
  H   H5        1.0  0.83932  0.26034  0.02103  1.0000
  H   H6        1.0  0.81789  0.73921  0.97890  1.0000
  H   H7        1.0  0.16068  0.73966  0.97898  1.0000
  H   H8        1.0  0.18210  0.26078  0.02109  1.0000
  H   H9        1.0  0.68886  0.43894  0.37798  1.0000
  H   H10       1.0  0.31113  0.56105  0.62202  1.0000
  H   H11       1.0  0.56105  0.31113  0.12202  1.0000
  H   H12       1.0  0.43894  0.68887  0.87798  1.0000
  C   C1        1.0  0.89439  0.64336  0.78795  1.0000
  C   C2        1.0  0.10562  0.35665  0.21205  1.0000
  C   C3        1.0  0.35665  0.10562  0.71205  1.0000
  C   C4        1.0  0.64336  0.89439  0.28795  1.0000
  C   C5        1.0  0.83510  0.58434  0.66952  1.0000
  C   C6        1.0  0.16489  0.41567  0.33047  1.0000
  C   C7        1.0  0.41567  0.16489  0.83047  1.0000
  C   C8        1.0  0.58434  0.83510  0.16953  1.0000
  C   C9        1.0  0.75905  0.69022  0.51812  1.0000
  C   C10       1.0  0.24094  0.30978  0.48188  1.0000
  C   C11       1.0  0.75934  0.32740  0.51820  1.0000
  C   C12       1.0  0.24066  0.67259  0.48180  1.0000
  C   C13       1.0  0.67259  0.24066  0.98180  1.0000
  C   C14       1.0  0.69021  0.75905  0.01812  1.0000
  C   C15       1.0  0.32740  0.75935  0.01821  1.0000
  C   C16       1.0  0.30978  0.24095  0.98188  1.0000
  C   C17       1.0  0.73119  0.48093  0.46228  1.0000
  C   C18       1.0  0.26880  0.51907  0.53773  1.0000
  C   C19       1.0  0.51907  0.26880  0.03772  1.0000
  C   C20       1.0  0.48092  0.73119  0.96228  1.0000
  N   N1        1.0  0.81134  0.74269  0.62220  1.0000
  N   N2        1.0  0.18866  0.25732  0.37779  1.0000
  N   N3        1.0  0.81154  0.37882  0.62229  1.0000
  N   N4        1.0  0.18846  0.62118  0.37772  1.0000
  N   N5        1.0  0.62118  0.18846  0.87771  1.0000
  N   N6        1.0  0.74268  0.81134  0.12220  1.0000
  N   N7        1.0  0.37882  0.81154  0.12229  1.0000
  N   N8        1.0  0.25732  0.18866  0.87779  1.0000
  O   O1        1.0  0.91624  0.83739  0.83242  1.0000
  O   O2        1.0  0.08377  0.16262  0.16758  1.0000
  O   O3        1.0  0.91707  0.49374  0.83246  1.0000
  O   O4        1.0  0.08292  0.50627  0.16754  1.0000
  O   O5        1.0  0.50628  0.08293  0.66754  1.0000
  O   O6        1.0  0.83738  0.91625  0.33242  1.0000
  O   O7        1.0  0.49374  0.91707  0.33246  1.0000
  O   O8        1.0  0.16263  0.08377  0.66758  1.0000
