data_image0
_chemical_formula_structural       H24Pb2C34N6O10F2
_chemical_formula_sum              "H24 Pb2 C34 N6 O10 F2"
_cell_length_a       6.5491
_cell_length_b       8.35686
_cell_length_c       16.0743
_cell_angle_alpha    84.7298
_cell_angle_beta     84.592
_cell_angle_gamma    83.2142

_space_group_name_H-M_alt    "P 1"
_space_group_IT_number       1

loop_
  _space_group_symop_operation_xyz
  'x, y, z'

loop_
  _atom_site_type_symbol
  _atom_site_label
  _atom_site_symmetry_multiplicity
  _atom_site_fract_x
  _atom_site_fract_y
  _atom_site_fract_z
  _atom_site_occupancy
  H   H1        1.0  0.32618  0.29885  0.05592  1.0000
  H   H2        1.0  0.67376  0.70109  0.94410  1.0000
  H   H3        1.0  0.18517  0.03514  0.05504  1.0000
  H   H4        1.0  0.81479  0.96478  0.94500  1.0000
  H   H5        1.0  0.35336  0.79238  0.13887  1.0000
  H   H6        1.0  0.64670  0.20754  0.86114  1.0000
  H   H7        1.0  0.66128  0.82374  0.21317  1.0000
  H   H8        1.0  0.33879  0.17625  0.78682  1.0000
  H   H9        1.0  0.90050  0.86009  0.27393  1.0000
  H   H10       1.0  0.09951  0.13991  0.72608  1.0000
  H   H11       1.0  0.20051  0.92292  0.34397  1.0000
  H   H12       1.0  0.79944  0.07710  0.65607  1.0000
  H   H13       1.0  0.30467  0.20725  0.32325  1.0000
  H   H14       1.0  0.69537  0.79273  0.67672  1.0000
  H   H15       1.0  0.09492  0.41543  0.23753  1.0000
  H   H16       1.0  0.90505  0.58458  0.76249  1.0000
  H   H17       1.0  0.70796  0.72894  0.41468  1.0000
  H   H18       1.0  0.29204  0.27111  0.58530  1.0000
  H   H19       1.0  0.17471  0.80812  0.59055  1.0000
  H   H20       1.0  0.82530  0.19196  0.40944  1.0000
  H   H21       1.0  0.97386  0.65817  0.50474  1.0000
  H   H22       1.0  0.02614  0.34191  0.49525  1.0000
  H   H23       1.0  0.14288  0.54384  0.37335  1.0000
  H   H24       1.0  0.85710  0.45622  0.62664  1.0000
  Pb  Pb1       1.0  0.68380  0.48076  0.13317  1.0000
  Pb  Pb2       1.0  0.31619  0.51920  0.86685  1.0000
  C   C1        1.0  0.39663  0.19032  0.08961  1.0000
  C   C2        1.0  0.60335  0.80963  0.91039  1.0000
  C   C3        1.0  0.31872  0.04239  0.08948  1.0000
  C   C4        1.0  0.68128  0.95753  0.91054  1.0000
  C   C5        1.0  0.41358  0.90913  0.13528  1.0000
  C   C6        1.0  0.58647  0.09078  0.86470  1.0000
  C   C7        1.0  0.58449  0.92703  0.17764  1.0000
  C   C8        1.0  0.41554  0.07292  0.82235  1.0000
  C   C9        1.0  0.65475  0.07929  0.17499  1.0000
  C   C10       1.0  0.34526  0.92068  0.82501  1.0000
  C   C11       1.0  0.83492  0.10649  0.21930  1.0000
  C   C12       1.0  0.16508  0.89350  0.78070  1.0000
  C   C13       1.0  0.94483  0.98260  0.26740  1.0000
  C   C14       1.0  0.05514  0.01740  0.73262  1.0000
  C   C15       1.0  0.11425  0.01780  0.30612  1.0000
  C   C16       1.0  0.88579  0.98219  0.69386  1.0000
  C   C17       1.0  0.17224  0.17409  0.29556  1.0000
  C   C18       1.0  0.82775  0.82590  0.70446  1.0000
  C   C19       1.0  0.05563  0.29143  0.24743  1.0000
  C   C20       1.0  0.94441  0.70856  0.75256  1.0000
  C   C21       1.0  0.54122  0.56282  0.30742  1.0000
  C   C22       1.0  0.45881  0.43721  0.69259  1.0000
  C   C23       1.0  0.43614  0.62705  0.38679  1.0000
  C   C24       1.0  0.56386  0.37300  0.61320  1.0000
  C   C25       1.0  0.54789  0.71221  0.43461  1.0000
  C   C26       1.0  0.45211  0.28785  0.56537  1.0000
  C   C27       1.0  0.44977  0.77431  0.50671  1.0000
  C   C28       1.0  0.55024  0.22574  0.49328  1.0000
  C   C29       1.0  0.24509  0.75696  0.53342  1.0000
  C   C30       1.0  0.75492  0.24310  0.46657  1.0000
  C   C31       1.0  0.13472  0.67289  0.48487  1.0000
  C   C32       1.0  0.86529  0.32720  0.51512  1.0000
  C   C33       1.0  0.22889  0.60785  0.41198  1.0000
  C   C34       1.0  0.77110  0.39222  0.58801  1.0000
  N   N1        1.0  0.55895  0.20817  0.13158  1.0000
  N   N2        1.0  0.44102  0.79178  0.86843  1.0000
  N   N3        1.0  0.89117  0.25809  0.21112  1.0000
  N   N4        1.0  0.10880  0.74190  0.78890  1.0000
  N   N5        1.0  0.13013  0.64064  0.05266  1.0000
  N   N6        1.0  0.86980  0.35936  0.94734  1.0000
  O   O1        1.0  0.44029  0.47978  0.26571  1.0000
  O   O2        1.0  0.55975  0.52025  0.73427  1.0000
  O   O3        1.0  0.72277  0.59767  0.28373  1.0000
  O   O4        1.0  0.27728  0.40229  0.71628  1.0000
  O   O5        1.0  0.32069  0.58623  0.04236  1.0000
  O   O6        1.0  0.67924  0.41373  0.95766  1.0000
  O   O7        1.0  0.02976  0.67854  0.98848  1.0000
  O   O8        1.0  0.97022  0.32147  0.01151  1.0000
  O   O9        1.0  0.04379  0.65515  0.12552  1.0000
  O   O10       1.0  0.95616  0.34485  0.87449  1.0000
  F   F1        1.0  0.55979  0.85645  0.55373  1.0000
  F   F2        1.0  0.44026  0.14356  0.44627  1.0000
