data_image0
_chemical_formula_structural       Dy4Ag4H32C56N8O32
_chemical_formula_sum              "Dy4 Ag4 H32 C56 N8 O32"
_cell_length_a       9.10335
_cell_length_b       9.77424
_cell_length_c       22.0677
_cell_angle_alpha    90.0001
_cell_angle_beta     90.0001
_cell_angle_gamma    118.327

_space_group_name_H-M_alt    "P 1"
_space_group_IT_number       1

loop_
  _space_group_symop_operation_xyz
  'x, y, z'

loop_
  _atom_site_type_symbol
  _atom_site_label
  _atom_site_symmetry_multiplicity
  _atom_site_fract_x
  _atom_site_fract_y
  _atom_site_fract_z
  _atom_site_occupancy
  Dy  Dy1       1.0  0.38272  0.64978  0.99121  1.0000
  Dy  Dy2       1.0  0.11729  0.35022  0.49121  1.0000
  Dy  Dy3       1.0  0.61728  0.35022  0.00879  1.0000
  Dy  Dy4       1.0  0.88272  0.64979  0.50879  1.0000
  Ag  Ag1       1.0  0.97720  0.30697  0.14988  1.0000
  Ag  Ag2       1.0  0.52280  0.69303  0.64988  1.0000
  Ag  Ag3       1.0  0.02279  0.69302  0.85012  1.0000
  Ag  Ag4       1.0  0.47720  0.30697  0.35012  1.0000
  H   H1        1.0  0.07026  0.76623  0.06840  1.0000
  H   H2        1.0  0.42974  0.23377  0.56840  1.0000
  H   H3        1.0  0.92974  0.23377  0.93160  1.0000
  H   H4        1.0  0.57025  0.76622  0.43160  1.0000
  H   H5        1.0  0.28615  0.97741  0.13270  1.0000
  H   H6        1.0  0.21385  0.02259  0.63270  1.0000
  H   H7        1.0  0.71385  0.02259  0.86730  1.0000
  H   H8        1.0  0.78614  0.97741  0.36730  1.0000
  H   H9        1.0  0.23701  0.19702  0.16499  1.0000
  H   H10       1.0  0.26298  0.80298  0.66499  1.0000
  H   H11       1.0  0.76298  0.80297  0.83501  1.0000
  H   H12       1.0  0.73701  0.19702  0.33501  1.0000
  H   H13       1.0  0.79581  0.02414  0.06654  1.0000
  H   H14       1.0  0.70419  0.97586  0.56654  1.0000
  H   H15       1.0  0.20419  0.97585  0.93346  1.0000
  H   H16       1.0  0.29580  0.02414  0.43346  1.0000
  H   H17       1.0  0.01125  0.34643  0.28406  1.0000
  H   H18       1.0  0.48876  0.65358  0.78406  1.0000
  H   H19       1.0  0.98876  0.65358  0.71594  1.0000
  H   H20       1.0  0.51124  0.34643  0.21594  1.0000
  H   H21       1.0  0.90233  0.70726  0.34320  1.0000
  H   H22       1.0  0.59766  0.29274  0.84319  1.0000
  H   H23       1.0  0.09768  0.29275  0.65681  1.0000
  H   H24       1.0  0.40233  0.70726  0.15681  1.0000
  H   H25       1.0  0.85890  0.75136  0.23256  1.0000
  H   H26       1.0  0.64109  0.24863  0.73255  1.0000
  H   H27       1.0  0.14110  0.24864  0.76745  1.0000
  H   H28       1.0  0.35891  0.75136  0.26745  1.0000
  H   H29       1.0  0.88393  0.57902  0.15373  1.0000
  H   H30       1.0  0.61606  0.42098  0.65372  1.0000
  H   H31       1.0  0.11607  0.42097  0.84628  1.0000
  H   H32       1.0  0.38394  0.57903  0.34627  1.0000
  C   C1        1.0  0.78030  0.75280  0.02555  1.0000
  C   C2        1.0  0.71970  0.24719  0.52555  1.0000
  C   C3        1.0  0.21970  0.24719  0.97445  1.0000
  C   C4        1.0  0.28029  0.75280  0.47445  1.0000
  C   C5        1.0  0.91587  0.87894  0.06288  1.0000
  C   C6        1.0  0.58413  0.12105  0.56288  1.0000
  C   C7        1.0  0.08413  0.12105  0.93712  1.0000
  C   C8        1.0  0.41586  0.87894  0.43712  1.0000
  C   C9        1.0  0.05476  0.86548  0.08230  1.0000
  C   C10       1.0  0.44523  0.13452  0.58230  1.0000
  C   C11       1.0  0.94523  0.13451  0.91770  1.0000
  C   C12       1.0  0.55476  0.86548  0.41770  1.0000
  C   C13       1.0  0.17325  0.98095  0.11889  1.0000
  C   C14       1.0  0.32675  0.01905  0.61889  1.0000
  C   C15       1.0  0.82675  0.01905  0.88111  1.0000
  C   C16       1.0  0.67324  0.98095  0.38110  1.0000
  C   C17       1.0  0.14784  0.10480  0.13613  1.0000
  C   C18       1.0  0.35215  0.89520  0.63613  1.0000
  C   C19       1.0  0.85215  0.89520  0.86387  1.0000
  C   C20       1.0  0.64784  0.10480  0.36387  1.0000
  C   C21       1.0  0.90140  0.00885  0.08112  1.0000
  C   C22       1.0  0.59859  0.99115  0.58112  1.0000
  C   C23       1.0  0.09859  0.99114  0.91888  1.0000
  C   C24       1.0  0.40140  0.00885  0.41888  1.0000
  C   C25       1.0  0.97514  0.43537  0.27373  1.0000
  C   C26       1.0  0.52486  0.56463  0.77373  1.0000
  C   C27       1.0  0.02486  0.56463  0.72627  1.0000
  C   C28       1.0  0.47514  0.43537  0.22627  1.0000
  C   C29       1.0  0.95910  0.52243  0.32077  1.0000
  C   C30       1.0  0.54090  0.47757  0.82077  1.0000
  C   C31       1.0  0.04090  0.47758  0.67923  1.0000
  C   C32       1.0  0.45910  0.52243  0.17923  1.0000
  C   C33       1.0  0.91574  0.63838  0.30671  1.0000
  C   C34       1.0  0.58426  0.36161  0.80670  1.0000
  C   C35       1.0  0.08427  0.36162  0.69330  1.0000
  C   C36       1.0  0.41574  0.63838  0.19329  1.0000
  C   C37       1.0  0.89144  0.66173  0.24593  1.0000
  C   C38       1.0  0.60855  0.33827  0.74592  1.0000
  C   C39       1.0  0.10856  0.33827  0.75408  1.0000
  C   C40       1.0  0.39144  0.66173  0.25407  1.0000
  C   C41       1.0  0.90659  0.56754  0.20150  1.0000
  C   C42       1.0  0.59341  0.43246  0.70149  1.0000
  C   C43       1.0  0.09342  0.43246  0.79851  1.0000
  C   C44       1.0  0.40659  0.56754  0.29851  1.0000
  C   C45       1.0  0.98910  0.48844  0.38464  1.0000
  C   C46       1.0  0.51091  0.51156  0.88464  1.0000
  C   C47       1.0  0.01091  0.51157  0.61536  1.0000
  C   C48       1.0  0.48909  0.48843  0.11536  1.0000
  C   C49       1.0  0.49181  0.99283  0.03509  1.0000
  C   C50       1.0  0.00820  0.00717  0.53510  1.0000
  C   C51       1.0  0.50820  0.00717  0.96490  1.0000
  C   C52       1.0  0.99181  0.99284  0.46491  1.0000
  C   C53       1.0  0.00305  0.48049  0.03366  1.0000
  C   C54       1.0  0.49696  0.51952  0.53366  1.0000
  C   C55       1.0  0.99695  0.51951  0.96634  1.0000
  C   C56       1.0  0.50306  0.48050  0.46634  1.0000
  N   N1        1.0  0.01399  0.11893  0.11790  1.0000
  N   N2        1.0  0.48600  0.88107  0.61790  1.0000
  N   N3        1.0  0.98600  0.88106  0.88210  1.0000
  N   N4        1.0  0.51399  0.11893  0.38210  1.0000
  N   N5        1.0  0.94793  0.45555  0.21523  1.0000
  N   N6        1.0  0.55207  0.54446  0.71523  1.0000
  N   N7        1.0  0.05207  0.54446  0.78477  1.0000
  N   N8        1.0  0.44793  0.45555  0.28477  1.0000
  O   O1        1.0  0.67659  0.78486  0.99906  1.0000
  O   O2        1.0  0.82341  0.21514  0.49906  1.0000
  O   O3        1.0  0.32341  0.21513  0.00094  1.0000
  O   O4        1.0  0.17659  0.78487  0.50094  1.0000
  O   O5        1.0  0.78022  0.62313  0.02529  1.0000
  O   O6        1.0  0.71979  0.37688  0.52529  1.0000
  O   O7        1.0  0.21979  0.37687  0.97471  1.0000
  O   O8        1.0  0.28022  0.62313  0.47472  1.0000
  O   O9        1.0  0.04830  0.39532  0.39205  1.0000
  O   O10       1.0  0.45170  0.60468  0.89205  1.0000
  O   O11       1.0  0.95171  0.60468  0.60794  1.0000
  O   O12       1.0  0.54830  0.39531  0.10795  1.0000
  O   O13       1.0  0.95352  0.55510  0.42675  1.0000
  O   O14       1.0  0.54649  0.44491  0.92675  1.0000
  O   O15       1.0  0.04650  0.44491  0.57325  1.0000
  O   O16       1.0  0.45351  0.55508  0.07325  1.0000
  O   O17       1.0  0.86541  0.38317  0.05759  1.0000
  O   O18       1.0  0.63460  0.61684  0.55759  1.0000
  O   O19       1.0  0.13459  0.61683  0.94241  1.0000
  O   O20       1.0  0.36542  0.38318  0.44241  1.0000
  O   O21       1.0  0.14233  0.54630  0.06006  1.0000
  O   O22       1.0  0.35767  0.45369  0.56005  1.0000
  O   O23       1.0  0.85767  0.45368  0.93995  1.0000
  O   O24       1.0  0.64234  0.54633  0.43995  1.0000
  O   O25       1.0  0.42500  0.85620  0.05689  1.0000
  O   O26       1.0  0.07500  0.14381  0.55690  1.0000
  O   O27       1.0  0.57500  0.14381  0.94310  1.0000
  O   O28       1.0  0.92501  0.85620  0.44311  1.0000
  O   O29       1.0  0.54609  0.11796  0.06474  1.0000
  O   O30       1.0  0.95393  0.88204  0.56475  1.0000
  O   O31       1.0  0.45392  0.88204  0.93525  1.0000
  O   O32       1.0  0.04609  0.11796  0.43526  1.0000
