data_image0
_chemical_formula_structural       Ho4Ag4H32C56N8O32
_chemical_formula_sum              "Ho4 Ag4 H32 C56 N8 O32"
_cell_length_a       9.08643
_cell_length_b       9.75987
_cell_length_c       22.0541
_cell_angle_alpha    89.9996
_cell_angle_beta     90.0009
_cell_angle_gamma    118.459

_space_group_name_H-M_alt    "P 1"
_space_group_IT_number       1

loop_
  _space_group_symop_operation_xyz
  'x, y, z'

loop_
  _atom_site_type_symbol
  _atom_site_label
  _atom_site_symmetry_multiplicity
  _atom_site_fract_x
  _atom_site_fract_y
  _atom_site_fract_z
  _atom_site_occupancy
  Ho  Ho1       1.0  0.38273  0.65007  0.99124  1.0000
  Ho  Ho2       1.0  0.11727  0.34994  0.49125  1.0000
  Ho  Ho3       1.0  0.61727  0.34995  0.00875  1.0000
  Ho  Ho4       1.0  0.88273  0.65006  0.50876  1.0000
  Ag  Ag1       1.0  0.97699  0.30656  0.15014  1.0000
  Ag  Ag2       1.0  0.52302  0.69345  0.65014  1.0000
  Ag  Ag3       1.0  0.02301  0.69345  0.84985  1.0000
  Ag  Ag4       1.0  0.47700  0.30655  0.34985  1.0000
  H   H1        1.0  0.07101  0.76617  0.06813  1.0000
  H   H2        1.0  0.42898  0.23383  0.56813  1.0000
  H   H3        1.0  0.92897  0.23383  0.93187  1.0000
  H   H4        1.0  0.57100  0.76616  0.43187  1.0000
  H   H5        1.0  0.28685  0.97750  0.13286  1.0000
  H   H6        1.0  0.21315  0.02250  0.63287  1.0000
  H   H7        1.0  0.71314  0.02249  0.86713  1.0000
  H   H8        1.0  0.78684  0.97748  0.36714  1.0000
  H   H9        1.0  0.23685  0.19658  0.16561  1.0000
  H   H10       1.0  0.26317  0.80342  0.66561  1.0000
  H   H11       1.0  0.76316  0.80341  0.83439  1.0000
  H   H12       1.0  0.73684  0.19657  0.33439  1.0000
  H   H13       1.0  0.79537  0.02345  0.06663  1.0000
  H   H14       1.0  0.70464  0.97656  0.56663  1.0000
  H   H15       1.0  0.20463  0.97657  0.93337  1.0000
  H   H16       1.0  0.29537  0.02344  0.43337  1.0000
  H   H17       1.0  0.01138  0.34623  0.28450  1.0000
  H   H18       1.0  0.48862  0.65377  0.78449  1.0000
  H   H19       1.0  0.98862  0.65377  0.71550  1.0000
  H   H20       1.0  0.51139  0.34624  0.21550  1.0000
  H   H21       1.0  0.90334  0.70853  0.34319  1.0000
  H   H22       1.0  0.59666  0.29147  0.84320  1.0000
  H   H23       1.0  0.09667  0.29146  0.65681  1.0000
  H   H24       1.0  0.40333  0.70853  0.15681  1.0000
  H   H25       1.0  0.86081  0.75264  0.23239  1.0000
  H   H26       1.0  0.63919  0.24735  0.73239  1.0000
  H   H27       1.0  0.13918  0.24735  0.76762  1.0000
  H   H28       1.0  0.36080  0.75264  0.26761  1.0000
  H   H29       1.0  0.88534  0.57931  0.15373  1.0000
  H   H30       1.0  0.61467  0.42068  0.65374  1.0000
  H   H31       1.0  0.11465  0.42068  0.84627  1.0000
  H   H32       1.0  0.38534  0.57931  0.34627  1.0000
  C   C1        1.0  0.77998  0.75217  0.02521  1.0000
  C   C2        1.0  0.72003  0.24783  0.52521  1.0000
  C   C3        1.0  0.22002  0.24783  0.97478  1.0000
  C   C4        1.0  0.27997  0.75217  0.47479  1.0000
  C   C5        1.0  0.91586  0.87843  0.06274  1.0000
  C   C6        1.0  0.58415  0.12158  0.56274  1.0000
  C   C7        1.0  0.08414  0.12158  0.93726  1.0000
  C   C8        1.0  0.41585  0.87842  0.43726  1.0000
  C   C9        1.0  0.05507  0.86516  0.08220  1.0000
  C   C10       1.0  0.44493  0.13484  0.58221  1.0000
  C   C11       1.0  0.94492  0.13484  0.91780  1.0000
  C   C12       1.0  0.55506  0.86515  0.41780  1.0000
  C   C13       1.0  0.17355  0.98073  0.11907  1.0000
  C   C14       1.0  0.32646  0.01927  0.61907  1.0000
  C   C15       1.0  0.82645  0.01926  0.88093  1.0000
  C   C16       1.0  0.67354  0.98071  0.38093  1.0000
  C   C17       1.0  0.14774  0.10430  0.13654  1.0000
  C   C18       1.0  0.35227  0.89570  0.63654  1.0000
  C   C19       1.0  0.85227  0.89569  0.86346  1.0000
  C   C20       1.0  0.64773  0.10429  0.36346  1.0000
  C   C21       1.0  0.90104  0.00815  0.08126  1.0000
  C   C22       1.0  0.59896  0.99186  0.58126  1.0000
  C   C23       1.0  0.09896  0.99186  0.91874  1.0000
  C   C24       1.0  0.40104  0.00815  0.41874  1.0000
  C   C25       1.0  0.97556  0.43543  0.27406  1.0000
  C   C26       1.0  0.52444  0.56456  0.77405  1.0000
  C   C27       1.0  0.02444  0.56456  0.72594  1.0000
  C   C28       1.0  0.47556  0.43544  0.22594  1.0000
  C   C29       1.0  0.95952  0.52292  0.32103  1.0000
  C   C30       1.0  0.54048  0.47708  0.82103  1.0000
  C   C31       1.0  0.04049  0.47707  0.67897  1.0000
  C   C32       1.0  0.45952  0.52293  0.17897  1.0000
  C   C33       1.0  0.91664  0.63926  0.30677  1.0000
  C   C34       1.0  0.58336  0.36075  0.80677  1.0000
  C   C35       1.0  0.08337  0.36074  0.69324  1.0000
  C   C36       1.0  0.41664  0.63926  0.19323  1.0000
  C   C37       1.0  0.89280  0.66263  0.24591  1.0000
  C   C38       1.0  0.60721  0.33737  0.74592  1.0000
  C   C39       1.0  0.10720  0.33736  0.75409  1.0000
  C   C40       1.0  0.39279  0.66263  0.25409  1.0000
  C   C41       1.0  0.90779  0.56801  0.20159  1.0000
  C   C42       1.0  0.59222  0.43199  0.70159  1.0000
  C   C43       1.0  0.09220  0.43199  0.79842  1.0000
  C   C44       1.0  0.40779  0.56800  0.29841  1.0000
  C   C45       1.0  0.98894  0.48927  0.38508  1.0000
  C   C46       1.0  0.51105  0.51074  0.88508  1.0000
  C   C47       1.0  0.01107  0.51073  0.61492  1.0000
  C   C48       1.0  0.48894  0.48927  0.11492  1.0000
  C   C49       1.0  0.49188  0.99283  0.03507  1.0000
  C   C50       1.0  0.00812  0.00719  0.53508  1.0000
  C   C51       1.0  0.50812  0.00719  0.96492  1.0000
  C   C52       1.0  0.99188  0.99282  0.46493  1.0000
  C   C53       1.0  0.00285  0.48059  0.03367  1.0000
  C   C54       1.0  0.49716  0.51941  0.53367  1.0000
  C   C55       1.0  0.99715  0.51941  0.96633  1.0000
  C   C56       1.0  0.50286  0.48058  0.46633  1.0000
  N   N1        1.0  0.01363  0.11833  0.11823  1.0000
  N   N2        1.0  0.48638  0.88167  0.61823  1.0000
  N   N3        1.0  0.98637  0.88167  0.88177  1.0000
  N   N4        1.0  0.51362  0.11832  0.38177  1.0000
  N   N5        1.0  0.94847  0.45555  0.21548  1.0000
  N   N6        1.0  0.55153  0.54445  0.71548  1.0000
  N   N7        1.0  0.05153  0.54445  0.78452  1.0000
  N   N8        1.0  0.44847  0.45555  0.28452  1.0000
  O   O1        1.0  0.67619  0.78448  0.99881  1.0000
  O   O2        1.0  0.82381  0.21553  0.49881  1.0000
  O   O3        1.0  0.32381  0.21553  0.00118  1.0000
  O   O4        1.0  0.17619  0.78447  0.50119  1.0000
  O   O5        1.0  0.77973  0.62221  0.02487  1.0000
  O   O6        1.0  0.72028  0.37780  0.52488  1.0000
  O   O7        1.0  0.22028  0.37781  0.97512  1.0000
  O   O8        1.0  0.27972  0.62220  0.47513  1.0000
  O   O9        1.0  0.04805  0.39605  0.39285  1.0000
  O   O10       1.0  0.45193  0.60395  0.89284  1.0000
  O   O11       1.0  0.95196  0.60395  0.60716  1.0000
  O   O12       1.0  0.54805  0.39606  0.10715  1.0000
  O   O13       1.0  0.95319  0.55668  0.42689  1.0000
  O   O14       1.0  0.54682  0.44336  0.92689  1.0000
  O   O15       1.0  0.04683  0.44333  0.57311  1.0000
  O   O16       1.0  0.45318  0.55668  0.07311  1.0000
  O   O17       1.0  0.86456  0.38314  0.05760  1.0000
  O   O18       1.0  0.63544  0.61687  0.55759  1.0000
  O   O19       1.0  0.13543  0.61688  0.94241  1.0000
  O   O20       1.0  0.36456  0.38313  0.44240  1.0000
  O   O21       1.0  0.14260  0.54682  0.06008  1.0000
  O   O22       1.0  0.35740  0.45316  0.56008  1.0000
  O   O23       1.0  0.85740  0.45316  0.93992  1.0000
  O   O24       1.0  0.64261  0.54682  0.43992  1.0000
  O   O25       1.0  0.42569  0.85586  0.05688  1.0000
  O   O26       1.0  0.07430  0.14414  0.55689  1.0000
  O   O27       1.0  0.57429  0.14415  0.94311  1.0000
  O   O28       1.0  0.92570  0.85586  0.44312  1.0000
  O   O29       1.0  0.54561  0.11829  0.06469  1.0000
  O   O30       1.0  0.95440  0.88171  0.56470  1.0000
  O   O31       1.0  0.45439  0.88171  0.93530  1.0000
  O   O32       1.0  0.04562  0.11829  0.43531  1.0000
