data_image0
_chemical_formula_structural       Cd5H40C26N12O16
_chemical_formula_sum              "Cd5 H40 C26 N12 O16"
_cell_length_a       9.04869
_cell_length_b       9.68481
_cell_length_c       13.0367
_cell_angle_alpha    94.2137
_cell_angle_beta     109.251
_cell_angle_gamma    113.381

_space_group_name_H-M_alt    "P 1"
_space_group_IT_number       1

loop_
  _space_group_symop_operation_xyz
  'x, y, z'

loop_
  _atom_site_type_symbol
  _atom_site_label
  _atom_site_symmetry_multiplicity
  _atom_site_fract_x
  _atom_site_fract_y
  _atom_site_fract_z
  _atom_site_occupancy
  Cd  Cd1       1.0  0.83787  0.43895  0.27968  1.0000
  Cd  Cd2       1.0  0.16213  0.56105  0.72031  1.0000
  Cd  Cd3       1.0  0.04549  0.17798  0.28799  1.0000
  Cd  Cd4       1.0  0.95451  0.82202  0.71201  1.0000
  Cd  Cd5       1.0  1.00000  0.00000  1.00000  1.0000
  H   H1        1.0  0.83799  0.65048  0.45634  1.0000
  H   H2        1.0  0.16201  0.34952  0.54366  1.0000
  H   H3        1.0  0.87264  0.52978  0.51653  1.0000
  H   H4        1.0  0.12736  0.47022  0.48347  1.0000
  H   H5        1.0  0.19704  0.12813  0.51469  1.0000
  H   H6        1.0  0.80296  0.87187  0.48531  1.0000
  H   H7        1.0  0.35793  0.28281  0.51920  1.0000
  H   H8        1.0  0.64207  0.71719  0.48080  1.0000
  H   H9        1.0  0.86356  0.61600  0.05331  1.0000
  H   H10       1.0  0.13644  0.38401  0.94669  1.0000
  H   H11       1.0  0.96220  0.83190  0.37643  1.0000
  H   H12       1.0  0.03780  0.16810  0.62357  1.0000
  H   H13       1.0  0.43958  0.22390  0.05718  1.0000
  H   H14       1.0  0.56042  0.77610  0.94282  1.0000
  H   H15       1.0  0.51271  0.39948  0.38393  1.0000
  H   H16       1.0  0.48729  0.60052  0.61607  1.0000
  H   H17       1.0  0.58563  0.04000  0.90110  1.0000
  H   H18       1.0  0.41438  0.96001  0.09890  1.0000
  H   H19       1.0  0.76033  0.17231  0.87630  1.0000
  H   H20       1.0  0.23967  0.82769  0.12370  1.0000
  H   H21       1.0  0.43743  0.19491  0.87965  1.0000
  H   H22       1.0  0.56257  0.80509  0.12035  1.0000
  H   H23       1.0  0.63312  0.36755  0.94185  1.0000
  H   H24       1.0  0.36688  0.63245  0.05815  1.0000
  H   H25       1.0  0.48676  0.17862  0.70148  1.0000
  H   H26       1.0  0.51324  0.82138  0.29852  1.0000
  H   H27       1.0  0.46602  0.34477  0.74134  1.0000
  H   H28       1.0  0.53399  0.65523  0.25866  1.0000
  H   H29       1.0  0.81559  0.33414  0.77876  1.0000
  H   H30       1.0  0.18441  0.66586  0.22124  1.0000
  H   H31       1.0  0.79849  0.49913  0.82410  1.0000
  H   H32       1.0  0.20151  0.50087  0.17590  1.0000
  H   H33       1.0  0.51824  0.07695  0.33747  1.0000
  H   H34       1.0  0.48176  0.92305  0.66253  1.0000
  H   H35       1.0  0.66730  0.23273  0.45182  1.0000
  H   H36       1.0  0.33270  0.76727  0.54818  1.0000
  H   H37       1.0  0.57118  0.89466  0.46544  1.0000
  H   H38       1.0  0.42882  0.10534  0.53455  1.0000
  H   H39       1.0  0.69230  0.05729  0.57867  1.0000
  H   H40       1.0  0.30770  0.94271  0.42133  1.0000
  C   C1        1.0  0.89730  0.70208  0.12602  1.0000
  C   C2        1.0  0.10271  0.29792  0.87398  1.0000
  C   C3        1.0  0.94577  0.80975  0.28974  1.0000
  C   C4        1.0  0.05423  0.19025  0.71026  1.0000
  C   C5        1.0  0.41538  0.24937  0.13078  1.0000
  C   C6        1.0  0.58462  0.75063  0.86922  1.0000
  C   C7        1.0  0.45298  0.34014  0.29616  1.0000
  C   C8        1.0  0.54702  0.65986  0.70384  1.0000
  C   C9        1.0  0.78901  0.21499  0.04554  1.0000
  C   C10       1.0  0.21098  0.78501  0.95446  1.0000
  C   C11       1.0  0.67336  0.16450  0.92041  1.0000
  C   C12       1.0  0.32664  0.83550  0.07959  1.0000
  C   C13       1.0  0.56953  0.25659  0.88020  1.0000
  C   C14       1.0  0.43047  0.74341  0.11980  1.0000
  C   C15       1.0  0.55228  0.28813  0.76450  1.0000
  C   C16       1.0  0.44772  0.71187  0.23550  1.0000
  C   C17       1.0  0.72759  0.38955  0.75970  1.0000
  C   C18       1.0  0.27241  0.61045  0.24030  1.0000
  C   C19       1.0  0.72022  0.43212  0.64903  1.0000
  C   C20       1.0  0.27978  0.56789  0.35097  1.0000
  C   C21       1.0  0.77978  0.11000  0.38722  1.0000
  C   C22       1.0  0.22022  0.89000  0.61278  1.0000
  C   C23       1.0  0.63229  0.11193  0.41675  1.0000
  C   C24       1.0  0.36771  0.88807  0.58325  1.0000
  C   C25       1.0  0.58485  0.00941  0.49524  1.0000
  C   C26       1.0  0.41515  0.99059  0.50476  1.0000
  N   N1        1.0  0.97504  0.92075  0.23389  1.0000
  N   N2        1.0  0.02496  0.07925  0.76611  1.0000
  N   N3        1.0  0.94463  0.85188  0.12846  1.0000
  N   N4        1.0  0.05537  0.14812  0.87154  1.0000
  N   N5        1.0  0.89691  0.67044  0.22550  1.0000
  N   N6        1.0  0.10310  0.32956  0.77450  1.0000
  N   N7        1.0  0.28131  0.25200  0.24053  1.0000
  N   N8        1.0  0.71869  0.74800  0.75947  1.0000
  N   N9        1.0  0.25710  0.19310  0.13393  1.0000
  N   N10       1.0  0.74290  0.80690  0.86607  1.0000
  N   N11       1.0  0.54171  0.34166  0.23020  1.0000
  N   N12       1.0  0.45829  0.65834  0.76980  1.0000
  O   O1        1.0  0.87654  0.14037  0.08450  1.0000
  O   O2        1.0  0.12345  0.85963  0.91550  1.0000
  O   O3        1.0  0.79270  0.32807  0.10298  1.0000
  O   O4        1.0  0.20730  0.67194  0.89702  1.0000
  O   O5        1.0  0.86928  0.52361  0.64606  1.0000
  O   O6        1.0  0.13072  0.47639  0.35394  1.0000
  O   O7        1.0  0.57904  0.38362  0.56529  1.0000
  O   O8        1.0  0.42096  0.61638  0.43471  1.0000
  O   O9        1.0  0.82507  0.19639  0.32060  1.0000
  O   O10       1.0  0.17493  0.80361  0.67940  1.0000
  O   O11       1.0  0.85292  0.02708  0.42342  1.0000
  O   O12       1.0  0.14708  0.97292  0.57658  1.0000
  O   O13       1.0  0.88224  0.57227  0.45020  1.0000
  O   O14       1.0  0.11777  0.42773  0.54980  1.0000
  O   O15       1.0  0.22721  0.22661  0.48863  1.0000
  O   O16       1.0  0.77279  0.77339  0.51137  1.0000
