data_image0
_chemical_formula_structural       Li2Mn2H24C32N4Cl8O12
_chemical_formula_sum              "Li2 Mn2 H24 C32 N4 Cl8 O12"
_cell_length_a       7.70858
_cell_length_b       11.1899
_cell_length_c       11.19
_cell_angle_alpha    83.1953
_cell_angle_beta     84.7525
_cell_angle_gamma    84.7524

_space_group_name_H-M_alt    "P 1"
_space_group_IT_number       1

loop_
  _space_group_symop_operation_xyz
  'x, y, z'

loop_
  _atom_site_type_symbol
  _atom_site_label
  _atom_site_symmetry_multiplicity
  _atom_site_fract_x
  _atom_site_fract_y
  _atom_site_fract_z
  _atom_site_occupancy
  Li  Li1       1.0  0.75000  0.10472  0.89529  1.0000
  Li  Li2       1.0  0.25000  0.89530  0.10470  1.0000
  Mn  Mn1       1.0  0.25000  0.10570  0.89429  1.0000
  Mn  Mn2       1.0  0.75000  0.89813  0.10188  1.0000
  H   H1        1.0  0.96811  0.10889  0.99148  1.0000
  H   H2        1.0  0.53189  0.00852  0.89111  1.0000
  H   H3        1.0  0.03621  0.88834  0.01014  1.0000
  H   H4        1.0  0.46379  0.98987  0.11166  1.0000
  H   H5        1.0  0.06814  0.26690  0.73614  1.0000
  H   H6        1.0  0.43186  0.26386  0.73309  1.0000
  H   H7        1.0  0.93902  0.70624  0.25742  1.0000
  H   H8        1.0  0.56097  0.74258  0.29376  1.0000
  H   H9        1.0  0.12045  0.34554  0.59068  1.0000
  H   H10       1.0  0.37954  0.40931  0.65445  1.0000
  H   H11       1.0  0.87791  0.65324  0.41151  1.0000
  H   H12       1.0  0.62210  0.58849  0.34676  1.0000
  H   H13       1.0  0.35868  0.99149  0.55557  1.0000
  H   H14       1.0  0.14132  0.44443  0.00850  1.0000
  H   H15       1.0  0.66027  0.99607  0.42958  1.0000
  H   H16       1.0  0.83973  0.57042  0.00393  1.0000
  H   H17       1.0  0.50250  0.53943  0.86351  1.0000
  H   H18       1.0  0.99750  0.13648  0.46056  1.0000
  H   H19       1.0  0.50631  0.45670  0.13732  1.0000
  H   H20       1.0  0.99369  0.86269  0.54330  1.0000
  H   H21       1.0  0.51604  0.80785  0.55469  1.0000
  H   H22       1.0  0.98397  0.44531  0.19214  1.0000
  H   H23       1.0  0.48522  0.18148  0.44031  1.0000
  H   H24       1.0  0.01477  0.55970  0.81853  1.0000
  C   C1        1.0  0.17370  0.28439  0.66466  1.0000
  C   C2        1.0  0.32629  0.33533  0.71561  1.0000
  C   C3        1.0  0.83390  0.70887  0.33092  1.0000
  C   C4        1.0  0.66610  0.66908  0.29113  1.0000
  C   C5        1.0  0.33461  0.98393  0.65420  1.0000
  C   C6        1.0  0.16539  0.34580  0.01605  1.0000
  C   C7        1.0  0.66893  0.00701  0.33070  1.0000
  C   C8        1.0  0.83106  0.66931  0.99299  1.0000
  C   C9        1.0  0.38420  0.86837  0.71905  1.0000
  C   C10       1.0  0.11580  0.28095  0.13162  1.0000
  C   C11       1.0  0.61179  0.12365  0.27278  1.0000
  C   C12       1.0  0.88820  0.72723  0.87634  1.0000
  C   C13       1.0  0.33611  0.83752  0.84506  1.0000
  C   C14       1.0  0.16389  0.15494  0.16246  1.0000
  C   C15       1.0  0.65891  0.15682  0.14786  1.0000
  C   C16       1.0  0.84109  0.85215  0.84319  1.0000
  C   C17       1.0  0.37917  0.71531  0.89178  1.0000
  C   C18       1.0  0.12083  0.10823  0.28468  1.0000
  C   C19       1.0  0.62148  0.28009  0.10380  1.0000
  C   C20       1.0  0.87852  0.89621  0.71991  1.0000
  C   C21       1.0  0.47250  0.63167  0.82376  1.0000
  C   C22       1.0  0.02751  0.17624  0.36832  1.0000
  C   C23       1.0  0.53310  0.36328  0.17487  1.0000
  C   C24       1.0  0.96690  0.82514  0.63673  1.0000
  C   C25       1.0  0.52470  0.66719  0.70273  1.0000
  C   C26       1.0  0.97532  0.29727  0.33280  1.0000
  C   C27       1.0  0.48109  0.32568  0.29549  1.0000
  C   C28       1.0  0.01891  0.70453  0.67432  1.0000
  C   C29       1.0  0.47895  0.78262  0.65009  1.0000
  C   C30       1.0  0.02105  0.34991  0.21737  1.0000
  C   C31       1.0  0.52212  0.20831  0.34525  1.0000
  C   C32       1.0  0.97787  0.65477  0.79169  1.0000
  N   N1        1.0  0.26260  0.07868  0.70108  1.0000
  N   N2        1.0  0.23740  0.29892  0.92131  1.0000
  N   N3        1.0  0.73996  0.91440  0.27825  1.0000
  N   N4        1.0  0.76003  0.72176  0.08561  1.0000
  Cl  Cl1       1.0  0.30699  0.66812  0.03998  1.0000
  Cl  Cl2       1.0  0.19301  0.96003  0.33187  1.0000
  Cl  Cl3       1.0  0.69073  0.32969  0.95553  1.0000
  Cl  Cl4       1.0  0.80927  0.04448  0.67031  1.0000
  Cl  Cl5       1.0  0.64364  0.56254  0.61841  1.0000
  Cl  Cl6       1.0  0.85637  0.38160  0.43745  1.0000
  Cl  Cl7       1.0  0.36732  0.43011  0.38276  1.0000
  Cl  Cl8       1.0  0.13267  0.61725  0.56989  1.0000
  O   O1        1.0  0.22842  0.17493  0.61073  1.0000
  O   O2        1.0  0.27157  0.38927  0.82506  1.0000
  O   O3        1.0  0.80902  0.82743  0.36909  1.0000
  O   O4        1.0  0.69098  0.63091  0.17258  1.0000
  O   O5        1.0  0.25268  0.91414  0.91414  1.0000
  O   O6        1.0  0.24732  0.08587  0.08585  1.0000
  O   O7        1.0  0.73623  0.07919  0.07687  1.0000
  O   O8        1.0  0.76377  0.92314  0.92081  1.0000
  O   O9        1.0  0.00579  0.12205  0.90498  1.0000
  O   O10       1.0  0.49421  0.09502  0.87794  1.0000
  O   O11       1.0  0.99540  0.88706  0.09606  1.0000
  O   O12       1.0  0.50460  0.90394  0.11294  1.0000
