data_image0
_chemical_formula_structural       Th2H16C32O16
_chemical_formula_sum              "Th2 H16 C32 O16"
_cell_length_a       9.32524
_cell_length_b       10.7493
_cell_length_c       10.7493
_cell_angle_alpha    114.025
_cell_angle_beta     103.561
_cell_angle_gamma    103.561

_space_group_name_H-M_alt    "P 1"
_space_group_IT_number       1

loop_
  _space_group_symop_operation_xyz
  'x, y, z'

loop_
  _atom_site_type_symbol
  _atom_site_label
  _atom_site_symmetry_multiplicity
  _atom_site_fract_x
  _atom_site_fract_y
  _atom_site_fract_z
  _atom_site_occupancy
  Th  Th1       1.0  0.25000  0.98020  0.01980  1.0000
  Th  Th2       1.0  0.75000  0.01980  0.98020  1.0000
  H   H1        1.0  0.54003  0.71530  0.56724  1.0000
  H   H2        1.0  0.95997  0.43276  0.28470  1.0000
  H   H3        1.0  0.45997  0.28470  0.43276  1.0000
  H   H4        1.0  0.04003  0.56724  0.71530  1.0000
  H   H5        1.0  0.05693  0.66632  0.52293  1.0000
  H   H6        1.0  0.44307  0.47707  0.33368  1.0000
  H   H7        1.0  0.94307  0.33368  0.47707  1.0000
  H   H8        1.0  0.55693  0.52293  0.66632  1.0000
  H   H9        1.0  0.26292  0.01984  0.47631  1.0000
  H   H10       1.0  0.23708  0.52369  0.98016  1.0000
  H   H11       1.0  0.73708  0.98015  0.52369  1.0000
  H   H12       1.0  0.76292  0.47631  0.01984  1.0000
  H   H13       1.0  0.77377  0.96047  0.29299  1.0000
  H   H14       1.0  0.72623  0.70701  0.03953  1.0000
  H   H15       1.0  0.22623  0.03953  0.70701  1.0000
  H   H16       1.0  0.27377  0.29299  0.96047  1.0000
  C   C1        1.0  0.02039  0.98949  0.37230  1.0000
  C   C2        1.0  0.47961  0.62770  0.01051  1.0000
  C   C3        1.0  0.97961  0.01051  0.62770  1.0000
  C   C4        1.0  0.52039  0.37230  0.98949  1.0000
  C   C5        1.0  0.41340  0.65272  0.50418  1.0000
  C   C6        1.0  0.08661  0.49582  0.34728  1.0000
  C   C7        1.0  0.58660  0.34728  0.49582  1.0000
  C   C8        1.0  0.91340  0.50418  0.65272  1.0000
  C   C9        1.0  0.36252  0.82501  0.71411  1.0000
  C   C10       1.0  0.13748  0.28589  0.17499  1.0000
  C   C11       1.0  0.63748  0.17499  0.28589  1.0000
  C   C12       1.0  0.86252  0.71411  0.82501  1.0000
  C   C13       1.0  0.14047  0.62540  0.47923  1.0000
  C   C14       1.0  0.35953  0.52077  0.37460  1.0000
  C   C15       1.0  0.85953  0.37460  0.52077  1.0000
  C   C16       1.0  0.64047  0.47923  0.62540  1.0000
  C   C17       1.0  0.14869  0.01147  0.48822  1.0000
  C   C18       1.0  0.35131  0.51178  0.98853  1.0000
  C   C19       1.0  0.85130  0.98852  0.51177  1.0000
  C   C20       1.0  0.64870  0.48822  0.01147  1.0000
  C   C21       1.0  0.04385  0.98220  0.23759  1.0000
  C   C22       1.0  0.45615  0.76241  0.01780  1.0000
  C   C23       1.0  0.95616  0.01780  0.76241  1.0000
  C   C24       1.0  0.54384  0.23759  0.98220  1.0000
  C   C25       1.0  0.30397  0.70158  0.56094  1.0000
  C   C26       1.0  0.19603  0.43906  0.29842  1.0000
  C   C27       1.0  0.69603  0.29842  0.43906  1.0000
  C   C28       1.0  0.80397  0.56094  0.70158  1.0000
  C   C29       1.0  0.87176  0.97779  0.38433  1.0000
  C   C30       1.0  0.62824  0.61567  0.02220  1.0000
  C   C31       1.0  0.12824  0.02220  0.61567  1.0000
  C   C32       1.0  0.37176  0.38433  0.97780  1.0000
  O   O1        1.0  0.50910  0.90860  0.77315  1.0000
  O   O2        1.0  0.99091  0.22685  0.09139  1.0000
  O   O3        1.0  0.49091  0.09140  0.22685  1.0000
  O   O4        1.0  0.00909  0.77314  0.90860  1.0000
  O   O5        1.0  0.93286  0.98425  0.14313  1.0000
  O   O6        1.0  0.56715  0.85687  0.01575  1.0000
  O   O7        1.0  0.06714  0.01576  0.85687  1.0000
  O   O8        1.0  0.43286  0.14313  0.98424  1.0000
  O   O9        1.0  0.17324  0.97616  0.22203  1.0000
  O   O10       1.0  0.32676  0.77797  0.02385  1.0000
  O   O11       1.0  0.82675  0.02385  0.77797  1.0000
  O   O12       1.0  0.67325  0.22203  0.97615  1.0000
  O   O13       1.0  0.26500  0.83678  0.77967  1.0000
  O   O14       1.0  0.23500  0.22033  0.16322  1.0000
  O   O15       1.0  0.73501  0.16322  0.22033  1.0000
  O   O16       1.0  0.76499  0.77967  0.83678  1.0000
