data_image0
_chemical_formula_structural       Th2H44C44N4O20
_chemical_formula_sum              "Th2 H44 C44 N4 O20"
_cell_length_a       9.61998
_cell_length_b       9.62
_cell_length_c       13.4738
_cell_angle_alpha    80.2389
_cell_angle_beta     80.2387
_cell_angle_gamma    74.5458

_space_group_name_H-M_alt    "P 1"
_space_group_IT_number       1

loop_
  _space_group_symop_operation_xyz
  'x, y, z'

loop_
  _atom_site_type_symbol
  _atom_site_label
  _atom_site_symmetry_multiplicity
  _atom_site_fract_x
  _atom_site_fract_y
  _atom_site_fract_z
  _atom_site_occupancy
  Th  Th1       1.0  0.87464  0.12536  0.75000  1.0000
  Th  Th2       1.0  0.12536  0.87464  0.25000  1.0000
  H   H1        1.0  0.30741  0.77046  0.89431  1.0000
  H   H2        1.0  0.22954  0.69259  0.60569  1.0000
  H   H3        1.0  0.69259  0.22954  0.10569  1.0000
  H   H4        1.0  0.77046  0.30741  0.39431  1.0000
  H   H5        1.0  0.51712  0.54978  0.89693  1.0000
  H   H6        1.0  0.45022  0.48288  0.60308  1.0000
  H   H7        1.0  0.48288  0.45022  0.10307  1.0000
  H   H8        1.0  0.54978  0.51712  0.39692  1.0000
  H   H9        1.0  0.00404  0.57235  0.81320  1.0000
  H   H10       1.0  0.42765  0.99596  0.68679  1.0000
  H   H11       1.0  0.99596  0.42764  0.18680  1.0000
  H   H12       1.0  0.57236  0.00404  0.31320  1.0000
  H   H13       1.0  0.95389  0.26037  0.07618  1.0000
  H   H14       1.0  0.73963  0.04611  0.42382  1.0000
  H   H15       1.0  0.04611  0.73963  0.92382  1.0000
  H   H16       1.0  0.26037  0.95389  0.57618  1.0000
  H   H17       1.0  0.82249  0.99058  0.03179  1.0000
  H   H18       1.0  0.00942  0.17751  0.46821  1.0000
  H   H19       1.0  0.17750  0.00942  0.96821  1.0000
  H   H20       1.0  0.99058  0.82249  0.53179  1.0000
  H   H21       1.0  0.55729  0.85946  0.17451  1.0000
  H   H22       1.0  0.14055  0.44271  0.32549  1.0000
  H   H23       1.0  0.44271  0.14054  0.82549  1.0000
  H   H24       1.0  0.85946  0.55729  0.67451  1.0000
  H   H25       1.0  0.73701  0.88171  0.17414  1.0000
  H   H26       1.0  0.11829  0.26299  0.32586  1.0000
  H   H27       1.0  0.26299  0.11829  0.82586  1.0000
  H   H28       1.0  0.88171  0.73701  0.67414  1.0000
  H   H29       1.0  0.71028  0.70584  0.16938  1.0000
  H   H30       1.0  0.29416  0.28972  0.33062  1.0000
  H   H31       1.0  0.28972  0.29416  0.83062  1.0000
  H   H32       1.0  0.70584  0.71028  0.66938  1.0000
  H   H33       1.0  0.68585  0.65635  0.98453  1.0000
  H   H34       1.0  0.34365  0.31415  0.51547  1.0000
  H   H35       1.0  0.31415  0.34365  0.01547  1.0000
  H   H36       1.0  0.65635  0.68585  0.48453  1.0000
  H   H37       1.0  0.62938  0.81954  0.89981  1.0000
  H   H38       1.0  0.18046  0.37062  0.60019  1.0000
  H   H39       1.0  0.37062  0.18046  0.10019  1.0000
  H   H40       1.0  0.81954  0.62938  0.39981  1.0000
  H   H41       1.0  0.51341  0.77732  0.01566  1.0000
  H   H42       1.0  0.22268  0.48659  0.48434  1.0000
  H   H43       1.0  0.48659  0.22268  0.98434  1.0000
  H   H44       1.0  0.77732  0.51341  0.51566  1.0000
  C   C1        1.0  0.12818  0.87183  0.75000  1.0000
  C   C2        1.0  0.87182  0.12817  0.25000  1.0000
  C   C3        1.0  0.25608  0.74392  0.75000  1.0000
  C   C4        1.0  0.74392  0.25608  0.25000  1.0000
  C   C5        1.0  0.33843  0.70598  0.83135  1.0000
  C   C6        1.0  0.29402  0.66157  0.66866  1.0000
  C   C7        1.0  0.66157  0.29402  0.16866  1.0000
  C   C8        1.0  0.70598  0.33843  0.33134  1.0000
  C   C9        1.0  0.45507  0.58393  0.83271  1.0000
  C   C10       1.0  0.41607  0.54492  0.66730  1.0000
  C   C11       1.0  0.54493  0.41607  0.16729  1.0000
  C   C12       1.0  0.58393  0.45508  0.33271  1.0000
  C   C13       1.0  0.49577  0.50422  0.75001  1.0000
  C   C14       1.0  0.50422  0.49577  0.25000  1.0000
  C   C15       1.0  0.62364  0.37636  0.75001  1.0000
  C   C16       1.0  0.37636  0.62364  0.24999  1.0000
  C   C17       1.0  0.00223  0.54187  0.89491  1.0000
  C   C18       1.0  0.45813  0.99777  0.60509  1.0000
  C   C19       1.0  0.99777  0.45813  0.10509  1.0000
  C   C20       1.0  0.54187  0.00223  0.39491  1.0000
  C   C21       1.0  0.97344  0.36607  0.04434  1.0000
  C   C22       1.0  0.63393  0.02656  0.45566  1.0000
  C   C23       1.0  0.02656  0.63393  0.95566  1.0000
  C   C24       1.0  0.36607  0.97344  0.54434  1.0000
  C   C25       1.0  0.97523  0.40736  0.93941  1.0000
  C   C26       1.0  0.59264  0.02477  0.56059  1.0000
  C   C27       1.0  0.02477  0.59264  0.06059  1.0000
  C   C28       1.0  0.40736  0.97523  0.43941  1.0000
  C   C29       1.0  0.94695  0.30782  0.87612  1.0000
  C   C30       1.0  0.69217  0.05305  0.62388  1.0000
  C   C31       1.0  0.05305  0.69218  0.12388  1.0000
  C   C32       1.0  0.30782  0.94695  0.37612  1.0000
  C   C33       1.0  0.77619  0.93617  0.98457  1.0000
  C   C34       1.0  0.06383  0.22381  0.51543  1.0000
  C   C35       1.0  0.22381  0.06383  0.01543  1.0000
  C   C36       1.0  0.93617  0.77619  0.48457  1.0000
  C   C37       1.0  0.67272  0.82312  0.14476  1.0000
  C   C38       1.0  0.17688  0.32728  0.35524  1.0000
  C   C39       1.0  0.32728  0.17688  0.85524  1.0000
  C   C40       1.0  0.82312  0.67272  0.64476  1.0000
  C   C41       1.0  0.62575  0.77150  0.97966  1.0000
  C   C42       1.0  0.22850  0.37426  0.52034  1.0000
  C   C43       1.0  0.37425  0.22850  0.02034  1.0000
  C   C44       1.0  0.77150  0.62574  0.47966  1.0000
  N   N1        1.0  0.69284  0.84989  0.03401  1.0000
  N   N2        1.0  0.15011  0.30716  0.46599  1.0000
  N   N3        1.0  0.30716  0.15011  0.96599  1.0000
  N   N4        1.0  0.84989  0.69284  0.53401  1.0000
  O   O1        1.0  0.02601  0.87874  0.69815  1.0000
  O   O2        1.0  0.12126  0.97400  0.80186  1.0000
  O   O3        1.0  0.97399  0.12126  0.30185  1.0000
  O   O4        1.0  0.87874  0.02600  0.19814  1.0000
  O   O5        1.0  0.65285  0.29784  0.83409  1.0000
  O   O6        1.0  0.70216  0.34715  0.66592  1.0000
  O   O7        1.0  0.34715  0.70216  0.16591  1.0000
  O   O8        1.0  0.29784  0.65285  0.33408  1.0000
  O   O9        1.0  0.92042  0.18649  0.91766  1.0000
  O   O10       1.0  0.81351  0.07958  0.58234  1.0000
  O   O11       1.0  0.07958  0.81351  0.08234  1.0000
  O   O12       1.0  0.18649  0.92042  0.41766  1.0000
  O   O13       1.0  0.94904  0.34523  0.77981  1.0000
  O   O14       1.0  0.65477  0.05096  0.72019  1.0000
  O   O15       1.0  0.05096  0.65477  0.22019  1.0000
  O   O16       1.0  0.34523  0.94904  0.27981  1.0000
  O   O17       1.0  0.80247  0.95475  0.88865  1.0000
  O   O18       1.0  0.04525  0.19753  0.61135  1.0000
  O   O19       1.0  0.19753  0.04525  0.11135  1.0000
  O   O20       1.0  0.95475  0.80247  0.38865  1.0000
