data_image0
_chemical_formula_structural       Th2H44C44N4O20
_chemical_formula_sum              "Th2 H44 C44 N4 O20"
_cell_length_a       9.61317
_cell_length_b       9.61317
_cell_length_c       13.5006
_cell_angle_alpha    80.3308
_cell_angle_beta     80.3307
_cell_angle_gamma    74.5853

_space_group_name_H-M_alt    "P 1"
_space_group_IT_number       1

loop_
  _space_group_symop_operation_xyz
  'x, y, z'

loop_
  _atom_site_type_symbol
  _atom_site_label
  _atom_site_symmetry_multiplicity
  _atom_site_fract_x
  _atom_site_fract_y
  _atom_site_fract_z
  _atom_site_occupancy
  Th  Th1       1.0  0.87610  0.12390  0.75000  1.0000
  Th  Th2       1.0  0.12390  0.87610  0.25000  1.0000
  H   H1        1.0  0.51418  0.54381  0.89877  1.0000
  H   H2        1.0  0.45619  0.48583  0.60122  1.0000
  H   H3        1.0  0.48583  0.45619  0.10122  1.0000
  H   H4        1.0  0.54381  0.51417  0.39877  1.0000
  H   H5        1.0  0.30283  0.76391  0.89692  1.0000
  H   H6        1.0  0.23608  0.69717  0.60308  1.0000
  H   H7        1.0  0.69717  0.23608  0.10308  1.0000
  H   H8        1.0  0.76391  0.30283  0.39692  1.0000
  H   H9        1.0  0.95911  0.25830  0.07588  1.0000
  H   H10       1.0  0.74170  0.04088  0.42412  1.0000
  H   H11       1.0  0.04089  0.74170  0.92412  1.0000
  H   H12       1.0  0.25830  0.95911  0.57588  1.0000
  H   H13       1.0  0.81680  0.99873  0.03024  1.0000
  H   H14       1.0  0.00127  0.18320  0.46976  1.0000
  H   H15       1.0  0.18320  0.00127  0.96976  1.0000
  H   H16       1.0  0.99873  0.81680  0.53024  1.0000
  H   H17       1.0  0.00078  0.57254  0.81406  1.0000
  H   H18       1.0  0.42746  0.99921  0.68595  1.0000
  H   H19       1.0  0.99921  0.42745  0.18595  1.0000
  H   H20       1.0  0.57255  0.00078  0.31406  1.0000
  H   H21       1.0  0.51283  0.78530  0.00862  1.0000
  H   H22       1.0  0.21471  0.48716  0.49138  1.0000
  H   H23       1.0  0.48715  0.21471  0.99138  1.0000
  H   H24       1.0  0.78530  0.51283  0.50862  1.0000
  H   H25       1.0  0.68051  0.65037  0.00267  1.0000
  H   H26       1.0  0.34964  0.31948  0.49732  1.0000
  H   H27       1.0  0.31948  0.34964  0.99733  1.0000
  H   H28       1.0  0.65037  0.68051  0.50267  1.0000
  H   H29       1.0  0.65129  0.79753  0.90114  1.0000
  H   H30       1.0  0.20248  0.34870  0.59886  1.0000
  H   H31       1.0  0.34870  0.20248  0.09886  1.0000
  H   H32       1.0  0.79754  0.65129  0.40114  1.0000
  H   H33       1.0  0.54708  0.87112  0.17042  1.0000
  H   H34       1.0  0.12888  0.45292  0.32957  1.0000
  H   H35       1.0  0.45292  0.12888  0.82958  1.0000
  H   H36       1.0  0.87113  0.54708  0.67042  1.0000
  H   H37       1.0  0.72264  0.90196  0.17335  1.0000
  H   H38       1.0  0.09803  0.27736  0.32665  1.0000
  H   H39       1.0  0.27736  0.09804  0.82665  1.0000
  H   H40       1.0  0.90197  0.72264  0.67335  1.0000
  H   H41       1.0  0.70347  0.72129  0.17545  1.0000
  H   H42       1.0  0.27871  0.29652  0.32455  1.0000
  H   H43       1.0  0.29652  0.27871  0.82455  1.0000
  H   H44       1.0  0.72130  0.70347  0.67545  1.0000
  C   C1        1.0  0.62504  0.37497  0.75000  1.0000
  C   C2        1.0  0.37497  0.62503  0.25000  1.0000
  C   C3        1.0  0.25744  0.74256  0.75000  1.0000
  C   C4        1.0  0.74256  0.25744  0.25000  1.0000
  C   C5        1.0  0.12948  0.87052  0.75000  1.0000
  C   C6        1.0  0.87052  0.12947  0.25000  1.0000
  C   C7        1.0  0.49704  0.50297  0.74999  1.0000
  C   C8        1.0  0.50296  0.49703  0.25000  1.0000
  C   C9        1.0  0.45380  0.58008  0.83386  1.0000
  C   C10       1.0  0.41992  0.54621  0.66613  1.0000
  C   C11       1.0  0.54620  0.41992  0.16613  1.0000
  C   C12       1.0  0.58008  0.45380  0.33386  1.0000
  C   C13       1.0  0.33678  0.70181  0.83280  1.0000
  C   C14       1.0  0.29819  0.66323  0.66720  1.0000
  C   C15       1.0  0.66323  0.29819  0.16720  1.0000
  C   C16       1.0  0.70180  0.33677  0.33280  1.0000
  C   C17       1.0  0.97630  0.40634  0.93970  1.0000
  C   C18       1.0  0.59366  0.02370  0.56031  1.0000
  C   C19       1.0  0.02371  0.59366  0.06031  1.0000
  C   C20       1.0  0.40633  0.97631  0.43970  1.0000
  C   C21       1.0  0.97625  0.36493  0.04424  1.0000
  C   C22       1.0  0.63507  0.02375  0.45577  1.0000
  C   C23       1.0  0.02375  0.63507  0.95577  1.0000
  C   C24       1.0  0.36493  0.97626  0.54423  1.0000
  C   C25       1.0  0.94871  0.30590  0.87662  1.0000
  C   C26       1.0  0.69409  0.05130  0.62338  1.0000
  C   C27       1.0  0.05130  0.69409  0.12339  1.0000
  C   C28       1.0  0.30590  0.94871  0.37662  1.0000
  C   C29       1.0  0.77416  0.93940  0.98416  1.0000
  C   C30       1.0  0.06060  0.22584  0.51584  1.0000
  C   C31       1.0  0.22584  0.06060  0.01584  1.0000
  C   C32       1.0  0.93940  0.77416  0.48416  1.0000
  C   C33       1.0  0.00054  0.54191  0.89541  1.0000
  C   C34       1.0  0.45808  0.99947  0.60460  1.0000
  C   C35       1.0  0.99947  0.45808  0.10460  1.0000
  C   C36       1.0  0.54191  0.00054  0.39540  1.0000
  C   C37       1.0  0.63015  0.76665  0.98298  1.0000
  C   C38       1.0  0.23337  0.36984  0.51701  1.0000
  C   C39       1.0  0.36984  0.23337  0.01702  1.0000
  C   C40       1.0  0.76665  0.63015  0.48298  1.0000
  C   C41       1.0  0.66419  0.83632  0.14519  1.0000
  C   C42       1.0  0.16369  0.33580  0.35481  1.0000
  C   C43       1.0  0.33580  0.16369  0.85481  1.0000
  C   C44       1.0  0.83632  0.66419  0.64519  1.0000
  N   N1        1.0  0.69188  0.85281  0.03481  1.0000
  N   N2        1.0  0.14720  0.30812  0.46519  1.0000
  N   N3        1.0  0.30812  0.14720  0.96519  1.0000
  N   N4        1.0  0.85281  0.69188  0.53481  1.0000
  O   O1        1.0  0.92132  0.18498  0.91818  1.0000
  O   O2        1.0  0.81502  0.07867  0.58182  1.0000
  O   O3        1.0  0.07867  0.81502  0.08183  1.0000
  O   O4        1.0  0.18498  0.92132  0.41818  1.0000
  O   O5        1.0  0.65395  0.29605  0.83381  1.0000
  O   O6        1.0  0.70396  0.34606  0.66618  1.0000
  O   O7        1.0  0.34606  0.70396  0.16618  1.0000
  O   O8        1.0  0.29605  0.65395  0.33381  1.0000
  O   O9        1.0  0.95206  0.34239  0.78040  1.0000
  O   O10       1.0  0.65761  0.04796  0.71960  1.0000
  O   O11       1.0  0.04796  0.65761  0.21961  1.0000
  O   O12       1.0  0.34239  0.95206  0.28040  1.0000
  O   O13       1.0  0.12226  0.97249  0.80215  1.0000
  O   O14       1.0  0.02750  0.87773  0.69785  1.0000
  O   O15       1.0  0.87773  0.02750  0.19785  1.0000
  O   O16       1.0  0.97249  0.12226  0.30215  1.0000
  O   O17       1.0  0.80395  0.95295  0.88864  1.0000
  O   O18       1.0  0.04705  0.19605  0.61136  1.0000
  O   O19       1.0  0.19605  0.04705  0.11136  1.0000
  O   O20       1.0  0.95295  0.80395  0.38864  1.0000
