data_image0
_chemical_formula_structural       Mn2H26C38N2Cl4O10
_chemical_formula_sum              "Mn2 H26 C38 N2 Cl4 O10"
_cell_length_a       7.32916
_cell_length_b       9.52994
_cell_length_c       14.3142
_cell_angle_alpha    109.438
_cell_angle_beta     89.9992
_cell_angle_gamma    90.0032

_space_group_name_H-M_alt    "P 1"
_space_group_IT_number       1

loop_
  _space_group_symop_operation_xyz
  'x, y, z'

loop_
  _atom_site_type_symbol
  _atom_site_label
  _atom_site_symmetry_multiplicity
  _atom_site_fract_x
  _atom_site_fract_y
  _atom_site_fract_z
  _atom_site_occupancy
  Mn  Mn1       1.0  0.00000  0.50000  0.99999  1.0000
  Mn  Mn2       1.0  0.50000  0.50000  1.00000  1.0000
  H   H1        1.0  0.04191  0.40377  0.26645  1.0000
  H   H2        1.0  0.54191  0.59623  0.73354  1.0000
  H   H3        1.0  0.45807  0.13661  0.73321  1.0000
  H   H4        1.0  0.95809  0.86338  0.26679  1.0000
  H   H5        1.0  0.95810  0.59623  0.73355  1.0000
  H   H6        1.0  0.45810  0.40378  0.26646  1.0000
  H   H7        1.0  0.54193  0.86339  0.26680  1.0000
  H   H8        1.0  0.04191  0.13662  0.73321  1.0000
  H   H9        1.0  0.04382  0.36110  0.43019  1.0000
  H   H10       1.0  0.54381  0.63890  0.56979  1.0000
  H   H11       1.0  0.45621  0.93007  0.56956  1.0000
  H   H12       1.0  0.95623  0.06992  0.43043  1.0000
  H   H13       1.0  0.95619  0.63890  0.56980  1.0000
  H   H14       1.0  0.45620  0.36111  0.43021  1.0000
  H   H15       1.0  0.54379  0.06993  0.43044  1.0000
  H   H16       1.0  0.04377  0.93008  0.56957  1.0000
  H   H17       1.0  0.74999  0.68459  0.84753  1.0000
  H   H18       1.0  0.25000  0.31541  0.15247  1.0000
  H   H19       1.0  0.74999  0.83666  0.15190  1.0000
  H   H20       1.0  0.25001  0.16334  0.84810  1.0000
  H   H21       1.0  0.75000  0.16263  0.99975  1.0000
  H   H22       1.0  0.25000  0.83736  0.00024  1.0000
  H   H23       1.0  0.75000  0.94701  0.83958  1.0000
  H   H24       1.0  0.24999  0.05299  0.16042  1.0000
  H   H25       1.0  0.75000  0.10703  0.15988  1.0000
  H   H26       1.0  0.25001  0.89297  0.84012  1.0000
  C   C1        1.0  0.75001  0.41846  0.15431  1.0000
  C   C2        1.0  0.24999  0.58154  0.84569  1.0000
  C   C3        1.0  0.75000  0.26406  0.84526  1.0000
  C   C4        1.0  0.25000  0.73594  0.15474  1.0000
  C   C5        1.0  0.75000  0.40171  0.25512  1.0000
  C   C6        1.0  0.25000  0.59830  0.74488  1.0000
  C   C7        1.0  0.74999  0.14607  0.74456  1.0000
  C   C8        1.0  0.25001  0.85393  0.25544  1.0000
  C   C9        1.0  0.75001  0.35584  0.43767  1.0000
  C   C10       1.0  0.25000  0.64417  0.56233  1.0000
  C   C11       1.0  0.74998  0.91723  0.56213  1.0000
  C   C12       1.0  0.25001  0.08277  0.43788  1.0000
  C   C13       1.0  0.91472  0.39169  0.30224  1.0000
  C   C14       1.0  0.41471  0.60832  0.69776  1.0000
  C   C15       1.0  0.58533  0.08881  0.69749  1.0000
  C   C16       1.0  0.08535  0.91118  0.30251  1.0000
  C   C17       1.0  0.08529  0.60832  0.69776  1.0000
  C   C18       1.0  0.58529  0.39168  0.30224  1.0000
  C   C19       1.0  0.41467  0.91119  0.30252  1.0000
  C   C20       1.0  0.91465  0.08882  0.69749  1.0000
  C   C21       1.0  0.91622  0.36850  0.39323  1.0000
  C   C22       1.0  0.41621  0.63150  0.60676  1.0000
  C   C23       1.0  0.58381  0.97439  0.60658  1.0000
  C   C24       1.0  0.08383  0.02559  0.39342  1.0000
  C   C25       1.0  0.08379  0.63150  0.60677  1.0000
  C   C26       1.0  0.58380  0.36851  0.39324  1.0000
  C   C27       1.0  0.41618  0.02560  0.39342  1.0000
  C   C28       1.0  0.91616  0.97440  0.60658  1.0000
  C   C29       1.0  0.74999  0.78450  0.91199  1.0000
  C   C30       1.0  0.25000  0.21549  0.08801  1.0000
  C   C31       1.0  0.75000  0.87217  0.08746  1.0000
  C   C32       1.0  0.25000  0.12783  0.91255  1.0000
  C   C33       1.0  0.75000  0.04846  0.99975  1.0000
  C   C34       1.0  0.25000  0.95154  0.00025  1.0000
  C   C35       1.0  0.75000  0.92900  0.91079  1.0000
  C   C36       1.0  0.25000  0.07100  0.08921  1.0000
  C   C37       1.0  0.74999  0.01783  0.08866  1.0000
  C   C38       1.0  0.25000  0.98217  0.91134  1.0000
  N   N1        1.0  0.75000  0.75856  0.99972  1.0000
  N   N2        1.0  0.25000  0.24143  0.00028  1.0000
  Cl  Cl1       1.0  0.75002  0.32401  0.55013  1.0000
  Cl  Cl2       1.0  0.25000  0.67599  0.44987  1.0000
  Cl  Cl3       1.0  0.74998  0.77295  0.44969  1.0000
  Cl  Cl4       1.0  0.25001  0.22705  0.55031  1.0000
  O   O1        1.0  0.90473  0.42249  0.11486  1.0000
  O   O2        1.0  0.40474  0.57750  0.88513  1.0000
  O   O3        1.0  0.59522  0.30765  0.88460  1.0000
  O   O4        1.0  0.09523  0.69236  0.11539  1.0000
  O   O5        1.0  0.09527  0.57751  0.88514  1.0000
  O   O6        1.0  0.59526  0.42250  0.11487  1.0000
  O   O7        1.0  0.40478  0.69235  0.11540  1.0000
  O   O8        1.0  0.90477  0.30765  0.88460  1.0000
  O   O9        1.0  0.75000  0.61868  0.99977  1.0000
  O   O10       1.0  0.24999  0.38132  0.00024  1.0000
