data_image0
_chemical_formula_structural       Zn4H32C24O32
_chemical_formula_sum              "Zn4 H32 C24 O32"
_cell_length_a       5.98551
_cell_length_b       10.3792
_cell_length_c       13.2517
_cell_angle_alpha    90.0002
_cell_angle_beta     90.0001
_cell_angle_gamma    90.0001

_space_group_name_H-M_alt    "P 1"
_space_group_IT_number       1

loop_
  _space_group_symop_operation_xyz
  'x, y, z'

loop_
  _atom_site_type_symbol
  _atom_site_label
  _atom_site_symmetry_multiplicity
  _atom_site_fract_x
  _atom_site_fract_y
  _atom_site_fract_z
  _atom_site_occupancy
  Zn  Zn1       1.0  0.58723  0.16743  0.05006  1.0000
  Zn  Zn2       1.0  0.91277  0.83257  0.55005  1.0000
  Zn  Zn3       1.0  0.08723  0.33257  0.94995  1.0000
  Zn  Zn4       1.0  0.41276  0.66743  0.44995  1.0000
  H   H1        1.0  0.11250  0.10150  0.30017  1.0000
  H   H2        1.0  0.38750  0.89850  0.80016  1.0000
  H   H3        1.0  0.61249  0.39850  0.69984  1.0000
  H   H4        1.0  0.88751  0.60151  0.19984  1.0000
  H   H5        1.0  0.37607  0.02812  0.31040  1.0000
  H   H6        1.0  0.12393  0.97188  0.81039  1.0000
  H   H7        1.0  0.87605  0.47188  0.68960  1.0000
  H   H8        1.0  0.62395  0.52812  0.18960  1.0000
  H   H9        1.0  0.19998  0.84504  0.24392  1.0000
  H   H10       1.0  0.30003  0.15496  0.74393  1.0000
  H   H11       1.0  0.69998  0.65495  0.75608  1.0000
  H   H12       1.0  0.80002  0.34504  0.25608  1.0000
  H   H13       1.0  0.94965  0.91424  0.19854  1.0000
  H   H14       1.0  0.55035  0.08576  0.69854  1.0000
  H   H15       1.0  0.44965  0.58576  0.80146  1.0000
  H   H16       1.0  0.05035  0.41423  0.30146  1.0000
  H   H17       1.0  0.65989  0.97716  0.91772  1.0000
  H   H18       1.0  0.84011  0.02284  0.41772  1.0000
  H   H19       1.0  0.15990  0.52284  0.08228  1.0000
  H   H20       1.0  0.34010  0.47716  0.58228  1.0000
  H   H21       1.0  0.52786  0.92287  0.13777  1.0000
  H   H22       1.0  0.97214  0.07713  0.63777  1.0000
  H   H23       1.0  0.02785  0.57713  0.86223  1.0000
  H   H24       1.0  0.47215  0.42287  0.36223  1.0000
  H   H25       1.0  0.78081  0.10694  0.87908  1.0000
  H   H26       1.0  0.71919  0.89306  0.37908  1.0000
  H   H27       1.0  0.28081  0.39307  0.12092  1.0000
  H   H28       1.0  0.21919  0.60694  0.62092  1.0000
  H   H29       1.0  0.11343  0.79623  0.94355  1.0000
  H   H30       1.0  0.38657  0.20378  0.44355  1.0000
  H   H31       1.0  0.61343  0.70378  0.05645  1.0000
  H   H32       1.0  0.88656  0.29622  0.55645  1.0000
  C   C1        1.0  0.24085  0.02326  0.15983  1.0000
  C   C2        1.0  0.25915  0.97675  0.65982  1.0000
  C   C3        1.0  0.74085  0.47675  0.84018  1.0000
  C   C4        1.0  0.75915  0.52325  0.34018  1.0000
  C   C5        1.0  0.09615  0.11024  0.09093  1.0000
  C   C6        1.0  0.40384  0.88976  0.59093  1.0000
  C   C7        1.0  0.59615  0.38976  0.90907  1.0000
  C   C8        1.0  0.90386  0.61024  0.40907  1.0000
  C   C9        1.0  0.27414  0.09099  0.26176  1.0000
  C   C10       1.0  0.22586  0.90901  0.76176  1.0000
  C   C11       1.0  0.77413  0.40901  0.73824  1.0000
  C   C12       1.0  0.72587  0.59099  0.23824  1.0000
  C   C13       1.0  0.38014  0.22353  0.25938  1.0000
  C   C14       1.0  0.11987  0.77647  0.75937  1.0000
  C   C15       1.0  0.88013  0.27647  0.74062  1.0000
  C   C16       1.0  0.61986  0.72353  0.24063  1.0000
  C   C17       1.0  0.12436  0.89396  0.17912  1.0000
  C   C18       1.0  0.37564  0.10605  0.67912  1.0000
  C   C19       1.0  0.62436  0.60605  0.82089  1.0000
  C   C20       1.0  0.87564  0.39395  0.32088  1.0000
  C   C21       1.0  0.12541  0.80260  0.09074  1.0000
  C   C22       1.0  0.37460  0.19741  0.59075  1.0000
  C   C23       1.0  0.62541  0.69740  0.90926  1.0000
  C   C24       1.0  0.87459  0.30259  0.40925  1.0000
  O   O1        1.0  0.45210  0.00434  0.11192  1.0000
  O   O2        1.0  0.04790  0.99566  0.61192  1.0000
  O   O3        1.0  0.95210  0.49566  0.88808  1.0000
  O   O4        1.0  0.54790  0.50434  0.38808  1.0000
  O   O5        1.0  0.19582  0.16657  0.01744  1.0000
  O   O6        1.0  0.30417  0.83343  0.51744  1.0000
  O   O7        1.0  0.69582  0.33343  0.98257  1.0000
  O   O8        1.0  0.80419  0.66657  0.48256  1.0000
  O   O9        1.0  0.89493  0.12314  0.11620  1.0000
  O   O10       1.0  0.60506  0.87685  0.61619  1.0000
  O   O11       1.0  0.39494  0.37685  0.88380  1.0000
  O   O12       1.0  0.10506  0.62315  0.38380  1.0000
  O   O13       1.0  0.46201  0.27233  0.17896  1.0000
  O   O14       1.0  0.03799  0.72767  0.67896  1.0000
  O   O15       1.0  0.96201  0.22768  0.82104  1.0000
  O   O16       1.0  0.53799  0.77232  0.32105  1.0000
  O   O17       1.0  0.37594  0.28564  0.34264  1.0000
  O   O18       1.0  0.12407  0.71435  0.84264  1.0000
  O   O19       1.0  0.87592  0.21435  0.65736  1.0000
  O   O20       1.0  0.62405  0.78564  0.15736  1.0000
  O   O21       1.0  0.10115  0.85986  0.00227  1.0000
  O   O22       1.0  0.39884  0.14014  0.50227  1.0000
  O   O23       1.0  0.60118  0.64014  0.99773  1.0000
  O   O24       1.0  0.89883  0.35986  0.49773  1.0000
  O   O25       1.0  0.14589  0.68501  0.10207  1.0000
  O   O26       1.0  0.35413  0.31498  0.60207  1.0000
  O   O27       1.0  0.64587  0.81500  0.89793  1.0000
  O   O28       1.0  0.85412  0.18501  0.39793  1.0000
  O   O29       1.0  0.64904  0.07237  0.91459  1.0000
  O   O30       1.0  0.85095  0.92763  0.41459  1.0000
  O   O31       1.0  0.14905  0.42763  0.08541  1.0000
  O   O32       1.0  0.35095  0.57237  0.58541  1.0000
