data_image0
_chemical_formula_structural       Cu2P4H48C52Cl4O4
_chemical_formula_sum              "Cu2 P4 H48 C52 Cl4 O4"
_cell_length_a       10.3893
_cell_length_b       11.7145
_cell_length_c       11.7145
_cell_angle_alpha    117.046
_cell_angle_beta     94.0261
_cell_angle_gamma    94.0262

_space_group_name_H-M_alt    "P 1"
_space_group_IT_number       1

loop_
  _space_group_symop_operation_xyz
  'x, y, z'

loop_
  _atom_site_type_symbol
  _atom_site_label
  _atom_site_symmetry_multiplicity
  _atom_site_fract_x
  _atom_site_fract_y
  _atom_site_fract_z
  _atom_site_occupancy
  Cu  Cu1       1.0  0.75000  0.80850  0.19150  1.0000
  Cu  Cu2       1.0  0.25000  0.19150  0.80850  1.0000
  P   P1        1.0  0.91746  0.57316  0.18627  1.0000
  P   P2        1.0  0.58254  0.81373  0.42684  1.0000
  P   P3        1.0  0.08254  0.42684  0.81373  1.0000
  P   P4        1.0  0.41746  0.18627  0.57316  1.0000
  H   H1        1.0  0.11077  0.49352  0.09223  1.0000
  H   H2        1.0  0.38923  0.90777  0.50649  1.0000
  H   H3        1.0  0.88923  0.50648  0.90777  1.0000
  H   H4        1.0  0.61077  0.09223  0.49351  1.0000
  H   H5        1.0  0.21905  0.87919  0.67046  1.0000
  H   H6        1.0  0.28095  0.32954  0.12081  1.0000
  H   H7        1.0  0.78095  0.12081  0.32954  1.0000
  H   H8        1.0  0.71905  0.67046  0.87919  1.0000
  H   H9        1.0  0.15180  0.97635  0.52983  1.0000
  H   H10       1.0  0.34820  0.47017  0.02365  1.0000
  H   H11       1.0  0.84820  0.02365  0.47017  1.0000
  H   H12       1.0  0.65180  0.52983  0.97635  1.0000
  H   H13       1.0  0.01945  0.84174  0.31815  1.0000
  H   H14       1.0  0.48056  0.68185  0.15826  1.0000
  H   H15       1.0  0.98055  0.15826  0.68186  1.0000
  H   H16       1.0  0.51944  0.31814  0.84174  1.0000
  H   H17       1.0  0.07605  0.63583  0.08422  1.0000
  H   H18       1.0  0.42394  0.91578  0.36417  1.0000
  H   H19       1.0  0.92395  0.36417  0.91578  1.0000
  H   H20       1.0  0.57606  0.08422  0.63583  1.0000
  H   H21       1.0  0.66241  0.48664  0.20903  1.0000
  H   H22       1.0  0.83759  0.79097  0.51336  1.0000
  H   H23       1.0  0.33759  0.51336  0.79097  1.0000
  H   H24       1.0  0.16241  0.20903  0.48664  1.0000
  H   H25       1.0  0.55672  0.27442  0.17238  1.0000
  H   H26       1.0  0.94328  0.82762  0.72558  1.0000
  H   H27       1.0  0.44328  0.72558  0.82762  1.0000
  H   H28       1.0  0.05672  0.17238  0.27442  1.0000
  H   H29       1.0  0.68586  0.08678  0.11028  1.0000
  H   H30       1.0  0.81414  0.88972  0.91322  1.0000
  H   H31       1.0  0.31413  0.91322  0.88972  1.0000
  H   H32       1.0  0.18587  0.11028  0.08678  1.0000
  H   H33       1.0  0.91901  0.11325  0.08520  1.0000
  H   H34       1.0  0.58099  0.91480  0.88675  1.0000
  H   H35       1.0  0.08099  0.88675  0.91480  1.0000
  H   H36       1.0  0.41901  0.08520  0.11325  1.0000
  H   H37       1.0  0.02589  0.32386  0.12156  1.0000
  H   H38       1.0  0.47411  0.87844  0.67614  1.0000
  H   H39       1.0  0.97411  0.67613  0.87844  1.0000
  H   H40       1.0  0.52589  0.12155  0.32386  1.0000
  H   H41       1.0  0.02302  0.50998  0.38883  1.0000
  H   H42       1.0  0.47698  0.61118  0.49002  1.0000
  H   H43       1.0  0.97698  0.49002  0.61118  1.0000
  H   H44       1.0  0.52302  0.38882  0.50997  1.0000
  H   H45       1.0  0.15836  0.64550  0.59901  1.0000
  H   H46       1.0  0.34165  0.40099  0.35450  1.0000
  H   H47       1.0  0.84165  0.35450  0.40099  1.0000
  H   H48       1.0  0.65835  0.59901  0.64550  1.0000
  C   C1        1.0  0.03266  0.54074  0.06884  1.0000
  C   C2        1.0  0.46734  0.93116  0.45926  1.0000
  C   C3        1.0  0.96734  0.45926  0.93116  1.0000
  C   C4        1.0  0.53266  0.06884  0.54073  1.0000
  C   C5        1.0  0.85120  0.42033  0.17074  1.0000
  C   C6        1.0  0.64880  0.82926  0.57967  1.0000
  C   C7        1.0  0.14880  0.57967  0.82926  1.0000
  C   C8        1.0  0.35120  0.17074  0.42033  1.0000
  C   C9        1.0  0.71883  0.40535  0.18471  1.0000
  C   C10       1.0  0.78117  0.81529  0.59465  1.0000
  C   C11       1.0  0.28117  0.59465  0.81529  1.0000
  C   C12       1.0  0.21883  0.18471  0.40535  1.0000
  C   C13       1.0  0.65986  0.28574  0.16352  1.0000
  C   C14       1.0  0.84015  0.83648  0.71426  1.0000
  C   C15       1.0  0.34014  0.71426  0.83648  1.0000
  C   C16       1.0  0.15986  0.16352  0.28573  1.0000
  C   C17       1.0  0.73190  0.18079  0.12779  1.0000
  C   C18       1.0  0.76810  0.87221  0.81921  1.0000
  C   C19       1.0  0.26809  0.81921  0.87221  1.0000
  C   C20       1.0  0.23190  0.12779  0.18079  1.0000
  C   C21       1.0  0.86359  0.19570  0.11430  1.0000
  C   C22       1.0  0.63641  0.88570  0.80430  1.0000
  C   C23       1.0  0.13641  0.80429  0.88570  1.0000
  C   C24       1.0  0.36359  0.11430  0.19570  1.0000
  C   C25       1.0  0.92382  0.31514  0.13587  1.0000
  C   C26       1.0  0.57618  0.86414  0.68486  1.0000
  C   C27       1.0  0.07618  0.68486  0.86413  1.0000
  C   C28       1.0  0.42382  0.13587  0.31514  1.0000
  C   C29       1.0  0.01227  0.66730  0.34073  1.0000
  C   C30       1.0  0.48773  0.65927  0.33270  1.0000
  C   C31       1.0  0.98773  0.33270  0.65927  1.0000
  C   C32       1.0  0.51227  0.34072  0.66730  1.0000
  C   C33       1.0  0.05161  0.61201  0.41956  1.0000
  C   C34       1.0  0.44839  0.58044  0.38799  1.0000
  C   C35       1.0  0.94839  0.38799  0.58044  1.0000
  C   C36       1.0  0.55161  0.41956  0.61201  1.0000
  C   C37       1.0  0.12735  0.68805  0.53741  1.0000
  C   C38       1.0  0.37266  0.46260  0.31195  1.0000
  C   C39       1.0  0.87265  0.31195  0.46260  1.0000
  C   C40       1.0  0.62734  0.53740  0.68805  1.0000
  C   C41       1.0  0.16242  0.81902  0.57710  1.0000
  C   C42       1.0  0.33758  0.42290  0.18098  1.0000
  C   C43       1.0  0.83758  0.18098  0.42290  1.0000
  C   C44       1.0  0.66242  0.57709  0.81902  1.0000
  C   C45       1.0  0.12344  0.87420  0.49845  1.0000
  C   C46       1.0  0.37657  0.50156  0.12580  1.0000
  C   C47       1.0  0.87656  0.12580  0.50156  1.0000
  C   C48       1.0  0.62343  0.49844  0.87420  1.0000
  C   C49       1.0  0.04928  0.79872  0.37984  1.0000
  C   C50       1.0  0.45072  0.62016  0.20128  1.0000
  C   C51       1.0  0.95072  0.20128  0.62016  1.0000
  C   C52       1.0  0.54928  0.37983  0.79871  1.0000
  Cl  Cl1       1.0  0.58683  0.88159  0.12485  1.0000
  Cl  Cl2       1.0  0.91317  0.87515  0.11841  1.0000
  Cl  Cl3       1.0  0.41317  0.11841  0.87515  1.0000
  Cl  Cl4       1.0  0.08683  0.12485  0.88159  1.0000
  O   O1        1.0  0.80627  0.64017  0.16233  1.0000
  O   O2        1.0  0.69373  0.83767  0.35983  1.0000
  O   O3        1.0  0.19373  0.35982  0.83766  1.0000
  O   O4        1.0  0.30627  0.16233  0.64018  1.0000
