data_image0
_chemical_formula_structural       Cu4H56C32O20
_chemical_formula_sum              "Cu4 H56 C32 O20"
_cell_length_a       7.968
_cell_length_b       8.94355
_cell_length_c       14.5909
_cell_angle_alpha    105.287
_cell_angle_beta     90
_cell_angle_gamma    89.9993

_space_group_name_H-M_alt    "P 1"
_space_group_IT_number       1

loop_
  _space_group_symop_operation_xyz
  'x, y, z'

loop_
  _atom_site_type_symbol
  _atom_site_label
  _atom_site_symmetry_multiplicity
  _atom_site_fract_x
  _atom_site_fract_y
  _atom_site_fract_z
  _atom_site_occupancy
  Cu  Cu1       1.0  0.96419  0.14133  0.01209  1.0000
  Cu  Cu2       1.0  0.46421  0.35867  0.48790  1.0000
  Cu  Cu3       1.0  0.03579  0.85868  0.98791  1.0000
  Cu  Cu4       1.0  0.53580  0.64132  0.51210  1.0000
  H   H1        1.0  0.76793  0.80331  0.70435  1.0000
  H   H2        1.0  0.26795  0.69670  0.79566  1.0000
  H   H3        1.0  0.23205  0.19670  0.29564  1.0000
  H   H4        1.0  0.73206  0.30330  0.20434  1.0000
  H   H5        1.0  0.76868  0.00618  0.71500  1.0000
  H   H6        1.0  0.26869  0.49383  0.78500  1.0000
  H   H7        1.0  0.23134  0.99382  0.28499  1.0000
  H   H8        1.0  0.73130  0.50617  0.21500  1.0000
  H   H9        1.0  0.96798  0.86579  0.58903  1.0000
  H   H10       1.0  0.46798  0.63419  0.91098  1.0000
  H   H11       1.0  0.03205  0.13416  0.41098  1.0000
  H   H12       1.0  0.53201  0.36580  0.08902  1.0000
  H   H13       1.0  0.08058  0.99411  0.68326  1.0000
  H   H14       1.0  0.58061  0.50589  0.81675  1.0000
  H   H15       1.0  0.91941  0.00587  0.31675  1.0000
  H   H16       1.0  0.41939  0.49412  0.18326  1.0000
  H   H17       1.0  0.07883  0.79164  0.67297  1.0000
  H   H18       1.0  0.57883  0.70836  0.82706  1.0000
  H   H19       1.0  0.92119  0.20834  0.32707  1.0000
  H   H20       1.0  0.42116  0.29164  0.17295  1.0000
  H   H21       1.0  0.54876  0.07199  0.93404  1.0000
  H   H22       1.0  0.04878  0.42802  0.56597  1.0000
  H   H23       1.0  0.45122  0.92802  0.06597  1.0000
  H   H24       1.0  0.95123  0.57197  0.43403  1.0000
  H   H25       1.0  0.47063  0.95998  0.82476  1.0000
  H   H26       1.0  0.97064  0.54002  0.67524  1.0000
  H   H27       1.0  0.52937  0.04002  0.17524  1.0000
  H   H28       1.0  0.02936  0.45997  0.32475  1.0000
  H   H29       1.0  0.57633  0.21408  0.80821  1.0000
  H   H30       1.0  0.07632  0.28591  0.69180  1.0000
  H   H31       1.0  0.42368  0.78592  0.19180  1.0000
  H   H32       1.0  0.92369  0.71408  0.30820  1.0000
  H   H33       1.0  0.35533  0.20939  0.79168  1.0000
  H   H34       1.0  0.85532  0.29062  0.70831  1.0000
  H   H35       1.0  0.64468  0.79063  0.20831  1.0000
  H   H36       1.0  0.14468  0.70938  0.29170  1.0000
  H   H37       1.0  0.44210  0.31639  0.90103  1.0000
  H   H38       1.0  0.94211  0.18361  0.59896  1.0000
  H   H39       1.0  0.55790  0.68361  0.09897  1.0000
  H   H40       1.0  0.05789  0.81638  0.40104  1.0000
  H   H41       1.0  0.06033  0.46111  0.15359  1.0000
  H   H42       1.0  0.56036  0.03890  0.34641  1.0000
  H   H43       1.0  0.93965  0.53893  0.84641  1.0000
  H   H44       1.0  0.43967  0.96108  0.65359  1.0000
  H   H45       1.0  0.94417  0.61944  0.12903  1.0000
  H   H46       1.0  0.44418  0.88058  0.37097  1.0000
  H   H47       1.0  0.05582  0.38060  0.87096  1.0000
  H   H48       1.0  0.55584  0.11942  0.62904  1.0000
  H   H49       1.0  0.76519  0.55913  0.98935  1.0000
  H   H50       1.0  0.26521  0.94088  0.51064  1.0000
  H   H51       1.0  0.23480  0.44090  0.01064  1.0000
  H   H52       1.0  0.73482  0.05912  0.48936  1.0000
  H   H53       1.0  0.76197  0.36040  0.91874  1.0000
  H   H54       1.0  0.26199  0.13961  0.58126  1.0000
  H   H55       1.0  0.23801  0.63963  0.08125  1.0000
  H   H56       1.0  0.73804  0.86038  0.41874  1.0000
  C   C1        1.0  0.88929  0.94137  0.82939  1.0000
  C   C2        1.0  0.38931  0.55862  0.67063  1.0000
  C   C3        1.0  0.11069  0.05861  0.17061  1.0000
  C   C4        1.0  0.61069  0.44137  0.32938  1.0000
  C   C5        1.0  0.84364  0.90932  0.72536  1.0000
  C   C6        1.0  0.34366  0.59069  0.77464  1.0000
  C   C7        1.0  0.15636  0.09067  0.27463  1.0000
  C   C8        1.0  0.65634  0.40931  0.22536  1.0000
  C   C9        1.0  0.00270  0.88912  0.66424  1.0000
  C   C10       1.0  0.50271  0.61087  0.83578  1.0000
  C   C11       1.0  0.99732  0.11084  0.33577  1.0000
  C   C12       1.0  0.49728  0.38913  0.16423  1.0000
  C   C13       1.0  0.28464  0.04587  0.92945  1.0000
  C   C14       1.0  0.78467  0.45415  0.57054  1.0000
  C   C15       1.0  0.71533  0.95415  0.07054  1.0000
  C   C16       1.0  0.21534  0.54586  0.42945  1.0000
  C   C17       1.0  0.44847  0.06676  0.88132  1.0000
  C   C18       1.0  0.94848  0.43325  0.61868  1.0000
  C   C19       1.0  0.55152  0.93324  0.11868  1.0000
  C   C20       1.0  0.05152  0.56674  0.38132  1.0000
  C   C21       1.0  0.45543  0.20982  0.84352  1.0000
  C   C22       1.0  0.95543  0.29017  0.65647  1.0000
  C   C23       1.0  0.54457  0.79018  0.15648  1.0000
  C   C24       1.0  0.04457  0.70981  0.34353  1.0000
  C   C25       1.0  0.01485  0.51214  0.09761  1.0000
  C   C26       1.0  0.51488  0.98788  0.40239  1.0000
  C   C27       1.0  0.98514  0.48790  0.90238  1.0000
  C   C28       1.0  0.48514  0.01212  0.59761  1.0000
  C   C29       1.0  0.84052  0.45377  0.96123  1.0000
  C   C30       1.0  0.34054  0.04625  0.53876  1.0000
  C   C31       1.0  0.15947  0.54626  0.03876  1.0000
  C   C32       1.0  0.65949  0.95375  0.46124  1.0000
  O   O1        1.0  0.87851  0.08166  0.87953  1.0000
  O   O2        1.0  0.37848  0.41834  0.62046  1.0000
  O   O3        1.0  0.12158  0.91835  0.12045  1.0000
  O   O4        1.0  0.62153  0.58165  0.37954  1.0000
  O   O5        1.0  0.05902  0.17365  0.14191  1.0000
  O   O6        1.0  0.55911  0.32632  0.35810  1.0000
  O   O7        1.0  0.94080  0.82632  0.85811  1.0000
  O   O8        1.0  0.44091  0.67367  0.64190  1.0000
  O   O9        1.0  0.19010  0.16381  0.95774  1.0000
  O   O10       1.0  0.69009  0.33621  0.54229  1.0000
  O   O11       1.0  0.80994  0.83622  0.04232  1.0000
  O   O12       1.0  0.30992  0.66378  0.45771  1.0000
  O   O13       1.0  0.74504  0.08997  0.06160  1.0000
  O   O14       1.0  0.24509  0.41001  0.43836  1.0000
  O   O15       1.0  0.25488  0.91001  0.93832  1.0000
  O   O16       1.0  0.75492  0.58999  0.56164  1.0000
  O   O17       1.0  0.90226  0.39935  0.03976  1.0000
  O   O18       1.0  0.40227  0.10066  0.46023  1.0000
  O   O19       1.0  0.09774  0.60067  0.96023  1.0000
  O   O20       1.0  0.59776  0.89933  0.53977  1.0000
