data_image0
_chemical_formula_structural       Cu5H20C12S4Br4N2
_chemical_formula_sum              "Cu5 H20 C12 S4 Br4 N2"
_cell_length_a       6.86882
_cell_length_b       8.7459
_cell_length_c       10.2963
_cell_angle_alpha    101.31
_cell_angle_beta     89.9499
_cell_angle_gamma    113.058

_space_group_name_H-M_alt    "P 1"
_space_group_IT_number       1

loop_
  _space_group_symop_operation_xyz
  'x, y, z'

loop_
  _atom_site_type_symbol
  _atom_site_label
  _atom_site_symmetry_multiplicity
  _atom_site_fract_x
  _atom_site_fract_y
  _atom_site_fract_z
  _atom_site_occupancy
  Cu  Cu1       1.0  0.49999  0.99999  1.00000  1.0000
  Cu  Cu2       1.0  0.63275  0.67152  0.99778  1.0000
  Cu  Cu3       1.0  0.96216  0.32893  0.00234  1.0000
  Cu  Cu4       1.0  0.36725  0.32845  0.00223  1.0000
  Cu  Cu5       1.0  0.03784  0.67106  0.99766  1.0000
  H   H1        1.0  0.07508  0.75932  0.32803  1.0000
  H   H2        1.0  0.31727  0.24032  0.67142  1.0000
  H   H3        1.0  0.92491  0.24068  0.67197  1.0000
  H   H4        1.0  0.68273  0.75969  0.32859  1.0000
  H   H5        1.0  0.09650  0.56676  0.34073  1.0000
  H   H6        1.0  0.53073  0.43310  0.65906  1.0000
  H   H7        1.0  0.90351  0.43325  0.65927  1.0000
  H   H8        1.0  0.46927  0.56691  0.34094  1.0000
  H   H9        1.0  0.03758  0.70671  0.56198  1.0000
  H   H10       1.0  0.33372  0.29306  0.43750  1.0000
  H   H11       1.0  0.96243  0.29328  0.43803  1.0000
  H   H12       1.0  0.66629  0.70695  0.56251  1.0000
  H   H13       1.0  0.25234  0.89827  0.55583  1.0000
  H   H14       1.0  0.35762  0.10160  0.44397  1.0000
  H   H15       1.0  0.74765  0.10172  0.44418  1.0000
  H   H16       1.0  0.64239  0.89841  0.55604  1.0000
  H   H17       1.0  0.37029  0.74447  0.69408  1.0000
  H   H18       1.0  0.62972  0.25553  0.30593  1.0000
  H   H19       1.0  0.27808  0.55883  0.56753  1.0000
  H   H20       1.0  0.72193  0.44117  0.43247  1.0000
  C   C1        1.0  0.41952  0.84036  0.21714  1.0000
  C   C2        1.0  0.58050  0.15965  0.78284  1.0000
  C   C3        1.0  0.17194  0.70643  0.37347  1.0000
  C   C4        1.0  0.46728  0.29347  0.62627  1.0000
  C   C5        1.0  0.82806  0.29358  0.62654  1.0000
  C   C6        1.0  0.53273  0.70654  0.37372  1.0000
  C   C7        1.0  0.19534  0.75912  0.52483  1.0000
  C   C8        1.0  0.43907  0.24079  0.47489  1.0000
  C   C9        1.0  0.80466  0.24089  0.47516  1.0000
  C   C10       1.0  0.56093  0.75921  0.52511  1.0000
  C   C11       1.0  0.34790  0.69892  0.58573  1.0000
  C   C12       1.0  0.65210  0.30109  0.41427  1.0000
  S   S1        1.0  0.66091  0.90365  0.14668  1.0000
  S   S2        1.0  0.75832  0.09663  0.85382  1.0000
  S   S3        1.0  0.33908  0.09633  0.85330  1.0000
  S   S4        1.0  0.24166  0.90336  0.14617  1.0000
  Br  Br1       1.0  0.14182  0.28344  0.18369  1.0000
  Br  Br2       1.0  0.85816  0.71654  0.81631  1.0000
  Br  Br3       1.0  0.26326  0.52610  0.88686  1.0000
  Br  Br4       1.0  0.73676  0.47391  0.11314  1.0000
  N   N1        1.0  0.37998  0.76167  0.31827  1.0000
  N   N2        1.0  0.62002  0.23833  0.68174  1.0000
