data_image0
_chemical_formula_structural       H28Au4C28S4Cl4
_chemical_formula_sum              "H28 Au4 C28 S4 Cl4"
_cell_length_a       6.14552
_cell_length_b       9.06911
_cell_length_c       14.5467
_cell_angle_alpha    92.8594
_cell_angle_beta     92.1859
_cell_angle_gamma    99.8416

_space_group_name_H-M_alt    "P 1"
_space_group_IT_number       1

loop_
  _space_group_symop_operation_xyz
  'x, y, z'

loop_
  _atom_site_type_symbol
  _atom_site_label
  _atom_site_symmetry_multiplicity
  _atom_site_fract_x
  _atom_site_fract_y
  _atom_site_fract_z
  _atom_site_occupancy
  H   H1        1.0  0.29771  0.90460  0.29971  1.0000
  H   H2        1.0  0.70231  0.09542  0.70029  1.0000
  H   H3        1.0  0.16772  0.14332  0.27071  1.0000
  H   H4        1.0  0.83231  0.85671  0.72929  1.0000
  H   H5        1.0  0.81521  0.19410  0.33441  1.0000
  H   H6        1.0  0.18481  0.80592  0.66560  1.0000
  H   H7        1.0  0.59776  0.00832  0.42911  1.0000
  H   H8        1.0  0.40225  0.99170  0.57089  1.0000
  H   H9        1.0  0.72209  0.76925  0.45879  1.0000
  H   H10       1.0  0.27790  0.23076  0.54119  1.0000
  H   H11       1.0  0.00506  0.34583  0.45036  1.0000
  H   H12       1.0  0.99493  0.65417  0.54963  1.0000
  H   H13       1.0  0.20928  0.44362  0.53402  1.0000
  H   H14       1.0  0.79071  0.55639  0.46597  1.0000
  H   H15       1.0  0.22257  0.08969  0.81911  1.0000
  H   H16       1.0  0.77742  0.91029  0.18089  1.0000
  H   H17       1.0  0.37994  0.85837  0.83597  1.0000
  H   H18       1.0  0.62007  0.14161  0.16406  1.0000
  H   H19       1.0  0.76370  0.87412  0.90416  1.0000
  H   H20       1.0  0.23631  0.12588  0.09586  1.0000
  H   H21       1.0  0.98710  0.12347  0.95304  1.0000
  H   H22       1.0  0.01290  0.87653  0.04699  1.0000
  H   H23       1.0  0.83594  0.35523  0.93194  1.0000
  H   H24       1.0  0.16404  0.64476  0.06806  1.0000
  H   H25       1.0  0.56514  0.37421  0.05800  1.0000
  H   H26       1.0  0.43482  0.62574  0.94200  1.0000
  H   H27       1.0  0.30837  0.44019  0.06310  1.0000
  H   H28       1.0  0.69155  0.55978  0.93690  1.0000
  Au  Au1       1.0  0.94663  0.49888  0.72857  1.0000
  Au  Au2       1.0  0.05338  0.50113  0.27143  1.0000
  Au  Au3       1.0  0.45254  0.51180  0.73222  1.0000
  Au  Au4       1.0  0.54747  0.48820  0.26777  1.0000
  C   C1        1.0  0.01771  0.82196  0.38036  1.0000
  C   C2        1.0  0.98229  0.17804  0.61964  1.0000
  C   C3        1.0  0.14370  0.92721  0.32772  1.0000
  C   C4        1.0  0.85630  0.07280  0.67228  1.0000
  C   C5        1.0  0.07054  0.06109  0.31145  1.0000
  C   C6        1.0  0.92948  0.93893  0.68856  1.0000
  C   C7        1.0  0.87411  0.09010  0.34776  1.0000
  C   C8        1.0  0.12592  0.90993  0.65224  1.0000
  C   C9        1.0  0.75060  0.98488  0.40055  1.0000
  C   C10       1.0  0.24942  0.01513  0.59945  1.0000
  C   C11       1.0  0.82034  0.84942  0.41703  1.0000
  C   C12       1.0  0.17966  0.15059  0.58296  1.0000
  C   C13       1.0  0.96500  0.57386  0.48960  1.0000
  C   C14       1.0  0.03497  0.42614  0.51039  1.0000
  C   C15       1.0  0.51821  0.23603  0.87517  1.0000
  C   C16       1.0  0.48180  0.76396  0.12482  1.0000
  C   C17       1.0  0.39081  0.09649  0.84778  1.0000
  C   C18       1.0  0.60920  0.90349  0.15223  1.0000
  C   C19       1.0  0.48033  0.96650  0.85751  1.0000
  C   C20       1.0  0.51967  0.03348  0.14250  1.0000
  C   C21       1.0  0.69397  0.97586  0.89623  1.0000
  C   C22       1.0  0.30603  0.02413  0.10379  1.0000
  C   C23       1.0  0.82006  0.11572  0.92296  1.0000
  C   C24       1.0  0.17993  0.88428  0.07705  1.0000
  C   C25       1.0  0.73471  0.24710  0.91164  1.0000
  C   C26       1.0  0.26529  0.75290  0.08837  1.0000
  C   C27       1.0  0.51675  0.52886  0.95232  1.0000
  C   C28       1.0  0.48326  0.47113  0.04766  1.0000
  S   S1        1.0  0.13533  0.65886  0.40054  1.0000
  S   S2        1.0  0.86467  0.34115  0.59945  1.0000
  S   S3        1.0  0.37741  0.39117  0.86476  1.0000
  S   S4        1.0  0.62259  0.60881  0.13524  1.0000
  Cl  Cl1       1.0  0.02233  0.65724  0.86010  1.0000
  Cl  Cl2       1.0  0.97765  0.34275  0.13991  1.0000
  Cl  Cl3       1.0  0.50248  0.65155  0.60477  1.0000
  Cl  Cl4       1.0  0.49752  0.34846  0.39523  1.0000
