data_image0
_chemical_formula_structural       K4H8C16O8
_chemical_formula_sum              "K4 H8 C16 O8"
_cell_length_a       3.87069
_cell_length_b       10.5916
_cell_length_c       11.6357
_cell_angle_alpha    111.79
_cell_angle_beta     90.0007
_cell_angle_gamma    89.9999

_space_group_name_H-M_alt    "P 1"
_space_group_IT_number       1

loop_
  _space_group_symop_operation_xyz
  'x, y, z'

loop_
  _atom_site_type_symbol
  _atom_site_label
  _atom_site_symmetry_multiplicity
  _atom_site_fract_x
  _atom_site_fract_y
  _atom_site_fract_z
  _atom_site_occupancy
  K   K1        1.0  0.79179  0.39312  0.84115  1.0000
  K   K2        1.0  0.70821  0.39312  0.34115  1.0000
  K   K3        1.0  0.20822  0.60688  0.15885  1.0000
  K   K4        1.0  0.29180  0.60688  0.65885  1.0000
  H   H1        1.0  0.25101  0.13713  0.20481  1.0000
  H   H2        1.0  0.24898  0.13714  0.70481  1.0000
  H   H3        1.0  0.74895  0.86286  0.79519  1.0000
  H   H4        1.0  0.75105  0.86286  0.29518  1.0000
  H   H5        1.0  0.57039  0.10246  0.84105  1.0000
  H   H6        1.0  0.92959  0.10246  0.34105  1.0000
  H   H7        1.0  0.42954  0.89753  0.15894  1.0000
  H   H8        1.0  0.07045  0.89753  0.65894  1.0000
  C   C1        1.0  0.28806  0.28167  0.05614  1.0000
  C   C2        1.0  0.21195  0.28167  0.55614  1.0000
  C   C3        1.0  0.71193  0.71834  0.94386  1.0000
  C   C4        1.0  0.78808  0.71833  0.44386  1.0000
  C   C5        1.0  0.39807  0.13587  0.02623  1.0000
  C   C6        1.0  0.10193  0.13586  0.52623  1.0000
  C   C7        1.0  0.60192  0.86413  0.97377  1.0000
  C   C8        1.0  0.89809  0.86412  0.47377  1.0000
  C   C9        1.0  0.36139  0.07646  0.11507  1.0000
  C   C10       1.0  0.13860  0.07646  0.61507  1.0000
  C   C11       1.0  0.63857  0.92354  0.88493  1.0000
  C   C12       1.0  0.86143  0.92354  0.38493  1.0000
  C   C13       1.0  0.46121  0.94252  0.08928  1.0000
  C   C14       1.0  0.03877  0.94252  0.58928  1.0000
  C   C15       1.0  0.53872  0.05749  0.91072  1.0000
  C   C16       1.0  0.96126  0.05749  0.41072  1.0000
  O   O1        1.0  0.19538  0.35020  0.16708  1.0000
  O   O2        1.0  0.30463  0.35020  0.66708  1.0000
  O   O3        1.0  0.80463  0.64981  0.83293  1.0000
  O   O4        1.0  0.69539  0.64980  0.33293  1.0000
  O   O5        1.0  0.29681  0.32892  0.97012  1.0000
  O   O6        1.0  0.20319  0.32892  0.47012  1.0000
  O   O7        1.0  0.70318  0.67109  0.02988  1.0000
  O   O8        1.0  0.79684  0.67109  0.52988  1.0000
