data_image0
_chemical_formula_structural       Zn2H32C36N4O12
_chemical_formula_sum              "Zn2 H32 C36 N4 O12"
_cell_length_a       5.36081
_cell_length_b       8.88641
_cell_length_c       17.4379
_cell_angle_alpha    96.0443
_cell_angle_beta     89.9962
_cell_angle_gamma    90.0018

_space_group_name_H-M_alt    "P 1"
_space_group_IT_number       1

loop_
  _space_group_symop_operation_xyz
  'x, y, z'

loop_
  _atom_site_type_symbol
  _atom_site_label
  _atom_site_symmetry_multiplicity
  _atom_site_fract_x
  _atom_site_fract_y
  _atom_site_fract_z
  _atom_site_occupancy
  Zn  Zn1       1.0  0.50000  0.50000  1.00000  1.0000
  Zn  Zn2       1.0  0.99999  0.00001  0.00000  1.0000
  H   H1        1.0  0.59438  0.67028  0.48878  1.0000
  H   H2        1.0  0.09446  0.82969  0.51121  1.0000
  H   H3        1.0  0.40569  0.32968  0.51121  1.0000
  H   H4        1.0  0.90552  0.17032  0.48880  1.0000
  H   H5        1.0  0.94442  0.88861  0.24623  1.0000
  H   H6        1.0  0.44447  0.61137  0.75375  1.0000
  H   H7        1.0  0.05558  0.11138  0.75376  1.0000
  H   H8        1.0  0.55552  0.38866  0.24626  1.0000
  H   H9        1.0  0.11298  0.54112  0.29363  1.0000
  H   H10       1.0  0.61307  0.95886  0.70638  1.0000
  H   H11       1.0  0.88704  0.45884  0.70637  1.0000
  H   H12       1.0  0.38689  0.04115  0.29362  1.0000
  H   H13       1.0  0.87187  0.81472  0.40868  1.0000
  H   H14       1.0  0.37194  0.68525  0.59129  1.0000
  H   H15       1.0  0.12820  0.18523  0.59130  1.0000
  H   H16       1.0  0.62806  0.31477  0.40871  1.0000
  H   H17       1.0  0.21822  0.53754  0.43193  1.0000
  H   H18       1.0  0.71832  0.96244  0.56806  1.0000
  H   H19       1.0  0.78184  0.46243  0.56806  1.0000
  H   H20       1.0  0.28166  0.03756  0.43194  1.0000
  H   H21       1.0  0.00884  0.46645  0.92525  1.0000
  H   H22       1.0  0.50877  0.03355  0.07475  1.0000
  H   H23       1.0  0.99116  0.53355  0.07475  1.0000
  H   H24       1.0  0.49122  0.96646  0.92525  1.0000
  H   H25       1.0  0.30959  0.64581  0.15531  1.0000
  H   H26       1.0  0.80966  0.85417  0.84469  1.0000
  H   H27       1.0  0.69040  0.35418  0.84469  1.0000
  H   H28       1.0  0.19033  0.14584  0.15532  1.0000
  H   H29       1.0  0.87775  0.33536  0.96643  1.0000
  H   H30       1.0  0.37773  0.16466  0.03358  1.0000
  H   H31       1.0  0.12224  0.66465  0.03357  1.0000
  H   H32       1.0  0.62227  0.83535  0.96642  1.0000
  C   C1        1.0  0.69688  0.80934  0.09856  1.0000
  C   C2        1.0  0.19693  0.69066  0.90144  1.0000
  C   C3        1.0  0.30310  0.19066  0.90144  1.0000
  C   C4        1.0  0.80307  0.30936  0.09856  1.0000
  C   C5        1.0  0.63914  0.77741  0.17685  1.0000
  C   C6        1.0  0.13919  0.72258  0.82315  1.0000
  C   C7        1.0  0.36086  0.22258  0.82315  1.0000
  C   C8        1.0  0.86080  0.27744  0.17686  1.0000
  C   C9        1.0  0.55175  0.67518  0.42798  1.0000
  C   C10       1.0  0.05184  0.82479  0.57201  1.0000
  C   C11       1.0  0.44828  0.32480  0.57201  1.0000
  C   C12       1.0  0.94814  0.17522  0.42800  1.0000
  C   C13       1.0  0.77568  0.82131  0.24338  1.0000
  C   C14       1.0  0.27575  0.67867  0.75661  1.0000
  C   C15       1.0  0.22432  0.17868  0.75662  1.0000
  C   C16       1.0  0.72425  0.32135  0.24339  1.0000
  C   C17       1.0  0.65459  0.75772  0.30491  1.0000
  C   C18       1.0  0.15468  0.74226  0.69508  1.0000
  C   C19       1.0  0.34543  0.24227  0.69509  1.0000
  C   C20       1.0  0.84531  0.25775  0.30492  1.0000
  C   C21       1.0  0.43953  0.67809  0.27275  1.0000
  C   C22       1.0  0.93963  0.82189  0.72724  1.0000
  C   C23       1.0  0.56047  0.32189  0.72725  1.0000
  C   C24       1.0  0.06035  0.17813  0.27276  1.0000
  C   C25       1.0  0.27787  0.59993  0.31801  1.0000
  C   C26       1.0  0.77797  0.90005  0.68198  1.0000
  C   C27       1.0  0.72214  0.40005  0.68198  1.0000
  C   C28       1.0  0.22201  0.09996  0.31802  1.0000
  C   C29       1.0  0.70821  0.75552  0.38391  1.0000
  C   C30       1.0  0.20829  0.74445  0.61608  1.0000
  C   C31       1.0  0.29183  0.24445  0.61608  1.0000
  C   C32       1.0  0.79171  0.25557  0.38393  1.0000
  C   C33       1.0  0.33851  0.59879  0.39540  1.0000
  C   C34       1.0  0.83859  0.90119  0.60459  1.0000
  C   C35       1.0  0.66152  0.40119  0.60459  1.0000
  C   C36       1.0  0.16140  0.09881  0.39541  1.0000
  N   N1        1.0  0.43580  0.69232  0.19535  1.0000
  N   N2        1.0  0.93588  0.80767  0.80464  1.0000
  N   N3        1.0  0.56419  0.30767  0.80464  1.0000
  N   N4        1.0  0.06409  0.19234  0.19536  1.0000
  O   O1        1.0  0.61229  0.72804  0.03870  1.0000
  O   O2        1.0  0.11231  0.77195  0.96129  1.0000
  O   O3        1.0  0.38771  0.27196  0.96129  1.0000
  O   O4        1.0  0.88769  0.22806  0.03871  1.0000
  O   O5        1.0  0.84649  0.41902  0.93272  1.0000
  O   O6        1.0  0.34644  0.08099  0.06729  1.0000
  O   O7        1.0  0.15351  0.58098  0.06728  1.0000
  O   O8        1.0  0.65355  0.91902  0.93272  1.0000
  O   O9        1.0  0.83091  0.92828  0.09273  1.0000
  O   O10       1.0  0.33093  0.57171  0.90727  1.0000
  O   O11       1.0  0.16906  0.07172  0.90727  1.0000
  O   O12       1.0  0.66905  0.42830  0.09273  1.0000
