data_image0
_chemical_formula_structural       Zn4H12C16O12
_chemical_formula_sum              "Zn4 H12 C16 O12"
_cell_length_a       3.33916
_cell_length_b       10.2198
_cell_length_c       12.5068
_cell_angle_alpha    95.8739
_cell_angle_beta     90.0391
_cell_angle_gamma    99.3935

_space_group_name_H-M_alt    "P 1"
_space_group_IT_number       1

loop_
  _space_group_symop_operation_xyz
  'x, y, z'

loop_
  _atom_site_type_symbol
  _atom_site_label
  _atom_site_symmetry_multiplicity
  _atom_site_fract_x
  _atom_site_fract_y
  _atom_site_fract_z
  _atom_site_occupancy
  Zn  Zn1       1.0  0.48317  0.99977  0.24999  1.0000
  Zn  Zn2       1.0  0.51681  0.00024  0.75001  1.0000
  Zn  Zn3       1.0  0.00000  1.00000  1.00000  1.0000
  Zn  Zn4       1.0  0.99999  0.00000  0.50000  1.0000
  H   H1        1.0  0.43190  0.43056  0.80370  1.0000
  H   H2        1.0  0.00038  0.56960  0.69623  1.0000
  H   H3        1.0  0.56811  0.56943  0.19631  1.0000
  H   H4        1.0  0.99962  0.43040  0.30376  1.0000
  H   H5        1.0  0.36998  0.66399  0.87564  1.0000
  H   H6        1.0  0.70690  0.33600  0.62443  1.0000
  H   H7        1.0  0.63005  0.33601  0.12438  1.0000
  H   H8        1.0  0.29311  0.66400  0.37556  1.0000
  H   H9        1.0  0.05882  0.15151  0.16535  1.0000
  H   H10       1.0  0.90845  0.84830  0.33474  1.0000
  H   H11       1.0  0.94117  0.84849  0.83464  1.0000
  H   H12       1.0  0.09153  0.15171  0.66525  1.0000
  C   C1        1.0  0.53671  0.36973  0.95938  1.0000
  C   C2        1.0  0.16639  0.63030  0.54056  1.0000
  C   C3        1.0  0.46337  0.63028  0.04064  1.0000
  C   C4        1.0  0.83360  0.36970  0.45943  1.0000
  C   C5        1.0  0.46378  0.46235  0.88952  1.0000
  C   C6        1.0  0.00128  0.53773  0.61046  1.0000
  C   C7        1.0  0.53623  0.53765  0.11050  1.0000
  C   C8        1.0  0.99873  0.46227  0.38953  1.0000
  C   C9        1.0  0.42837  0.59173  0.92966  1.0000
  C   C10       1.0  0.83701  0.40830  0.57040  1.0000
  C   C11       1.0  0.57167  0.40827  0.07035  1.0000
  C   C12       1.0  0.16299  0.59170  0.42960  1.0000
  C   C13       1.0  0.57589  0.23068  0.91602  1.0000
  C   C14       1.0  0.34433  0.76935  0.58394  1.0000
  C   C15       1.0  0.42414  0.76931  0.08398  1.0000
  C   C16       1.0  0.65564  0.23065  0.41605  1.0000
  O   O1        1.0  0.60194  0.20356  0.81537  1.0000
  O   O2        1.0  0.39665  0.79652  0.68462  1.0000
  O   O3        1.0  0.39806  0.79644  0.18464  1.0000
  O   O4        1.0  0.60331  0.20349  0.31537  1.0000
  O   O5        1.0  0.57690  0.14522  0.98517  1.0000
  O   O6        1.0  0.43148  0.85475  0.51476  1.0000
  O   O7        1.0  0.42309  0.85477  0.01484  1.0000
  O   O8        1.0  0.56848  0.14526  0.48523  1.0000
  O   O9        1.0  0.01481  0.05439  0.15510  1.0000
  O   O10       1.0  0.96059  0.94544  0.34485  1.0000
  O   O11       1.0  0.98516  0.94561  0.84490  1.0000
  O   O12       1.0  0.03937  0.05457  0.65515  1.0000
