data_image0
_chemical_formula_structural       Zn2H32C28N12Cl4O4
_chemical_formula_sum              "Zn2 H32 C28 N12 Cl4 O4"
_cell_length_a       5.56307
_cell_length_b       9.35689
_cell_length_c       19.7321
_cell_angle_alpha    79.9189
_cell_angle_beta     81.9067
_cell_angle_gamma    72.6957

_space_group_name_H-M_alt    "P 1"
_space_group_IT_number       1

loop_
  _space_group_symop_operation_xyz
  'x, y, z'

loop_
  _atom_site_type_symbol
  _atom_site_label
  _atom_site_symmetry_multiplicity
  _atom_site_fract_x
  _atom_site_fract_y
  _atom_site_fract_z
  _atom_site_occupancy
  Zn  Zn1       1.0  0.97575  0.24985  0.75003  1.0000
  Zn  Zn2       1.0  0.02424  0.75015  0.24998  1.0000
  H   H1        1.0  0.39431  0.35879  0.67282  1.0000
  H   H2        1.0  0.42590  0.14108  0.82730  1.0000
  H   H3        1.0  0.60569  0.64120  0.32718  1.0000
  H   H4        1.0  0.57409  0.85892  0.17270  1.0000
  H   H5        1.0  0.77830  0.26345  0.59132  1.0000
  H   H6        1.0  0.63291  0.23664  0.90877  1.0000
  H   H7        1.0  0.22170  0.73655  0.40868  1.0000
  H   H8        1.0  0.36707  0.76335  0.09123  1.0000
  H   H9        1.0  0.85459  0.01514  0.55261  1.0000
  H   H10       1.0  0.42122  0.48464  0.94768  1.0000
  H   H11       1.0  0.14538  0.98485  0.44740  1.0000
  H   H12       1.0  0.57878  0.51535  0.05233  1.0000
  H   H13       1.0  0.17589  0.96904  0.68143  1.0000
  H   H14       1.0  0.82577  0.53066  0.81865  1.0000
  H   H15       1.0  0.82407  0.03096  0.31857  1.0000
  H   H16       1.0  0.17425  0.46936  0.18135  1.0000
  H   H17       1.0  0.42589  0.77198  0.62320  1.0000
  H   H18       1.0  0.81998  0.72774  0.87708  1.0000
  H   H19       1.0  0.57408  0.22801  0.37679  1.0000
  H   H20       1.0  0.18005  0.27228  0.12292  1.0000
  H   H21       1.0  0.65809  0.55788  0.58811  1.0000
  H   H22       1.0  0.80406  0.94204  0.91187  1.0000
  H   H23       1.0  0.34190  0.44211  0.41189  1.0000
  H   H24       1.0  0.19601  0.05797  0.08813  1.0000
  H   H25       1.0  0.85643  0.60165  0.44010  1.0000
  H   H26       1.0  0.89817  0.89841  0.05989  1.0000
  H   H27       1.0  0.14356  0.39834  0.55990  1.0000
  H   H28       1.0  0.10191  0.10158  0.94012  1.0000
  H   H29       1.0  0.79080  0.43470  0.48635  1.0000
  H   H30       1.0  0.71187  0.06541  0.01361  1.0000
  H   H31       1.0  0.20920  0.56532  0.51364  1.0000
  H   H32       1.0  0.28818  0.93460  0.98640  1.0000
  C   C1        1.0  0.43368  0.25029  0.65450  1.0000
  C   C2        1.0  0.33823  0.24955  0.84564  1.0000
  C   C3        1.0  0.56630  0.74971  0.34551  1.0000
  C   C4        1.0  0.66175  0.75046  0.15436  1.0000
  C   C5        1.0  0.64524  0.19702  0.60954  1.0000
  C   C6        1.0  0.45141  0.30287  0.89062  1.0000
  C   C7        1.0  0.35472  0.80298  0.39046  1.0000
  C   C8        1.0  0.54859  0.69713  0.10939  1.0000
  C   C9        1.0  0.69113  0.05680  0.58817  1.0000
  C   C10       1.0  0.33532  0.44296  0.91206  1.0000
  C   C11       1.0  0.30884  0.94319  0.41183  1.0000
  C   C12       1.0  0.66469  0.55703  0.08795  1.0000
  C   C13       1.0  0.51981  0.97117  0.61297  1.0000
  C   C14       1.0  0.10305  0.52851  0.88726  1.0000
  C   C15       1.0  0.48017  0.02882  0.38703  1.0000
  C   C16       1.0  0.89696  0.47149  0.11274  1.0000
  C   C17       1.0  0.31317  0.03112  0.65928  1.0000
  C   C18       1.0  0.00287  0.46861  0.84087  1.0000
  C   C19       1.0  0.68681  0.96889  0.34072  1.0000
  C   C20       1.0  0.99712  0.53140  0.15913  1.0000
  C   C21       1.0  0.70435  0.76221  0.54200  1.0000
  C   C22       1.0  0.00826  0.73772  0.95809  1.0000
  C   C23       1.0  0.29562  0.23781  0.45799  1.0000
  C   C24       1.0  0.99176  0.26229  0.04191  1.0000
  C   C25       1.0  0.86296  0.52979  0.49048  1.0000
  C   C26       1.0  0.88328  0.97023  0.00949  1.0000
  C   C27       1.0  0.13702  0.47019  0.50950  1.0000
  C   C28       1.0  0.11679  0.02977  0.99050  1.0000
  N   N1        1.0  0.27223  0.16689  0.67919  1.0000
  N   N2        1.0  0.11789  0.33284  0.82097  1.0000
  N   N3        1.0  0.72775  0.83312  0.32081  1.0000
  N   N4        1.0  0.88210  0.66718  0.17903  1.0000
  N   N5        1.0  0.54427  0.82979  0.59551  1.0000
  N   N6        1.0  0.96850  0.66986  0.90478  1.0000
  N   N7        1.0  0.45570  0.17020  0.40449  1.0000
  N   N8        1.0  0.03153  0.33015  0.09523  1.0000
  N   N9        1.0  0.69534  0.61746  0.54106  1.0000
  N   N10       1.0  0.85387  0.88258  0.95894  1.0000
  N   N11       1.0  0.30465  0.38253  0.45894  1.0000
  N   N12       1.0  0.14619  0.11744  0.04106  1.0000
  Cl  Cl1       1.0  0.88869  0.02803  0.79482  1.0000
  Cl  Cl2       1.0  0.71200  0.47177  0.70513  1.0000
  Cl  Cl3       1.0  0.11128  0.97197  0.20518  1.0000
  Cl  Cl4       1.0  0.28798  0.52823  0.29487  1.0000
  O   O1        1.0  0.83421  0.82770  0.49868  1.0000
  O   O2        1.0  0.16063  0.67234  0.00136  1.0000
  O   O3        1.0  0.16577  0.17229  0.50132  1.0000
  O   O4        1.0  0.83940  0.32765  0.99865  1.0000
