data_image0
_chemical_formula_structural       Sb4H24C20Br4Cl12
_chemical_formula_sum              "Sb4 H24 C20 Br4 Cl12"
_cell_length_a       7.608
_cell_length_b       8.12785
_cell_length_c       16.149
_cell_angle_alpha    90.0016
_cell_angle_beta     89.9987
_cell_angle_gamma    106.701

_space_group_name_H-M_alt    "P 1"
_space_group_IT_number       1

loop_
  _space_group_symop_operation_xyz
  'x, y, z'

loop_
  _atom_site_type_symbol
  _atom_site_label
  _atom_site_symmetry_multiplicity
  _atom_site_fract_x
  _atom_site_fract_y
  _atom_site_fract_z
  _atom_site_occupancy
  Sb  Sb1       1.0  0.68159  0.21923  0.58036  1.0000
  Sb  Sb2       1.0  0.31842  0.28077  0.08036  1.0000
  Sb  Sb3       1.0  0.31842  0.78069  0.41964  1.0000
  Sb  Sb4       1.0  0.68159  0.71932  0.91964  1.0000
  H   H1        1.0  0.30566  0.68126  0.69463  1.0000
  H   H2        1.0  0.69432  0.81875  0.19463  1.0000
  H   H3        1.0  0.69437  0.31870  0.30538  1.0000
  H   H4        1.0  0.30563  0.18129  0.80538  1.0000
  H   H5        1.0  0.12619  0.51356  0.74207  1.0000
  H   H6        1.0  0.87379  0.98643  0.24208  1.0000
  H   H7        1.0  0.87383  0.48639  0.25792  1.0000
  H   H8        1.0  0.12618  0.01359  0.75792  1.0000
  H   H9        1.0  0.19588  0.29523  0.65178  1.0000
  H   H10       1.0  0.80411  0.20476  0.15179  1.0000
  H   H11       1.0  0.80412  0.70473  0.34820  1.0000
  H   H12       1.0  0.19591  0.79527  0.84821  1.0000
  H   H13       1.0  0.39460  0.41243  0.70649  1.0000
  H   H14       1.0  0.60540  0.08757  0.20651  1.0000
  H   H15       1.0  0.60542  0.58752  0.29349  1.0000
  H   H16       1.0  0.39461  0.91251  0.79350  1.0000
  H   H17       1.0  0.61607  0.67943  0.62393  1.0000
  H   H18       1.0  0.38390  0.82059  0.12394  1.0000
  H   H19       1.0  0.38396  0.32052  0.37605  1.0000
  H   H20       1.0  0.61608  0.17946  0.87606  1.0000
  H   H21       1.0  0.21790  0.25437  0.50878  1.0000
  H   H22       1.0  0.78213  0.24561  0.00879  1.0000
  H   H23       1.0  0.78212  0.74558  0.49121  1.0000
  H   H24       1.0  0.21787  0.75444  0.99122  1.0000
  C   C1        1.0  0.20782  0.55432  0.68591  1.0000
  C   C2        1.0  0.79213  0.94567  0.18592  1.0000
  C   C3        1.0  0.79219  0.44565  0.31408  1.0000
  C   C4        1.0  0.20783  0.05436  0.81409  1.0000
  C   C5        1.0  0.29848  0.42122  0.65661  1.0000
  C   C6        1.0  0.70152  0.07879  0.15663  1.0000
  C   C7        1.0  0.70153  0.57875  0.34338  1.0000
  C   C8        1.0  0.29847  0.92125  0.84339  1.0000
  C   C9        1.0  0.40282  0.46264  0.57625  1.0000
  C   C10       1.0  0.59716  0.03736  0.07627  1.0000
  C   C11       1.0  0.59718  0.53731  0.42373  1.0000
  C   C12       1.0  0.40281  0.96269  0.92375  1.0000
  C   C13       1.0  0.56369  0.60035  0.56986  1.0000
  C   C14       1.0  0.43630  0.89966  0.06988  1.0000
  C   C15       1.0  0.43632  0.39960  0.43012  1.0000
  C   C16       1.0  0.56368  0.10039  0.93013  1.0000
  C   C17       1.0  0.34118  0.36320  0.50509  1.0000
  C   C18       1.0  0.65883  0.13678  0.00511  1.0000
  C   C19       1.0  0.65885  0.63678  0.49490  1.0000
  C   C20       1.0  0.34115  0.86321  0.99491  1.0000
  Br  Br1       1.0  0.03143  0.59476  0.60375  1.0000
  Br  Br2       1.0  0.96855  0.90522  0.10375  1.0000
  Br  Br3       1.0  0.96860  0.40521  0.39625  1.0000
  Br  Br4       1.0  0.03140  0.09479  0.89625  1.0000
  Cl  Cl1       1.0  0.69099  0.28898  0.72507  1.0000
  Cl  Cl2       1.0  0.30899  0.21103  0.22507  1.0000
  Cl  Cl3       1.0  0.30903  0.71101  0.27493  1.0000
  Cl  Cl4       1.0  0.69099  0.78899  0.77493  1.0000
  Cl  Cl5       1.0  0.88908  0.04813  0.59487  1.0000
  Cl  Cl6       1.0  0.11092  0.45187  0.09487  1.0000
  Cl  Cl7       1.0  0.11092  0.95181  0.40513  1.0000
  Cl  Cl8       1.0  0.88908  0.54819  0.90513  1.0000
  Cl  Cl9       1.0  0.40144  0.98346  0.60107  1.0000
  Cl  Cl10      1.0  0.59855  0.51654  0.10107  1.0000
  Cl  Cl11      1.0  0.59856  0.01651  0.39894  1.0000
  Cl  Cl12      1.0  0.40145  0.48350  0.89894  1.0000
