data_image0
_chemical_formula_structural       Cd2H32C52S4N4O8
_chemical_formula_sum              "Cd2 H32 C52 S4 N4 O8"
_cell_length_a       10.0886
_cell_length_b       11.0218
_cell_length_c       11.8718
_cell_angle_alpha    96.1333
_cell_angle_beta     96.0376
_cell_angle_gamma    117.197

_space_group_name_H-M_alt    "P 1"
_space_group_IT_number       1

loop_
  _space_group_symop_operation_xyz
  'x, y, z'

loop_
  _atom_site_type_symbol
  _atom_site_label
  _atom_site_symmetry_multiplicity
  _atom_site_fract_x
  _atom_site_fract_y
  _atom_site_fract_z
  _atom_site_occupancy
  Cd  Cd1       1.0  0.43986  0.80777  0.46532  1.0000
  Cd  Cd2       1.0  0.56014  0.19224  0.53468  1.0000
  H   H1        1.0  0.35303  0.55772  0.24720  1.0000
  H   H2        1.0  0.64697  0.44228  0.75280  1.0000
  H   H3        1.0  0.44310  0.38999  0.17310  1.0000
  H   H4        1.0  0.55690  0.61001  0.82690  1.0000
  H   H5        1.0  0.66549  0.39114  0.29043  1.0000
  H   H6        1.0  0.33451  0.60886  0.70957  1.0000
  H   H7        1.0  0.86941  0.49617  0.46518  1.0000
  H   H8        1.0  0.13059  0.50383  0.53482  1.0000
  H   H9        1.0  0.99024  0.66430  0.64709  1.0000
  H   H10       1.0  0.00976  0.33569  0.35292  1.0000
  H   H11       1.0  0.99469  0.85302  0.79125  1.0000
  H   H12       1.0  0.00530  0.14698  0.20875  1.0000
  H   H13       1.0  0.88065  0.00452  0.84759  1.0000
  H   H14       1.0  0.11934  0.99548  0.15241  1.0000
  H   H15       1.0  0.65339  0.98065  0.71909  1.0000
  H   H16       1.0  0.34660  0.01934  0.28091  1.0000
  H   H17       1.0  0.91849  0.57420  0.26283  1.0000
  H   H18       1.0  0.08151  0.42581  0.73717  1.0000
  H   H19       1.0  0.71213  0.50573  0.09238  1.0000
  H   H20       1.0  0.28787  0.49427  0.90762  1.0000
  H   H21       1.0  0.78544  0.57257  0.90501  1.0000
  H   H22       1.0  0.21457  0.42744  0.09500  1.0000
  H   H23       1.0  0.05409  0.69967  0.88717  1.0000
  H   H24       1.0  0.94592  0.30034  0.11283  1.0000
  H   H25       1.0  0.27025  0.99783  0.02359  1.0000
  H   H26       1.0  0.72975  0.00217  0.97641  1.0000
  H   H27       1.0  0.20801  0.18365  0.98234  1.0000
  H   H28       1.0  0.79199  0.81635  0.01766  1.0000
  H   H29       1.0  0.19680  0.23737  0.78371  1.0000
  H   H30       1.0  0.80320  0.76263  0.21629  1.0000
  H   H31       1.0  0.25314  0.10383  0.62918  1.0000
  H   H32       1.0  0.74686  0.89617  0.37082  1.0000
  C   C1        1.0  0.44914  0.55414  0.29506  1.0000
  C   C2        1.0  0.55086  0.44586  0.70494  1.0000
  C   C3        1.0  0.50106  0.46217  0.25388  1.0000
  C   C4        1.0  0.49893  0.53783  0.74612  1.0000
  C   C5        1.0  0.62447  0.46348  0.31797  1.0000
  C   C6        1.0  0.37553  0.53652  0.68203  1.0000
  C   C7        1.0  0.69671  0.55792  0.42272  1.0000
  C   C8        1.0  0.30329  0.44208  0.57728  1.0000
  C   C9        1.0  0.82595  0.56635  0.49310  1.0000
  C   C10       1.0  0.17404  0.43365  0.50689  1.0000
  C   C11       1.0  0.89174  0.65864  0.59405  1.0000
  C   C12       1.0  0.10825  0.34136  0.40595  1.0000
  C   C13       1.0  0.83264  0.74863  0.63271  1.0000
  C   C14       1.0  0.16736  0.25137  0.36729  1.0000
  C   C15       1.0  0.89553  0.84450  0.73713  1.0000
  C   C16       1.0  0.10447  0.15550  0.26287  1.0000
  C   C17       1.0  0.83204  0.92778  0.76886  1.0000
  C   C18       1.0  0.16795  0.07221  0.23114  1.0000
  C   C19       1.0  0.70506  0.91536  0.69669  1.0000
  C   C20       1.0  0.29493  0.08464  0.30331  1.0000
  C   C21       1.0  0.70427  0.74329  0.56514  1.0000
  C   C22       1.0  0.29573  0.25671  0.43485  1.0000
  C   C23       1.0  0.63522  0.64607  0.45805  1.0000
  C   C24       1.0  0.36478  0.35393  0.54195  1.0000
  C   C25       1.0  0.21285  0.71711  0.27645  1.0000
  C   C26       1.0  0.78715  0.28289  0.72355  1.0000
  C   C27       1.0  0.09735  0.67881  0.17184  1.0000
  C   C28       1.0  0.90266  0.32119  0.82816  1.0000
  C   C29       1.0  0.94416  0.60259  0.17964  1.0000
  C   C30       1.0  0.05584  0.39741  0.82036  1.0000
  C   C31       1.0  0.83085  0.56483  0.08529  1.0000
  C   C32       1.0  0.16915  0.43517  0.91471  1.0000
  C   C33       1.0  0.87206  0.60244  0.98064  1.0000
  C   C34       1.0  0.12795  0.39756  0.01937  1.0000
  C   C35       1.0  0.02356  0.67607  0.97043  1.0000
  C   C36       1.0  0.97645  0.32394  0.02957  1.0000
  C   C37       1.0  0.13871  0.71598  0.06534  1.0000
  C   C38       1.0  0.86129  0.28402  0.93467  1.0000
  C   C39       1.0  0.29245  0.94305  0.85004  1.0000
  C   C40       1.0  0.70755  0.05695  0.14995  1.0000
  C   C41       1.0  0.26366  0.02031  0.93669  1.0000
  C   C42       1.0  0.73634  0.97968  0.06331  1.0000
  C   C43       1.0  0.23110  0.12600  0.91344  1.0000
  C   C44       1.0  0.76890  0.87400  0.08656  1.0000
  C   C45       1.0  0.22562  0.15691  0.80246  1.0000
  C   C46       1.0  0.77438  0.84310  0.19754  1.0000
  C   C47       1.0  0.25649  0.08258  0.71660  1.0000
  C   C48       1.0  0.74352  0.91743  0.28340  1.0000
  C   C49       1.0  0.29109  0.97679  0.73817  1.0000
  C   C50       1.0  0.70891  0.02321  0.26183  1.0000
  C   C51       1.0  0.32858  0.90546  0.64307  1.0000
  C   C52       1.0  0.67142  0.09455  0.35693  1.0000
  S   S1        1.0  0.33422  0.80928  0.05463  1.0000
  S   S2        1.0  0.66578  0.19072  0.94537  1.0000
  S   S3        1.0  0.32896  0.80462  0.87868  1.0000
  S   S4        1.0  0.67105  0.19538  0.12132  1.0000
  N   N1        1.0  0.51326  0.64196  0.39415  1.0000
  N   N2        1.0  0.48674  0.35804  0.60585  1.0000
  N   N3        1.0  0.64376  0.82592  0.59802  1.0000
  N   N4        1.0  0.35623  0.17408  0.40198  1.0000
  O   O1        1.0  0.34951  0.80644  0.27181  1.0000
  O   O2        1.0  0.65050  0.19356  0.72819  1.0000
  O   O3        1.0  0.17654  0.66291  0.36493  1.0000
  O   O4        1.0  0.82347  0.33709  0.63507  1.0000
  O   O5        1.0  0.36670  0.96413  0.55483  1.0000
  O   O6        1.0  0.63330  0.03588  0.44517  1.0000
  O   O7        1.0  0.32440  0.79001  0.65084  1.0000
  O   O8        1.0  0.67560  0.20999  0.34916  1.0000
