data_image0
_chemical_formula_structural       Cd2H12C12I2N2O6
_chemical_formula_sum              "Cd2 H12 C12 I2 N2 O6"
_cell_length_a       7.41654
_cell_length_b       8.07623
_cell_length_c       8.91181
_cell_angle_alpha    104.769
_cell_angle_beta     91.7014
_cell_angle_gamma    114.838

_space_group_name_H-M_alt    "P 1"
_space_group_IT_number       1

loop_
  _space_group_symop_operation_xyz
  'x, y, z'

loop_
  _atom_site_type_symbol
  _atom_site_label
  _atom_site_symmetry_multiplicity
  _atom_site_fract_x
  _atom_site_fract_y
  _atom_site_fract_z
  _atom_site_occupancy
  Cd  Cd1       1.0  0.29183  0.88508  0.13329  1.0000
  Cd  Cd2       1.0  0.70817  0.11492  0.86671  1.0000
  H   H1        1.0  0.87711  0.82282  0.11974  1.0000
  H   H2        1.0  0.12289  0.17718  0.88025  1.0000
  H   H3        1.0  0.85672  0.61826  0.02488  1.0000
  H   H4        1.0  0.14328  0.38174  0.97512  1.0000
  H   H5        1.0  0.20286  0.57343  0.55695  1.0000
  H   H6        1.0  0.79714  0.42657  0.44305  1.0000
  H   H7        1.0  0.17329  0.29962  0.65786  1.0000
  H   H8        1.0  0.82671  0.70038  0.34214  1.0000
  H   H9        1.0  0.23355  0.03528  0.48186  1.0000
  H   H10       1.0  0.76645  0.96472  0.51814  1.0000
  H   H11       1.0  0.34184  0.29591  0.12733  1.0000
  H   H12       1.0  0.65815  0.70409  0.87267  1.0000
  C   C1        1.0  0.28099  0.60956  0.26816  1.0000
  C   C2        1.0  0.71901  0.39044  0.73184  1.0000
  C   C3        1.0  0.27163  0.45387  0.33405  1.0000
  C   C4        1.0  0.72837  0.54613  0.66595  1.0000
  C   C5        1.0  0.22627  0.45484  0.48543  1.0000
  C   C6        1.0  0.77373  0.54516  0.51457  1.0000
  C   C7        1.0  0.21128  0.30413  0.54122  1.0000
  C   C8        1.0  0.78871  0.69587  0.45878  1.0000
  C   C9        1.0  0.24240  0.15651  0.44426  1.0000
  C   C10       1.0  0.75760  0.84349  0.55574  1.0000
  C   C11       1.0  0.30237  0.30121  0.24493  1.0000
  C   C12       1.0  0.69763  0.69879  0.75507  1.0000
  I   I1        1.0  0.74110  0.07236  0.17462  1.0000
  I   I2        1.0  0.25890  0.92765  0.82538  1.0000
  N   N1        1.0  0.28685  0.15558  0.29852  1.0000
  N   N2        1.0  0.71315  0.84442  0.70148  1.0000
  O   O1        1.0  0.27385  0.58077  0.11808  1.0000
  O   O2        1.0  0.72615  0.41923  0.88193  1.0000
  O   O3        1.0  0.29506  0.76336  0.35980  1.0000
  O   O4        1.0  0.70494  0.23664  0.64020  1.0000
  O   O5        1.0  0.93543  0.73316  0.11780  1.0000
  O   O6        1.0  0.06457  0.26684  0.88220  1.0000
