data_image0
_chemical_formula_structural       Na4H28C32O36
_chemical_formula_sum              "Na4 H28 C32 O36"
_cell_length_a       8.0816
_cell_length_b       9.6389
_cell_length_c       13.4467
_cell_angle_alpha    89.9998
_cell_angle_beta     90
_cell_angle_gamma    109.551

_space_group_name_H-M_alt    "P 1"
_space_group_IT_number       1

loop_
  _space_group_symop_operation_xyz
  'x, y, z'

loop_
  _atom_site_type_symbol
  _atom_site_label
  _atom_site_symmetry_multiplicity
  _atom_site_fract_x
  _atom_site_fract_y
  _atom_site_fract_z
  _atom_site_occupancy
  Na  Na1       1.0  0.83890  0.60251  0.98634  1.0000
  Na  Na2       1.0  0.16110  0.89749  0.48634  1.0000
  Na  Na3       1.0  0.16110  0.39749  0.01367  1.0000
  Na  Na4       1.0  0.83890  0.10251  0.51366  1.0000
  H   H1        1.0  0.26197  0.46481  0.78936  1.0000
  H   H2        1.0  0.73803  0.03519  0.28936  1.0000
  H   H3        1.0  0.73803  0.53519  0.21064  1.0000
  H   H4        1.0  0.26197  0.96481  0.71064  1.0000
  H   H5        1.0  0.67611  0.63304  0.47275  1.0000
  H   H6        1.0  0.32389  0.86696  0.97275  1.0000
  H   H7        1.0  0.32389  0.36696  0.52725  1.0000
  H   H8        1.0  0.67611  0.13304  0.02725  1.0000
  H   H9        1.0  0.50312  0.18395  0.50334  1.0000
  H   H10       1.0  0.49688  0.31605  0.00334  1.0000
  H   H11       1.0  0.49688  0.81605  0.49666  1.0000
  H   H12       1.0  0.50312  0.68395  0.99666  1.0000
  H   H13       1.0  0.02570  0.70395  0.71321  1.0000
  H   H14       1.0  0.97430  0.79605  0.21321  1.0000
  H   H15       1.0  0.97430  0.29605  0.28679  1.0000
  H   H16       1.0  0.02570  0.20395  0.78678  1.0000
  H   H17       1.0  0.93752  0.42986  0.62627  1.0000
  H   H18       1.0  0.06248  0.07014  0.12627  1.0000
  H   H19       1.0  0.06248  0.57014  0.37373  1.0000
  H   H20       1.0  0.93752  0.92986  0.87373  1.0000
  H   H21       1.0  0.71388  0.31528  0.74330  1.0000
  H   H22       1.0  0.28612  0.18472  0.24330  1.0000
  H   H23       1.0  0.28612  0.68472  0.25670  1.0000
  H   H24       1.0  0.71388  0.81528  0.75670  1.0000
  H   H25       1.0  0.55815  0.56294  0.72381  1.0000
  H   H26       1.0  0.44185  0.93706  0.22381  1.0000
  H   H27       1.0  0.44185  0.43706  0.27619  1.0000
  H   H28       1.0  0.55815  0.06294  0.77619  1.0000
  C   C1        1.0  0.94144  0.59438  0.73843  1.0000
  C   C2        1.0  0.05856  0.90562  0.23843  1.0000
  C   C3        1.0  0.05856  0.40562  0.26157  1.0000
  C   C4        1.0  0.94144  0.09438  0.76157  1.0000
  C   C5        1.0  0.85615  0.49468  0.65033  1.0000
  C   C6        1.0  0.14385  0.00532  0.15033  1.0000
  C   C7        1.0  0.14385  0.50532  0.34967  1.0000
  C   C8        1.0  0.85615  0.99468  0.84967  1.0000
  C   C9        1.0  0.68194  0.39773  0.69749  1.0000
  C   C10       1.0  0.31806  0.10227  0.19749  1.0000
  C   C11       1.0  0.31806  0.60227  0.30251  1.0000
  C   C12       1.0  0.68194  0.89773  0.80251  1.0000
  C   C13       1.0  0.63263  0.50525  0.76570  1.0000
  C   C14       1.0  0.36737  0.99475  0.26570  1.0000
  C   C15       1.0  0.36737  0.49475  0.23430  1.0000
  C   C16       1.0  0.63263  0.00525  0.73430  1.0000
  C   C17       1.0  0.05830  0.53135  0.80047  1.0000
  C   C18       1.0  0.94170  0.96864  0.30047  1.0000
  C   C19       1.0  0.94170  0.46865  0.19953  1.0000
  C   C20       1.0  0.05830  0.03135  0.69953  1.0000
  C   C21       1.0  0.84355  0.58750  0.56102  1.0000
  C   C22       1.0  0.15645  0.91251  0.06102  1.0000
  C   C23       1.0  0.15645  0.41251  0.43898  1.0000
  C   C24       1.0  0.84355  0.08749  0.93898  1.0000
  C   C25       1.0  0.54217  0.31457  0.62400  1.0000
  C   C26       1.0  0.45783  0.18543  0.12400  1.0000
  C   C27       1.0  0.45783  0.68543  0.37600  1.0000
  C   C28       1.0  0.54217  0.81457  0.87600  1.0000
  C   C29       1.0  0.52491  0.43026  0.85698  1.0000
  C   C30       1.0  0.47510  0.06974  0.35698  1.0000
  C   C31       1.0  0.47510  0.56974  0.14302  1.0000
  C   C32       1.0  0.52490  0.93026  0.64302  1.0000
  O   O1        1.0  0.79952  0.61060  0.79673  1.0000
  O   O2        1.0  0.20048  0.88940  0.29673  1.0000
  O   O3        1.0  0.20048  0.38940  0.20327  1.0000
  O   O4        1.0  0.79952  0.11060  0.70327  1.0000
  O   O5        1.0  0.03857  0.51135  0.89103  1.0000
  O   O6        1.0  0.96143  0.98865  0.39103  1.0000
  O   O7        1.0  0.96143  0.48865  0.10897  1.0000
  O   O8        1.0  0.03857  0.01135  0.60897  1.0000
  O   O9        1.0  0.17832  0.50360  0.74566  1.0000
  O   O10       1.0  0.82168  0.99640  0.24566  1.0000
  O   O11       1.0  0.82168  0.49640  0.25434  1.0000
  O   O12       1.0  0.17832  0.00360  0.75434  1.0000
  O   O13       1.0  0.97659  0.66633  0.51836  1.0000
  O   O14       1.0  0.02341  0.83367  0.01836  1.0000
  O   O15       1.0  0.02341  0.33367  0.48164  1.0000
  O   O16       1.0  0.97659  0.16633  0.98164  1.0000
  O   O17       1.0  0.68154  0.57570  0.53590  1.0000
  O   O18       1.0  0.31846  0.92430  0.03590  1.0000
  O   O19       1.0  0.31846  0.42430  0.46410  1.0000
  O   O20       1.0  0.68154  0.07570  0.96410  1.0000
  O   O21       1.0  0.38983  0.31757  0.62767  1.0000
  O   O22       1.0  0.61018  0.18242  0.12767  1.0000
  O   O23       1.0  0.61018  0.68242  0.37232  1.0000
  O   O24       1.0  0.38982  0.81757  0.87233  1.0000
  O   O25       1.0  0.59951  0.23982  0.55885  1.0000
  O   O26       1.0  0.40050  0.26019  0.05886  1.0000
  O   O27       1.0  0.40049  0.76018  0.44115  1.0000
  O   O28       1.0  0.59951  0.73982  0.94115  1.0000
  O   O29       1.0  0.60885  0.39337  0.92676  1.0000
  O   O30       1.0  0.39115  0.10663  0.42676  1.0000
  O   O31       1.0  0.39115  0.60663  0.07324  1.0000
  O   O32       1.0  0.60885  0.89337  0.57324  1.0000
  O   O33       1.0  0.36145  0.40757  0.85921  1.0000
  O   O34       1.0  0.63855  0.09243  0.35921  1.0000
  O   O35       1.0  0.63855  0.59243  0.14079  1.0000
  O   O36       1.0  0.36145  0.90757  0.64079  1.0000
