data_image0
_chemical_formula_structural       Cd2H36C52N12O8
_chemical_formula_sum              "Cd2 H36 C52 N12 O8"
_cell_length_a       8.04425
_cell_length_b       13.122
_cell_length_c       13.8768
_cell_angle_alpha    89.9999
_cell_angle_beta     90.0002
_cell_angle_gamma    103.525

_space_group_name_H-M_alt    "P 1"
_space_group_IT_number       1

loop_
  _space_group_symop_operation_xyz
  'x, y, z'

loop_
  _atom_site_type_symbol
  _atom_site_label
  _atom_site_symmetry_multiplicity
  _atom_site_fract_x
  _atom_site_fract_y
  _atom_site_fract_z
  _atom_site_occupancy
  Cd  Cd1       1.0  0.00016  0.99952  0.82062  1.0000
  Cd  Cd2       1.0  0.00016  0.49952  0.17938  1.0000
  H   H1        1.0  0.13177  0.68361  0.98327  1.0000
  H   H2        1.0  0.13177  0.18361  0.01673  1.0000
  H   H3        1.0  0.34521  0.57865  0.02635  1.0000
  H   H4        1.0  0.34521  0.07865  0.97365  1.0000
  H   H5        1.0  0.74936  0.82097  0.90835  1.0000
  H   H6        1.0  0.74936  0.32097  0.09165  1.0000
  H   H7        1.0  0.53471  0.92601  0.86558  1.0000
  H   H8        1.0  0.53472  0.42601  0.13441  1.0000
  H   H9        1.0  0.90441  0.71780  0.18829  1.0000
  H   H10       1.0  0.90441  0.21780  0.81171  1.0000
  H   H11       1.0  0.68103  0.71476  0.17897  1.0000
  H   H12       1.0  0.68103  0.21476  0.82103  1.0000
  H   H13       1.0  0.83218  0.80122  0.10473  1.0000
  H   H14       1.0  0.83218  0.30122  0.89527  1.0000
  H   H15       1.0  0.43596  0.36847  0.31970  1.0000
  H   H16       1.0  0.43595  0.86847  0.68030  1.0000
  H   H17       1.0  0.23289  0.29394  0.45229  1.0000
  H   H18       1.0  0.23289  0.79394  0.54771  1.0000
  H   H19       1.0  0.65463  0.24455  0.62377  1.0000
  H   H20       1.0  0.65463  0.74455  0.37623  1.0000
  H   H21       1.0  0.85563  0.31327  0.48713  1.0000
  H   H22       1.0  0.85562  0.81327  0.51287  1.0000
  H   H23       1.0  0.09279  0.98765  0.59820  1.0000
  H   H24       1.0  0.09279  0.48765  0.40180  1.0000
  H   H25       1.0  0.27892  0.04820  0.52990  1.0000
  H   H26       1.0  0.27892  0.54820  0.47010  1.0000
  H   H27       1.0  0.08243  0.08338  0.50806  1.0000
  H   H28       1.0  0.08243  0.58338  0.49194  1.0000
  H   H29       1.0  0.49484  0.36110  0.88002  1.0000
  H   H30       1.0  0.49484  0.86110  0.11998  1.0000
  H   H31       1.0  0.73311  0.67187  0.77770  1.0000
  H   H32       1.0  0.73311  0.17187  0.22230  1.0000
  H   H33       1.0  0.59257  0.62895  0.61861  1.0000
  H   H34       1.0  0.59257  0.12895  0.38138  1.0000
  H   H35       1.0  0.40742  0.45291  0.58903  1.0000
  H   H36       1.0  0.40742  0.95291  0.41097  1.0000
  C   C1        1.0  0.19404  0.87255  0.89375  1.0000
  C   C2        1.0  0.19404  0.37255  0.10626  1.0000
  C   C3        1.0  0.32073  0.81055  0.92173  1.0000
  C   C4        1.0  0.32073  0.31055  0.07827  1.0000
  C   C5        1.0  0.26664  0.71283  0.96665  1.0000
  C   C6        1.0  0.26664  0.21283  0.03335  1.0000
  C   C7        1.0  0.38459  0.65403  0.98968  1.0000
  C   C8        1.0  0.38460  0.15403  0.01033  1.0000
  C   C9        1.0  0.55645  0.69444  0.96661  1.0000
  C   C10       1.0  0.55645  0.19444  0.03339  1.0000
  C   C11       1.0  0.61353  0.79226  0.92341  1.0000
  C   C12       1.0  0.61353  0.29226  0.07659  1.0000
  C   C13       1.0  0.49440  0.85031  0.90115  1.0000
  C   C14       1.0  0.49440  0.35031  0.09885  1.0000
  C   C15       1.0  0.80115  0.72325  0.13862  1.0000
  C   C16       1.0  0.80115  0.22325  0.86138  1.0000
  C   C17       1.0  0.78363  0.64084  0.06400  1.0000
  C   C18       1.0  0.78363  0.14084  0.93600  1.0000
  C   C19       1.0  0.70345  0.54858  0.93274  1.0000
  C   C20       1.0  0.70345  0.04858  0.06725  1.0000
  C   C21       1.0  0.78349  0.39711  0.32122  1.0000
  C   C22       1.0  0.78349  0.89712  0.67878  1.0000
  C   C23       1.0  0.65809  0.34720  0.39716  1.0000
  C   C24       1.0  0.65809  0.84720  0.60284  1.0000
  C   C25       1.0  0.48251  0.34006  0.38594  1.0000
  C   C26       1.0  0.48251  0.84006  0.61406  1.0000
  C   C27       1.0  0.36949  0.29857  0.45987  1.0000
  C   C28       1.0  0.36949  0.79857  0.54013  1.0000
  C   C29       1.0  0.43425  0.26724  0.54560  1.0000
  C   C30       1.0  0.43425  0.76724  0.45440  1.0000
  C   C31       1.0  0.60817  0.27073  0.55649  1.0000
  C   C32       1.0  0.60816  0.77073  0.44352  1.0000
  C   C33       1.0  0.71929  0.30971  0.48137  1.0000
  C   C34       1.0  0.71929  0.80971  0.51864  1.0000
  C   C35       1.0  0.16277  0.06092  0.56470  1.0000
  C   C36       1.0  0.16277  0.56092  0.43530  1.0000
  C   C37       1.0  0.20762  0.14347  0.63934  1.0000
  C   C38       1.0  0.20762  0.64347  0.36066  1.0000
  C   C39       1.0  0.33226  0.29006  0.71408  1.0000
  C   C40       1.0  0.33226  0.79006  0.28592  1.0000
  C   C41       1.0  0.44102  0.39457  0.73194  1.0000
  C   C42       1.0  0.44102  0.89457  0.26806  1.0000
  C   C43       1.0  0.51731  0.41942  0.82260  1.0000
  C   C44       1.0  0.51731  0.91942  0.17740  1.0000
  C   C45       1.0  0.62102  0.51950  0.83899  1.0000
  C   C46       1.0  0.62102  0.01950  0.16101  1.0000
  C   C47       1.0  0.64904  0.59488  0.76516  1.0000
  C   C48       1.0  0.64904  0.09488  0.23484  1.0000
  C   C49       1.0  0.57164  0.57033  0.67568  1.0000
  C   C50       1.0  0.57164  0.07034  0.32432  1.0000
  C   C51       1.0  0.46804  0.47108  0.65907  1.0000
  C   C52       1.0  0.46804  0.97108  0.34093  1.0000
  N   N1        1.0  0.86717  0.56471  0.05792  1.0000
  N   N2        1.0  0.86716  0.06471  0.94208  1.0000
  N   N3        1.0  0.81791  0.50664  0.97560  1.0000
  N   N4        1.0  0.81790  0.00664  0.02440  1.0000
  N   N5        1.0  0.67770  0.63246  0.98622  1.0000
  N   N6        1.0  0.67771  0.13246  0.01378  1.0000
  N   N7        1.0  0.14735  0.14116  0.72849  1.0000
  N   N8        1.0  0.14735  0.64116  0.27151  1.0000
  N   N9        1.0  0.22427  0.23237  0.77555  1.0000
  N   N10       1.0  0.22428  0.73237  0.22445  1.0000
  N   N11       1.0  0.32487  0.23679  0.62699  1.0000
  N   N12       1.0  0.32487  0.73679  0.37301  1.0000
  O   O1        1.0  0.25461  0.96175  0.85259  1.0000
  O   O2        1.0  0.25461  0.46175  0.14741  1.0000
  O   O3        1.0  0.03614  0.83697  0.90952  1.0000
  O   O4        1.0  0.03614  0.33697  0.09049  1.0000
  O   O5        1.0  0.74173  0.46514  0.26630  1.0000
  O   O6        1.0  0.74172  0.96514  0.73370  1.0000
  O   O7        1.0  0.92653  0.37169  0.31677  1.0000
  O   O8        1.0  0.92653  0.87170  0.68324  1.0000
