data_image0
_chemical_formula_structural       NiP2H38C24S4N4O4
_chemical_formula_sum              "Ni1 P2 H38 C24 S4 N4 O4"
_cell_length_a       8.56296
_cell_length_b       8.64293
_cell_length_c       11.0735
_cell_angle_alpha    88.5426
_cell_angle_beta     81.5254
_cell_angle_gamma    89.6515

_space_group_name_H-M_alt    "P 1"
_space_group_IT_number       1

loop_
  _space_group_symop_operation_xyz
  'x, y, z'

loop_
  _atom_site_type_symbol
  _atom_site_label
  _atom_site_symmetry_multiplicity
  _atom_site_fract_x
  _atom_site_fract_y
  _atom_site_fract_z
  _atom_site_occupancy
  Ni  Ni1       1.0  0.50000  0.50000  0.50000  1.0000
  P   P1        1.0  0.64522  0.57595  0.71771  1.0000
  P   P2        1.0  0.35478  0.42405  0.28229  1.0000
  H   H1        1.0  0.77606  0.32838  0.81685  1.0000
  H   H2        1.0  0.22394  0.67161  0.18316  1.0000
  H   H3        1.0  0.52232  0.19237  0.87535  1.0000
  H   H4        1.0  0.47768  0.80763  0.12465  1.0000
  H   H5        1.0  0.49670  0.27885  0.02191  1.0000
  H   H6        1.0  0.50330  0.72115  0.97809  1.0000
  H   H7        1.0  0.65358  0.14469  0.98084  1.0000
  H   H8        1.0  0.34642  0.85531  0.01916  1.0000
  H   H9        1.0  0.85070  0.54263  0.94674  1.0000
  H   H10       1.0  0.14930  0.45737  0.05326  1.0000
  H   H11       1.0  0.85883  0.35881  0.02265  1.0000
  H   H12       1.0  0.14117  0.64119  0.97735  1.0000
  H   H13       1.0  0.69569  0.48536  0.06531  1.0000
  H   H14       1.0  0.30431  0.51464  0.93469  1.0000
  H   H15       1.0  0.78827  0.79489  0.57916  1.0000
  H   H16       1.0  0.21173  0.20511  0.42084  1.0000
  H   H17       1.0  0.04075  0.67156  0.59523  1.0000
  H   H18       1.0  0.95924  0.32845  0.40478  1.0000
  H   H19       1.0  0.06844  0.78531  0.72301  1.0000
  H   H20       1.0  0.93156  0.21469  0.27699  1.0000
  H   H21       1.0  0.07494  0.87386  0.57522  1.0000
  H   H22       1.0  0.92506  0.12614  0.42478  1.0000
  H   H23       1.0  0.66424  0.98193  0.72903  1.0000
  H   H24       1.0  0.33575  0.01807  0.27097  1.0000
  H   H25       1.0  0.84192  0.06310  0.65013  1.0000
  H   H26       1.0  0.15808  0.93690  0.34987  1.0000
  H   H27       1.0  0.83633  0.98563  0.80135  1.0000
  H   H28       1.0  0.16366  0.01437  0.19865  1.0000
  H   H29       1.0  0.53398  0.16570  0.56290  1.0000
  H   H30       1.0  0.46603  0.83430  0.43709  1.0000
  H   H31       1.0  0.39854  0.97070  0.71278  1.0000
  H   H32       1.0  0.60145  0.02931  0.28722  1.0000
  H   H33       1.0  0.05150  0.32225  0.82985  1.0000
  H   H34       1.0  0.94851  0.67776  0.17015  1.0000
  H   H35       1.0  0.19762  0.49934  0.67139  1.0000
  H   H36       1.0  0.80239  0.50066  0.32860  1.0000
  H   H37       1.0  0.19151  0.90424  0.87885  1.0000
  H   H38       1.0  0.80849  0.09577  0.12115  1.0000
  C   C1        1.0  0.69264  0.36974  0.89493  1.0000
  C   C2        1.0  0.30736  0.63026  0.10507  1.0000
  C   C3        1.0  0.58395  0.23870  0.94656  1.0000
  C   C4        1.0  0.41605  0.76130  0.05344  1.0000
  C   C5        1.0  0.77968  0.44446  0.98817  1.0000
  C   C6        1.0  0.22032  0.55554  0.01183  1.0000
  C   C7        1.0  0.84044  0.81265  0.66310  1.0000
  C   C8        1.0  0.15956  0.18735  0.33690  1.0000
  C   C9        1.0  0.01690  0.78403  0.63793  1.0000
  C   C10       1.0  0.98310  0.21597  0.36207  1.0000
  C   C11       1.0  0.79309  0.97017  0.71399  1.0000
  C   C12       1.0  0.20690  0.02983  0.28601  1.0000
  C   C13       1.0  0.42598  0.19473  0.62307  1.0000
  C   C14       1.0  0.57402  0.80527  0.37692  1.0000
  C   C15       1.0  0.35064  0.08759  0.70723  1.0000
  C   C16       1.0  0.64935  0.91241  0.29277  1.0000
  C   C17       1.0  0.21493  0.13190  0.78603  1.0000
  C   C18       1.0  0.78507  0.86810  0.21397  1.0000
  C   C19       1.0  0.15716  0.28275  0.77194  1.0000
  C   C20       1.0  0.84284  0.71725  0.22806  1.0000
  C   C21       1.0  0.23824  0.38154  0.68433  1.0000
  C   C22       1.0  0.76178  0.61846  0.31566  1.0000
  C   C23       1.0  0.14271  0.02220  0.87886  1.0000
  C   C24       1.0  0.85729  0.97780  0.12114  1.0000
  S   S1        1.0  0.74104  0.43406  0.58718  1.0000
  S   S2        1.0  0.25896  0.56594  0.41282  1.0000
  S   S3        1.0  0.45831  0.68561  0.66825  1.0000
  S   S4        1.0  0.54169  0.31439  0.33175  1.0000
  N   N1        1.0  0.37234  0.34025  0.61214  1.0000
  N   N2        1.0  0.62766  0.65975  0.38786  1.0000
  N   N3        1.0  0.02496  0.06088  0.96009  1.0000
  N   N4        1.0  0.97503  0.93912  0.03991  1.0000
  O   O1        1.0  0.59187  0.48787  0.84539  1.0000
  O   O2        1.0  0.40813  0.51213  0.15462  1.0000
  O   O3        1.0  0.77281  0.69557  0.75479  1.0000
  O   O4        1.0  0.22719  0.30443  0.24521  1.0000
