data_image0
_chemical_formula_structural       Cd2H32C44N12O8
_chemical_formula_sum              "Cd2 H32 C44 N12 O8"
_cell_length_a       8.04704
_cell_length_b       10.4489
_cell_length_c       13.7729
_cell_angle_alpha    68.2807
_cell_angle_beta     74.0407
_cell_angle_gamma    70.8536

_space_group_name_H-M_alt    "P 1"
_space_group_IT_number       1

loop_
  _space_group_symop_operation_xyz
  'x, y, z'

loop_
  _atom_site_type_symbol
  _atom_site_label
  _atom_site_symmetry_multiplicity
  _atom_site_fract_x
  _atom_site_fract_y
  _atom_site_fract_z
  _atom_site_occupancy
  Cd  Cd1       1.0  0.73987  0.03592  0.44889  1.0000
  Cd  Cd2       1.0  0.26014  0.96408  0.55112  1.0000
  H   H1        1.0  0.70625  0.70155  0.17236  1.0000
  H   H2        1.0  0.29374  0.29846  0.82764  1.0000
  H   H3        1.0  0.78462  0.06720  0.21101  1.0000
  H   H4        1.0  0.21537  0.93280  0.78899  1.0000
  H   H5        1.0  0.89483  0.78853  0.00630  1.0000
  H   H6        1.0  0.10517  0.21147  0.99370  1.0000
  H   H7        1.0  0.87901  0.91193  0.81654  1.0000
  H   H8        1.0  0.12098  0.08807  0.18346  1.0000
  H   H9        1.0  0.56941  0.29745  0.89041  1.0000
  H   H10       1.0  0.43060  0.70255  0.10959  1.0000
  H   H11       1.0  0.58413  0.17407  0.08029  1.0000
  H   H12       1.0  0.41587  0.82593  0.91971  1.0000
  H   H13       1.0  0.66381  0.01736  0.69256  1.0000
  H   H14       1.0  0.33619  0.98264  0.30745  1.0000
  H   H15       1.0  0.77760  0.37851  0.71709  1.0000
  H   H16       1.0  0.22241  0.62148  0.28292  1.0000
  H   H17       1.0  0.48489  0.58134  0.84342  1.0000
  H   H18       1.0  0.51511  0.41866  0.15659  1.0000
  H   H19       1.0  0.67981  0.41550  0.97604  1.0000
  H   H20       1.0  0.32020  0.58450  0.02396  1.0000
  H   H21       1.0  0.98845  0.43914  0.95141  1.0000
  H   H22       1.0  0.01155  0.56086  0.04859  1.0000
  H   H23       1.0  0.09521  0.63032  0.79734  1.0000
  H   H24       1.0  0.90480  0.36968  0.20265  1.0000
  H   H25       1.0  0.78687  0.56966  0.50944  1.0000
  H   H26       1.0  0.21313  0.43034  0.49055  1.0000
  H   H27       1.0  0.84581  0.71765  0.51823  1.0000
  H   H28       1.0  0.15419  0.28235  0.48177  1.0000
  H   H29       1.0  0.70234  0.49823  0.38235  1.0000
  H   H30       1.0  0.29766  0.50177  0.61765  1.0000
  H   H31       1.0  0.64454  0.35292  0.37172  1.0000
  H   H32       1.0  0.35546  0.64708  0.62829  1.0000
  C   C1        1.0  0.77774  0.74802  0.37881  1.0000
  C   C2        1.0  0.22226  0.25198  0.62119  1.0000
  C   C3        1.0  0.73501  0.75538  0.21819  1.0000
  C   C4        1.0  0.26498  0.24462  0.78181  1.0000
  C   C5        1.0  0.75206  0.89592  0.17017  1.0000
  C   C6        1.0  0.24794  0.10408  0.82983  1.0000
  C   C7        1.0  0.77473  0.95712  0.23891  1.0000
  C   C8        1.0  0.22527  0.04288  0.76109  1.0000
  C   C9        1.0  0.74185  0.97183  0.05761  1.0000
  C   C10       1.0  0.25815  0.02817  0.94239  1.0000
  C   C11       1.0  0.82036  0.89974  0.98147  1.0000
  C   C12       1.0  0.17964  0.10026  0.01853  1.0000
  C   C13       1.0  0.81068  0.96851  0.87472  1.0000
  C   C14       1.0  0.18931  0.03148  0.12528  1.0000
  C   C15       1.0  0.72189  0.11346  0.83958  1.0000
  C   C16       1.0  0.27811  0.88654  0.16042  1.0000
  C   C17       1.0  0.64289  0.18590  0.91551  1.0000
  C   C18       1.0  0.35711  0.81410  0.08448  1.0000
  C   C19       1.0  0.65234  0.11659  0.02254  1.0000
  C   C20       1.0  0.34766  0.88342  0.97746  1.0000
  C   C21       1.0  0.71491  0.18679  0.72620  1.0000
  C   C22       1.0  0.28509  0.81321  0.27380  1.0000
  C   C23       1.0  0.68627  0.12373  0.66053  1.0000
  C   C24       1.0  0.31373  0.87627  0.33947  1.0000
  C   C25       1.0  0.70029  0.32435  0.51550  1.0000
  C   C26       1.0  0.29971  0.67565  0.48450  1.0000
  C   C27       1.0  0.74402  0.32312  0.67422  1.0000
  C   C28       1.0  0.25599  0.67688  0.32578  1.0000
  C   C29       1.0  0.54495  0.78958  0.67385  1.0000
  C   C30       1.0  0.45505  0.21042  0.32615  1.0000
  C   C31       1.0  0.67988  0.69533  0.74528  1.0000
  C   C32       1.0  0.32012  0.30467  0.25473  1.0000
  C   C33       1.0  0.62032  0.58928  0.83440  1.0000
  C   C34       1.0  0.37968  0.41072  0.16560  1.0000
  C   C35       1.0  0.72870  0.49767  0.90845  1.0000
  C   C36       1.0  0.27131  0.50233  0.09155  1.0000
  C   C37       1.0  0.90133  0.51094  0.89470  1.0000
  C   C38       1.0  0.09867  0.48906  0.10530  1.0000
  C   C39       1.0  0.96175  0.61689  0.80846  1.0000
  C   C40       1.0  0.03825  0.38311  0.19154  1.0000
  C   C41       1.0  0.85420  0.70922  0.73264  1.0000
  C   C42       1.0  0.14580  0.29078  0.26736  1.0000
  C   C43       1.0  0.94172  0.81451  0.64160  1.0000
  C   C44       1.0  0.05828  0.18549  0.35839  1.0000
  N   N1        1.0  0.78500  0.88748  0.34122  1.0000
  N   N2        1.0  0.21500  0.11252  0.65878  1.0000
  N   N3        1.0  0.74710  0.68209  0.31895  1.0000
  N   N4        1.0  0.25289  0.31791  0.68105  1.0000
  N   N5        1.0  0.80070  0.67312  0.47819  1.0000
  N   N6        1.0  0.19929  0.32689  0.52181  1.0000
  N   N7        1.0  0.68142  0.18768  0.55706  1.0000
  N   N8        1.0  0.31858  0.81231  0.44294  1.0000
  N   N9        1.0  0.73645  0.39125  0.57225  1.0000
  N   N10       1.0  0.26355  0.60875  0.42776  1.0000
  N   N11       1.0  0.68372  0.39643  0.41460  1.0000
  N   N12       1.0  0.31628  0.60357  0.58541  1.0000
  O   O1        1.0  0.56478  0.90781  0.60560  1.0000
  O   O2        1.0  0.43522  0.09219  0.39440  1.0000
  O   O3        1.0  0.40406  0.74913  0.68929  1.0000
  O   O4        1.0  0.59594  0.25087  0.31071  1.0000
  O   O5        1.0  0.93238  0.83126  0.54691  1.0000
  O   O6        1.0  0.06762  0.16874  0.45309  1.0000
  O   O7        1.0  0.02765  0.87572  0.66754  1.0000
  O   O8        1.0  0.97235  0.12428  0.33246  1.0000
