data_image0
_chemical_formula_structural       Cd3H36C42N8Cl6O2
_chemical_formula_sum              "Cd3 H36 C42 N8 Cl6 O2"
_cell_length_a       10.425
_cell_length_b       10.796
_cell_length_c       11.7564
_cell_angle_alpha    83.3019
_cell_angle_beta     63.9796
_cell_angle_gamma    74.3507

_space_group_name_H-M_alt    "P 1"
_space_group_IT_number       1

loop_
  _space_group_symop_operation_xyz
  'x, y, z'

loop_
  _atom_site_type_symbol
  _atom_site_label
  _atom_site_symmetry_multiplicity
  _atom_site_fract_x
  _atom_site_fract_y
  _atom_site_fract_z
  _atom_site_occupancy
  Cd  Cd1       1.0  0.00000  0.99999  1.00000  1.0000
  Cd  Cd2       1.0  0.06324  0.65314  0.98921  1.0000
  Cd  Cd3       1.0  0.93677  0.34685  0.01079  1.0000
  H   H1        1.0  0.42597  0.51712  0.24120  1.0000
  H   H2        1.0  0.57405  0.48287  0.75881  1.0000
  H   H3        1.0  0.53534  0.28651  0.17472  1.0000
  H   H4        1.0  0.46469  0.71348  0.82528  1.0000
  H   H5        1.0  0.45761  0.19840  0.03247  1.0000
  H   H6        1.0  0.54242  0.80159  0.96753  1.0000
  H   H7        1.0  0.28033  0.34774  0.95671  1.0000
  H   H8        1.0  0.71969  0.65224  0.04330  1.0000
  H   H9        1.0  0.13735  0.67848  0.44635  1.0000
  H   H10       1.0  0.86266  0.32152  0.55366  1.0000
  H   H11       1.0  0.24592  0.63001  0.60266  1.0000
  H   H12       1.0  0.75410  0.36998  0.39733  1.0000
  H   H13       1.0  0.62098  0.76811  0.33760  1.0000
  H   H14       1.0  0.37902  0.23190  0.66239  1.0000
  H   H15       1.0  0.51157  0.82022  0.18495  1.0000
  H   H16       1.0  0.48842  0.17978  0.81505  1.0000
  H   H17       1.0  0.53164  0.74775  0.59620  1.0000
  H   H18       1.0  0.46837  0.25227  0.40379  1.0000
  H   H19       1.0  0.61342  0.58992  0.53466  1.0000
  H   H20       1.0  0.38658  0.41008  0.46534  1.0000
  H   H21       1.0  0.43358  0.62561  0.66174  1.0000
  H   H22       1.0  0.56642  0.37441  0.33825  1.0000
  H   H23       1.0  0.26316  0.05714  0.17933  1.0000
  H   H24       1.0  0.73682  0.94285  0.82068  1.0000
  H   H25       1.0  0.06819  0.09198  0.23421  1.0000
  H   H26       1.0  0.93179  0.90802  0.76579  1.0000
  H   H27       1.0  0.12236  0.25980  0.27871  1.0000
  H   H28       1.0  0.87762  0.74021  0.72129  1.0000
  H   H29       1.0  0.10815  0.44383  0.39245  1.0000
  H   H30       1.0  0.89187  0.55618  0.60752  1.0000
  H   H31       1.0  0.11851  0.41369  0.60281  1.0000
  H   H32       1.0  0.88150  0.58633  0.39717  1.0000
  H   H33       1.0  0.15074  0.19385  0.69429  1.0000
  H   H34       1.0  0.84924  0.80617  0.30571  1.0000
  H   H35       1.0  0.16813  0.00618  0.57891  1.0000
  H   H36       1.0  0.83183  0.99384  0.42110  1.0000
  C   C1        1.0  0.17261  0.89577  0.20022  1.0000
  C   C2        1.0  0.82737  0.10422  0.79979  1.0000
  C   C3        1.0  0.22974  0.69003  0.15776  1.0000
  C   C4        1.0  0.77026  0.30997  0.84224  1.0000
  C   C5        1.0  0.29676  0.55205  0.13317  1.0000
  C   C6        1.0  0.70325  0.44794  0.86684  1.0000
  C   C7        1.0  0.39599  0.47639  0.17874  1.0000
  C   C8        1.0  0.60402  0.52360  0.82127  1.0000
  C   C9        1.0  0.45605  0.34741  0.14193  1.0000
  C   C10       1.0  0.54397  0.65259  0.85808  1.0000
  C   C11       1.0  0.41420  0.29875  0.06239  1.0000
  C   C12       1.0  0.58582  0.70124  0.93762  1.0000
  C   C13       1.0  0.31523  0.38114  0.02016  1.0000
  C   C14       1.0  0.68478  0.61885  0.97986  1.0000
  C   C15       1.0  0.31938  0.74917  0.30678  1.0000
  C   C16       1.0  0.68061  0.25083  0.69323  1.0000
  C   C17       1.0  0.24396  0.69630  0.42351  1.0000
  C   C18       1.0  0.75604  0.30370  0.57650  1.0000
  C   C19       1.0  0.30526  0.66967  0.51023  1.0000
  C   C20       1.0  0.69475  0.33032  0.48977  1.0000
  C   C21       1.0  0.44180  0.69420  0.48082  1.0000
  C   C22       1.0  0.55821  0.30581  0.51917  1.0000
  C   C23       1.0  0.51468  0.74830  0.36274  1.0000
  C   C24       1.0  0.48533  0.25171  0.63724  1.0000
  C   C25       1.0  0.45386  0.77693  0.27548  1.0000
  C   C26       1.0  0.54613  0.22308  0.72452  1.0000
  C   C27       1.0  0.50839  0.66255  0.57378  1.0000
  C   C28       1.0  0.49161  0.33746  0.42621  1.0000
  C   C29       1.0  0.16359  0.02375  0.24281  1.0000
  C   C30       1.0  0.83639  0.97625  0.75720  1.0000
  C   C31       1.0  0.14491  0.12116  0.42302  1.0000
  C   C32       1.0  0.85506  0.87886  0.57698  1.0000
  C   C33       1.0  0.13026  0.24366  0.36883  1.0000
  C   C34       1.0  0.86972  0.75635  0.63116  1.0000
  C   C35       1.0  0.12104  0.34837  0.43427  1.0000
  C   C36       1.0  0.87897  0.65165  0.56571  1.0000
  C   C37       1.0  0.12611  0.33200  0.55174  1.0000
  C   C38       1.0  0.87389  0.66802  0.44824  1.0000
  C   C39       1.0  0.14378  0.20839  0.60356  1.0000
  C   C40       1.0  0.85620  0.79163  0.39643  1.0000
  C   C41       1.0  0.15347  0.10295  0.53987  1.0000
  C   C42       1.0  0.84650  0.89707  0.46013  1.0000
  N   N1        1.0  0.10778  0.88009  0.13001  1.0000
  N   N2        1.0  0.89221  0.11990  0.86999  1.0000
  N   N3        1.0  0.14258  0.75342  0.10468  1.0000
  N   N4        1.0  0.85742  0.24657  0.89531  1.0000
  N   N5        1.0  0.25104  0.77740  0.22049  1.0000
  N   N6        1.0  0.74894  0.22260  0.77952  1.0000
  N   N7        1.0  0.25824  0.50460  0.05415  1.0000
  N   N8        1.0  0.74177  0.49538  0.94587  1.0000
  Cl  Cl1       1.0  0.89831  0.50605  0.17113  1.0000
  Cl  Cl2       1.0  0.10171  0.49393  0.82886  1.0000
  Cl  Cl3       1.0  0.82052  0.84327  0.06348  1.0000
  Cl  Cl4       1.0  0.17948  0.15671  0.93653  1.0000
  Cl  Cl5       1.0  0.82053  0.17214  0.18038  1.0000
  Cl  Cl6       1.0  0.17946  0.82784  0.81961  1.0000
  O   O1        1.0  0.14986  0.01261  0.36922  1.0000
  O   O2        1.0  0.85009  0.98740  0.63080  1.0000
