data_image0
_chemical_formula_structural       H32Pb2C32O14
_chemical_formula_sum              "H32 Pb2 C32 O14"
_cell_length_a       7.26894
_cell_length_b       10.5499
_cell_length_c       11.2663
_cell_angle_alpha    109.688
_cell_angle_beta     91.4192
_cell_angle_gamma    102.89

_space_group_name_H-M_alt    "P 1"
_space_group_IT_number       1

loop_
  _space_group_symop_operation_xyz
  'x, y, z'

loop_
  _atom_site_type_symbol
  _atom_site_label
  _atom_site_symmetry_multiplicity
  _atom_site_fract_x
  _atom_site_fract_y
  _atom_site_fract_z
  _atom_site_occupancy
  H   H1        1.0  0.76979  0.66158  0.10647  1.0000
  H   H2        1.0  0.23021  0.33843  0.89353  1.0000
  H   H3        1.0  0.37293  0.57723  0.98044  1.0000
  H   H4        1.0  0.62707  0.42278  0.01957  1.0000
  H   H5        1.0  0.82191  0.54504  0.72844  1.0000
  H   H6        1.0  0.17809  0.45495  0.27155  1.0000
  H   H7        1.0  0.91251  0.52972  0.86859  1.0000
  H   H8        1.0  0.08749  0.47026  0.13141  1.0000
  H   H9        1.0  0.02064  0.59992  0.57925  1.0000
  H   H10       1.0  0.97938  0.40007  0.42075  1.0000
  H   H11       1.0  0.34175  0.66553  0.51255  1.0000
  H   H12       1.0  0.65827  0.33448  0.48746  1.0000
  H   H13       1.0  0.62539  0.66587  0.63733  1.0000
  H   H14       1.0  0.37461  0.33414  0.36269  1.0000
  H   H15       1.0  0.58855  0.60620  0.83555  1.0000
  H   H16       1.0  0.41146  0.39381  0.16446  1.0000
  H   H17       1.0  0.63830  0.97439  0.15720  1.0000
  H   H18       1.0  0.36169  0.02559  0.84279  1.0000
  H   H19       1.0  0.78758  0.14423  0.21245  1.0000
  H   H20       1.0  0.21242  0.85576  0.78756  1.0000
  H   H21       1.0  0.07011  0.67706  0.03678  1.0000
  H   H22       1.0  0.92988  0.32295  0.96322  1.0000
  H   H23       1.0  0.37421  0.83739  0.03461  1.0000
  H   H24       1.0  0.62579  0.16260  0.96540  1.0000
  H   H25       1.0  0.40286  0.09437  0.11085  1.0000
  H   H26       1.0  0.59715  0.90563  0.88916  1.0000
  H   H27       1.0  0.12191  0.18402  0.18617  1.0000
  H   H28       1.0  0.87809  0.81598  0.81383  1.0000
  H   H29       1.0  0.79000  0.73786  0.39200  1.0000
  H   H30       1.0  0.21001  0.26214  0.60800  1.0000
  H   H31       1.0  0.57049  0.73562  0.37694  1.0000
  H   H32       1.0  0.42951  0.26438  0.62305  1.0000
  Pb  Pb1       1.0  0.76074  0.02239  0.60701  1.0000
  Pb  Pb2       1.0  0.23926  0.97763  0.39296  1.0000
  C   C1        1.0  0.85464  0.34269  0.70883  1.0000
  C   C2        1.0  0.14537  0.65731  0.29117  1.0000
  C   C3        1.0  0.92382  0.50180  0.76624  1.0000
  C   C4        1.0  0.07619  0.49820  0.23376  1.0000
  C   C5        1.0  0.12040  0.55701  0.73901  1.0000
  C   C6        1.0  0.87960  0.44298  0.26099  1.0000
  C   C7        1.0  0.14612  0.59786  0.63308  1.0000
  C   C8        1.0  0.85389  0.40213  0.36692  1.0000
  C   C9        1.0  0.32534  0.63543  0.59573  1.0000
  C   C10       1.0  0.67466  0.36456  0.40427  1.0000
  C   C11       1.0  0.48563  0.63739  0.66761  1.0000
  C   C12       1.0  0.51437  0.36261  0.33240  1.0000
  C   C13       1.0  0.46506  0.60356  0.77688  1.0000
  C   C14       1.0  0.53495  0.39645  0.22313  1.0000
  C   C15       1.0  0.28409  0.56280  0.81098  1.0000
  C   C16       1.0  0.71591  0.43720  0.18903  1.0000
  C   C17       1.0  0.76527  0.04316  0.34742  1.0000
  C   C18       1.0  0.23471  0.95683  0.65257  1.0000
  C   C19       1.0  0.77468  0.03782  0.21096  1.0000
  C   C20       1.0  0.22531  0.96217  0.78903  1.0000
  C   C21       1.0  0.93804  0.98349  0.15399  1.0000
  C   C22       1.0  0.06196  0.01651  0.84601  1.0000
  C   C23       1.0  0.92383  0.83943  0.10999  1.0000
  C   C24       1.0  0.07616  0.16057  0.89000  1.0000
  C   C25       1.0  0.08108  0.78823  0.06725  1.0000
  C   C26       1.0  0.91891  0.21177  0.93275  1.0000
  C   C27       1.0  0.25274  0.87922  0.06693  1.0000
  C   C28       1.0  0.74726  0.12078  0.93307  1.0000
  C   C29       1.0  0.26897  0.02220  0.10912  1.0000
  C   C30       1.0  0.73103  0.97780  0.89088  1.0000
  C   C31       1.0  0.11123  0.07255  0.15220  1.0000
  C   C32       1.0  0.88877  0.92745  0.84781  1.0000
  O   O1        1.0  0.67928  0.28836  0.70472  1.0000
  O   O2        1.0  0.32072  0.71165  0.29528  1.0000
  O   O3        1.0  0.97827  0.27306  0.67118  1.0000
  O   O4        1.0  0.02174  0.72694  0.32883  1.0000
  O   O5        1.0  0.75316  0.75393  0.11237  1.0000
  O   O6        1.0  0.24683  0.24607  0.88762  1.0000
  O   O7        1.0  0.26226  0.52420  0.91855  1.0000
  O   O8        1.0  0.73775  0.47581  0.08146  1.0000
  O   O9        1.0  0.91351  0.04260  0.41017  1.0000
  O   O10       1.0  0.08647  0.95741  0.58982  1.0000
  O   O11       1.0  0.61289  0.05132  0.39876  1.0000
  O   O12       1.0  0.38708  0.94866  0.60122  1.0000
  O   O13       1.0  0.68205  0.76086  0.43913  1.0000
  O   O14       1.0  0.31795  0.23914  0.56087  1.0000
