data_image0
_chemical_formula_structural       Ag2H24C32N10O10
_chemical_formula_sum              "Ag2 H24 C32 N10 O10"
_cell_length_a       5.03837
_cell_length_b       11.0302
_cell_length_c       14.6225
_cell_angle_alpha    81.191
_cell_angle_beta     88.8996
_cell_angle_gamma    78.5957

_space_group_name_H-M_alt    "P 1"
_space_group_IT_number       1

loop_
  _space_group_symop_operation_xyz
  'x, y, z'

loop_
  _atom_site_type_symbol
  _atom_site_label
  _atom_site_symmetry_multiplicity
  _atom_site_fract_x
  _atom_site_fract_y
  _atom_site_fract_z
  _atom_site_occupancy
  Ag  Ag1       1.0  0.13172  0.72570  0.69686  1.0000
  Ag  Ag2       1.0  0.86828  0.27429  0.30314  1.0000
  H   H1        1.0  0.50067  0.98198  0.91972  1.0000
  H   H2        1.0  0.49933  0.01802  0.08028  1.0000
  H   H3        1.0  0.97917  0.76569  0.13618  1.0000
  H   H4        1.0  0.02083  0.23431  0.86382  1.0000
  H   H5        1.0  0.44628  0.91304  0.77586  1.0000
  H   H6        1.0  0.55372  0.08696  0.22414  1.0000
  H   H7        1.0  0.99727  0.62026  0.37041  1.0000
  H   H8        1.0  0.00273  0.37974  0.62959  1.0000
  H   H9        1.0  0.21776  0.59505  0.51509  1.0000
  H   H10       1.0  0.78224  0.40495  0.48491  1.0000
  H   H11       1.0  0.99008  0.99628  0.34868  1.0000
  H   H12       1.0  0.00991  0.00373  0.65132  1.0000
  H   H13       1.0  0.63903  0.72183  0.25962  1.0000
  H   H14       1.0  0.36097  0.27817  0.74038  1.0000
  H   H15       1.0  0.21466  0.87896  0.22529  1.0000
  H   H16       1.0  0.78534  0.12104  0.77471  1.0000
  H   H17       1.0  0.19984  0.95252  0.50790  1.0000
  H   H18       1.0  0.80015  0.04748  0.49210  1.0000
  H   H19       1.0  0.62710  0.54947  0.96653  1.0000
  H   H20       1.0  0.37290  0.45053  0.03347  1.0000
  H   H21       1.0  0.69017  0.60903  0.12192  1.0000
  H   H22       1.0  0.30983  0.39097  0.87808  1.0000
  H   H23       1.0  0.85280  0.63757  0.82961  1.0000
  H   H24       1.0  0.14720  0.36242  0.17039  1.0000
  C   C1        1.0  0.04432  0.75342  0.90388  1.0000
  C   C2        1.0  0.95568  0.24657  0.09612  1.0000
  C   C3        1.0  0.24386  0.88142  0.99781  1.0000
  C   C4        1.0  0.75614  0.11858  0.00218  1.0000
  C   C5        1.0  0.94590  0.73866  0.06941  1.0000
  C   C6        1.0  0.05410  0.26134  0.93059  1.0000
  C   C7        1.0  0.33372  0.87855  0.83552  1.0000
  C   C8        1.0  0.66628  0.12145  0.16448  1.0000
  C   C9        1.0  0.07530  0.79050  0.99120  1.0000
  C   C10       1.0  0.92470  0.20951  0.00880  1.0000
  C   C11       1.0  0.65694  0.75098  0.40213  1.0000
  C   C12       1.0  0.34306  0.24902  0.59787  1.0000
  C   C13       1.0  0.65595  0.79007  0.56484  1.0000
  C   C14       1.0  0.34405  0.20992  0.43516  1.0000
  C   C15       1.0  0.01985  0.65684  0.50513  1.0000
  C   C16       1.0  0.98015  0.34316  0.49487  1.0000
  C   C17       1.0  0.53083  0.81521  0.47263  1.0000
  C   C18       1.0  0.46917  0.18479  0.52737  1.0000
  C   C19       1.0  0.17556  0.92633  0.36443  1.0000
  C   C20       1.0  0.82443  0.07367  0.63557  1.0000
  C   C21       1.0  0.54077  0.77327  0.31306  1.0000
  C   C22       1.0  0.45923  0.22673  0.68694  1.0000
  C   C23       1.0  0.30156  0.86067  0.29491  1.0000
  C   C24       1.0  0.69844  0.13933  0.70509  1.0000
  C   C25       1.0  0.28941  0.90315  0.45241  1.0000
  C   C26       1.0  0.71059  0.09685  0.54760  1.0000
  C   C27       1.0  0.75135  0.61763  0.97417  1.0000
  C   C28       1.0  0.24865  0.38237  0.02583  1.0000
  C   C29       1.0  0.78553  0.65223  0.06122  1.0000
  C   C30       1.0  0.21448  0.34777  0.93878  1.0000
  C   C31       1.0  0.87849  0.66684  0.89644  1.0000
  C   C32       1.0  0.12150  0.33316  0.10356  1.0000
  N   N1        1.0  0.36794  0.92005  0.91641  1.0000
  N   N2        1.0  0.63206  0.07995  0.08359  1.0000
  N   N3        1.0  0.17703  0.79986  0.82599  1.0000
  N   N4        1.0  0.82297  0.20014  0.17401  1.0000
  N   N5        1.0  0.64177  0.49537  0.70408  1.0000
  N   N6        1.0  0.35823  0.50463  0.29592  1.0000
  N   N7        1.0  0.89876  0.66781  0.42313  1.0000
  N   N8        1.0  0.10124  0.33219  0.57687  1.0000
  N   N9        1.0  0.91503  0.71544  0.57400  1.0000
  N   N10       1.0  0.08497  0.28456  0.42600  1.0000
  O   O1        1.0  0.27875  0.92463  0.07013  1.0000
  O   O2        1.0  0.72125  0.07536  0.92987  1.0000
  O   O3        1.0  0.55709  0.51260  0.62138  1.0000
  O   O4        1.0  0.44291  0.48740  0.37862  1.0000
  O   O5        1.0  0.49560  0.53939  0.76730  1.0000
  O   O6        1.0  0.50440  0.46061  0.23270  1.0000
  O   O7        1.0  0.88029  0.43253  0.72480  1.0000
  O   O8        1.0  0.11971  0.56747  0.27520  1.0000
  O   O9        1.0  0.54403  0.83383  0.63284  1.0000
  O   O10       1.0  0.45597  0.16617  0.36716  1.0000
