data_image0
_chemical_formula_structural       Cd2H40C32N4O12
_chemical_formula_sum              "Cd2 H40 C32 N4 O12"
_cell_length_a       8.85105
_cell_length_b       9.71894
_cell_length_c       10.0609
_cell_angle_alpha    105.033
_cell_angle_beta     90
_cell_angle_gamma    90

_space_group_name_H-M_alt    "P 1"
_space_group_IT_number       1

loop_
  _space_group_symop_operation_xyz
  'x, y, z'

loop_
  _atom_site_type_symbol
  _atom_site_label
  _atom_site_symmetry_multiplicity
  _atom_site_fract_x
  _atom_site_fract_y
  _atom_site_fract_z
  _atom_site_occupancy
  Cd  Cd1       1.0  0.50000  0.50000  0.50000  1.0000
  Cd  Cd2       1.0  0.00000  0.00000  0.00000  1.0000
  H   H1        1.0  0.37819  0.32113  0.28628  1.0000
  H   H2        1.0  0.87819  0.17887  0.21372  1.0000
  H   H3        1.0  0.62181  0.67887  0.71372  1.0000
  H   H4        1.0  0.12181  0.82113  0.78628  1.0000
  H   H5        1.0  0.54992  0.31571  0.22267  1.0000
  H   H6        1.0  0.04992  0.18428  0.27733  1.0000
  H   H7        1.0  0.45008  0.68428  0.77733  1.0000
  H   H8        1.0  0.95008  0.81572  0.72267  1.0000
  H   H9        1.0  0.78572  0.73200  0.88165  1.0000
  H   H10       1.0  0.28572  0.76800  0.61835  1.0000
  H   H11       1.0  0.21428  0.26800  0.11835  1.0000
  H   H12       1.0  0.71428  0.23200  0.38165  1.0000
  H   H13       1.0  0.69046  0.50999  0.93191  1.0000
  H   H14       1.0  0.19046  0.99001  0.56809  1.0000
  H   H15       1.0  0.30954  0.49001  0.06809  1.0000
  H   H16       1.0  0.80954  0.00999  0.43191  1.0000
  H   H17       1.0  0.79421  0.43927  0.13883  1.0000
  H   H18       1.0  0.29421  0.06073  0.36117  1.0000
  H   H19       1.0  0.20579  0.56073  0.86117  1.0000
  H   H20       1.0  0.70579  0.93927  0.63883  1.0000
  H   H21       1.0  0.06581  0.82123  0.22227  1.0000
  H   H22       1.0  0.56581  0.67877  0.27773  1.0000
  H   H23       1.0  0.93419  0.17877  0.77773  1.0000
  H   H24       1.0  0.43419  0.32123  0.72227  1.0000
  H   H25       1.0  0.13906  0.58655  0.30159  1.0000
  H   H26       1.0  0.63907  0.91345  0.19841  1.0000
  H   H27       1.0  0.86093  0.41345  0.69841  1.0000
  H   H28       1.0  0.36093  0.08655  0.80159  1.0000
  H   H29       1.0  0.98766  0.47100  0.30912  1.0000
  H   H30       1.0  0.48766  0.02900  0.19088  1.0000
  H   H31       1.0  0.01234  0.52900  0.69088  1.0000
  H   H32       1.0  0.51234  0.97100  0.80912  1.0000
  H   H33       1.0  0.06394  0.66228  0.53081  1.0000
  H   H34       1.0  0.56394  0.83772  0.96919  1.0000
  H   H35       1.0  0.93606  0.33772  0.46919  1.0000
  H   H36       1.0  0.43606  0.16228  0.03081  1.0000
  H   H37       1.0  0.97947  0.78944  0.46030  1.0000
  H   H38       1.0  0.47947  0.71056  0.03970  1.0000
  H   H39       1.0  0.02053  0.21056  0.53970  1.0000
  H   H40       1.0  0.52053  0.28944  0.96030  1.0000
  C   C1        1.0  0.82515  0.69968  0.97144  1.0000
  C   C2        1.0  0.32515  0.80033  0.52856  1.0000
  C   C3        1.0  0.17485  0.30033  0.02856  1.0000
  C   C4        1.0  0.67486  0.19967  0.47144  1.0000
  C   C5        1.0  0.77372  0.57515  0.00011  1.0000
  C   C6        1.0  0.27372  0.92485  0.49990  1.0000
  C   C7        1.0  0.22628  0.42485  0.99989  1.0000
  C   C8        1.0  0.72628  0.07515  0.50011  1.0000
  C   C9        1.0  0.83138  0.53698  0.11445  1.0000
  C   C10       1.0  0.33138  0.96302  0.38555  1.0000
  C   C11       1.0  0.16862  0.46302  0.88555  1.0000
  C   C12       1.0  0.66862  0.03698  0.61445  1.0000
  C   C13       1.0  0.94044  0.62359  0.19676  1.0000
  C   C14       1.0  0.44044  0.87640  0.30324  1.0000
  C   C15       1.0  0.05956  0.37640  0.80324  1.0000
  C   C16       1.0  0.55956  0.12360  0.69676  1.0000
  C   C17       1.0  0.98222  0.74855  0.16170  1.0000
  C   C18       1.0  0.48222  0.75145  0.33830  1.0000
  C   C19       1.0  0.01778  0.25145  0.83830  1.0000
  C   C20       1.0  0.51778  0.24855  0.66170  1.0000
  C   C21       1.0  0.01584  0.58225  0.31475  1.0000
  C   C22       1.0  0.51584  0.91775  0.18525  1.0000
  C   C23       1.0  0.98416  0.41775  0.68525  1.0000
  C   C24       1.0  0.48416  0.08225  0.81475  1.0000
  C   C25       1.0  0.97635  0.67561  0.45780  1.0000
  C   C26       1.0  0.47635  0.82440  0.04220  1.0000
  C   C27       1.0  0.02365  0.32440  0.54220  1.0000
  C   C28       1.0  0.52365  0.17560  0.95780  1.0000
  C   C29       1.0  0.82554  0.64535  0.51742  1.0000
  C   C30       1.0  0.32554  0.85465  0.98259  1.0000
  C   C31       1.0  0.17446  0.35465  0.48259  1.0000
  C   C32       1.0  0.67446  0.14535  0.01741  1.0000
  N   N1        1.0  0.92602  0.78601  0.05200  1.0000
  N   N2        1.0  0.42601  0.71398  0.44800  1.0000
  N   N3        1.0  0.07399  0.21398  0.94800  1.0000
  N   N4        1.0  0.57399  0.28602  0.55200  1.0000
  O   O1        1.0  0.46458  0.37863  0.26674  1.0000
  O   O2        1.0  0.96458  0.12137  0.23326  1.0000
  O   O3        1.0  0.53542  0.62137  0.73326  1.0000
  O   O4        1.0  0.03542  0.87863  0.76675  1.0000
  O   O5        1.0  0.74430  0.54620  0.44529  1.0000
  O   O6        1.0  0.24430  0.95380  0.05472  1.0000
  O   O7        1.0  0.25571  0.45380  0.55472  1.0000
  O   O8        1.0  0.75571  0.04620  0.94528  1.0000
  O   O9        1.0  0.79297  0.72161  0.63828  1.0000
  O   O10       1.0  0.29296  0.77839  0.86172  1.0000
  O   O11       1.0  0.20703  0.27839  0.36172  1.0000
  O   O12       1.0  0.70703  0.22161  0.13827  1.0000
