data_image0
_chemical_formula_structural       Cu2H52C48N8O10
_chemical_formula_sum              "Cu2 H52 C48 N8 O10"
_cell_length_a       6.84411
_cell_length_b       10.08
_cell_length_c       16.6301
_cell_angle_alpha    86.679
_cell_angle_beta     83.5183
_cell_angle_gamma    80.5293

_space_group_name_H-M_alt    "P 1"
_space_group_IT_number       1

loop_
  _space_group_symop_operation_xyz
  'x, y, z'

loop_
  _atom_site_type_symbol
  _atom_site_label
  _atom_site_symmetry_multiplicity
  _atom_site_fract_x
  _atom_site_fract_y
  _atom_site_fract_z
  _atom_site_occupancy
  Cu  Cu1       1.0  0.07104  0.16333  0.24670  1.0000
  Cu  Cu2       1.0  0.92897  0.83666  0.75330  1.0000
  H   H1        1.0  0.51584  0.16763  0.24368  1.0000
  H   H2        1.0  0.48417  0.83237  0.75632  1.0000
  H   H3        1.0  0.35563  0.30340  0.23788  1.0000
  H   H4        1.0  0.64437  0.69660  0.76212  1.0000
  H   H5        1.0  0.78863  0.29359  0.60694  1.0000
  H   H6        1.0  0.21137  0.70641  0.39306  1.0000
  H   H7        1.0  0.94480  0.41270  0.57306  1.0000
  H   H8        1.0  0.05520  0.58730  0.42693  1.0000
  H   H9        1.0  0.97851  0.42506  0.92092  1.0000
  H   H10       1.0  0.02149  0.57494  0.07908  1.0000
  H   H11       1.0  0.83401  0.30943  0.89199  1.0000
  H   H12       1.0  0.16599  0.69057  0.10802  1.0000
  H   H13       1.0  0.14953  0.14521  0.89255  1.0000
  H   H14       1.0  0.85046  0.85479  0.10745  1.0000
  H   H15       1.0  0.45586  0.32635  0.55637  1.0000
  H   H16       1.0  0.54414  0.67365  0.44363  1.0000
  H   H17       1.0  0.59431  0.26596  0.46452  1.0000
  H   H18       1.0  0.40570  0.73404  0.53548  1.0000
  H   H19       1.0  0.34748  0.97032  0.97734  1.0000
  H   H20       1.0  0.65251  0.02968  0.02266  1.0000
  H   H21       1.0  0.59208  0.26958  0.05031  1.0000
  H   H22       1.0  0.40792  0.73042  0.94969  1.0000
  H   H23       1.0  0.49006  0.32157  0.95684  1.0000
  H   H24       1.0  0.50994  0.67843  0.04316  1.0000
  H   H25       1.0  0.73900  0.60723  0.55984  1.0000
  H   H26       1.0  0.26100  0.39277  0.44016  1.0000
  H   H27       1.0  0.54183  0.53328  0.61328  1.0000
  H   H28       1.0  0.45818  0.46672  0.38672  1.0000
  H   H29       1.0  0.58403  0.52961  0.88347  1.0000
  H   H30       1.0  0.41597  0.47039  0.11653  1.0000
  H   H31       1.0  0.75411  0.61373  0.92566  1.0000
  H   H32       1.0  0.24589  0.38627  0.07434  1.0000
  H   H33       1.0  0.12817  0.13719  0.59660  1.0000
  H   H34       1.0  0.87183  0.86281  0.40340  1.0000
  H   H35       1.0  0.48904  0.92004  0.24666  1.0000
  H   H36       1.0  0.51096  0.07996  0.75333  1.0000
  H   H37       1.0  0.29208  0.98398  0.12883  1.0000
  H   H38       1.0  0.70792  0.01602  0.87117  1.0000
  H   H39       1.0  0.62190  0.48760  0.23607  1.0000
  H   H40       1.0  0.37810  0.51240  0.76393  1.0000
  H   H41       1.0  0.34795  0.97229  0.50587  1.0000
  H   H42       1.0  0.65206  0.02771  0.49413  1.0000
  H   H43       1.0  0.37832  0.69826  0.23224  1.0000
  H   H44       1.0  0.62168  0.30174  0.76775  1.0000
  H   H45       1.0  0.86909  0.32285  0.38554  1.0000
  H   H46       1.0  0.13092  0.67715  0.61446  1.0000
  H   H47       1.0  0.31805  0.99372  0.35652  1.0000
  H   H48       1.0  0.68195  0.00628  0.64348  1.0000
  H   H49       1.0  0.86137  0.32245  0.11373  1.0000
  H   H50       1.0  0.13863  0.67755  0.88627  1.0000
  H   H51       1.0  0.08532  0.71488  0.26635  1.0000
  H   H52       1.0  0.91468  0.28512  0.73365  1.0000
  C   C1        1.0  0.84994  0.34654  0.55156  1.0000
  C   C2        1.0  0.15007  0.65346  0.44844  1.0000
  C   C3        1.0  0.87483  0.35611  0.94556  1.0000
  C   C4        1.0  0.12517  0.64389  0.05444  1.0000
  C   C5        1.0  0.12837  0.14715  0.95843  1.0000
  C   C6        1.0  0.87162  0.85285  0.04157  1.0000
  C   C7        1.0  0.53307  0.35757  0.49754  1.0000
  C   C8        1.0  0.46693  0.64243  0.50246  1.0000
  C   C9        1.0  0.23938  0.05055  0.00524  1.0000
  C   C10       1.0  0.76062  0.94945  0.99475  1.0000
  C   C11       1.0  0.54100  0.35782  0.01169  1.0000
  C   C12       1.0  0.45899  0.64218  0.98831  1.0000
  C   C13       1.0  0.98848  0.24763  0.99615  1.0000
  C   C14       1.0  0.01152  0.75237  0.00385  1.0000
  C   C15       1.0  0.61525  0.55409  0.55195  1.0000
  C   C16       1.0  0.38475  0.44591  0.44805  1.0000
  C   C17       1.0  0.63182  0.55587  0.94129  1.0000
  C   C18       1.0  0.36818  0.44414  0.05872  1.0000
  C   C19       1.0  0.11848  0.14362  0.53159  1.0000
  C   C20       1.0  0.88152  0.85638  0.46841  1.0000
  C   C21       1.0  0.98086  0.24397  0.49837  1.0000
  C   C22       1.0  0.01915  0.75603  0.50163  1.0000
  C   C23       1.0  0.59368  0.82623  0.24881  1.0000
  C   C24       1.0  0.40632  0.17376  0.75119  1.0000
  C   C25       1.0  0.20945  0.05686  0.08916  1.0000
  C   C26       1.0  0.79055  0.94314  0.91084  1.0000
  C   C27       1.0  0.86932  0.58763  0.25202  1.0000
  C   C28       1.0  0.13068  0.41237  0.74798  1.0000
  C   C29       1.0  0.66929  0.58409  0.24224  1.0000
  C   C30       1.0  0.33071  0.41591  0.75776  1.0000
  C   C31       1.0  0.24186  0.05249  0.48122  1.0000
  C   C32       1.0  0.75814  0.94751  0.51878  1.0000
  C   C33       1.0  0.53265  0.70301  0.24038  1.0000
  C   C34       1.0  0.46735  0.29699  0.75962  1.0000
  C   C35       1.0  0.97319  0.24710  0.41477  1.0000
  C   C36       1.0  0.02681  0.75290  0.58523  1.0000
  C   C37       1.0  0.86015  0.96433  0.26422  1.0000
  C   C38       1.0  0.13985  0.03567  0.73578  1.0000
  C   C39       1.0  0.79353  0.83110  0.25829  1.0000
  C   C40       1.0  0.20647  0.16890  0.74171  1.0000
  C   C41       1.0  0.22552  0.06300  0.39839  1.0000
  C   C42       1.0  0.77448  0.93700  0.60161  1.0000
  C   C43       1.0  0.96629  0.24620  0.08073  1.0000
  C   C44       1.0  0.03371  0.75380  0.91927  1.0000
  C   C45       1.0  0.93006  0.71155  0.25959  1.0000
  C   C46       1.0  0.06994  0.28845  0.74041  1.0000
  C   C47       1.0  0.01886  0.45975  0.25250  1.0000
  C   C48       1.0  0.98114  0.54025  0.74750  1.0000
  N   N1        1.0  0.70381  0.43496  0.98930  1.0000
  N   N2        1.0  0.29619  0.56504  0.01070  1.0000
  N   N3        1.0  0.69517  0.42975  0.51024  1.0000
  N   N4        1.0  0.30483  0.57025  0.48976  1.0000
  N   N5        1.0  0.07555  0.15343  0.12583  1.0000
  N   N6        1.0  0.92445  0.84657  0.87417  1.0000
  N   N7        1.0  0.09280  0.15884  0.36611  1.0000
  N   N8        1.0  0.90720  0.84115  0.63389  1.0000
  O   O1        1.0  0.73363  0.06865  0.27708  1.0000
  O   O2        1.0  0.26637  0.93135  0.72292  1.0000
  O   O3        1.0  0.94349  0.35329  0.24254  1.0000
  O   O4        1.0  0.05650  0.64671  0.75747  1.0000
  O   O5        1.0  0.19761  0.46343  0.26171  1.0000
  O   O6        1.0  0.80238  0.53657  0.73830  1.0000
  O   O7        1.0  0.05078  0.96404  0.25497  1.0000
  O   O8        1.0  0.94921  0.03596  0.74503  1.0000
  O   O9        1.0  0.39983  0.21208  0.21655  1.0000
  O   O10       1.0  0.60017  0.78792  0.78345  1.0000
