data_image0
_chemical_formula_structural       Zn2H28C28N12O8
_chemical_formula_sum              "Zn2 H28 C28 N12 O8"
_cell_length_a       7.89386
_cell_length_b       10.0932
_cell_length_c       10.5507
_cell_angle_alpha    79.491
_cell_angle_beta     72.4833
_cell_angle_gamma    84.483

_space_group_name_H-M_alt    "P 1"
_space_group_IT_number       1

loop_
  _space_group_symop_operation_xyz
  'x, y, z'

loop_
  _atom_site_type_symbol
  _atom_site_label
  _atom_site_symmetry_multiplicity
  _atom_site_fract_x
  _atom_site_fract_y
  _atom_site_fract_z
  _atom_site_occupancy
  Zn  Zn1       1.0  0.47369  0.51662  0.13941  1.0000
  Zn  Zn2       1.0  0.52632  0.48339  0.86058  1.0000
  H   H1        1.0  0.26451  0.67449  0.59925  1.0000
  H   H2        1.0  0.73548  0.32549  0.40076  1.0000
  H   H3        1.0  0.93035  0.37625  0.11628  1.0000
  H   H4        1.0  0.06965  0.62376  0.88372  1.0000
  H   H5        1.0  0.03161  0.24023  0.20200  1.0000
  H   H6        1.0  0.96839  0.75978  0.79800  1.0000
  H   H7        1.0  0.09715  0.11526  0.01292  1.0000
  H   H8        1.0  0.90286  0.88475  0.98709  1.0000
  H   H9        1.0  0.03278  0.25544  0.90847  1.0000
  H   H10       1.0  0.96723  0.74456  0.09154  1.0000
  H   H11       1.0  0.80039  0.08231  0.99817  1.0000
  H   H12       1.0  0.19961  0.91770  0.00184  1.0000
  H   H13       1.0  0.78028  0.10496  0.16626  1.0000
  H   H14       1.0  0.21972  0.89506  0.83375  1.0000
  H   H15       1.0  0.28342  0.26384  0.33296  1.0000
  H   H16       1.0  0.71659  0.73616  0.66702  1.0000
  H   H17       1.0  0.06216  0.14151  0.53001  1.0000
  H   H18       1.0  0.93784  0.85848  0.46996  1.0000
  H   H19       1.0  0.92200  0.24589  0.73532  1.0000
  H   H20       1.0  0.07800  0.75408  0.26466  1.0000
  H   H21       1.0  0.00760  0.46943  0.75448  1.0000
  H   H22       1.0  0.99239  0.53055  0.24551  1.0000
  H   H23       1.0  0.56494  0.77146  0.42113  1.0000
  H   H24       1.0  0.43505  0.22854  0.57888  1.0000
  H   H25       1.0  0.62217  0.71541  0.26192  1.0000
  H   H26       1.0  0.37783  0.28459  0.73809  1.0000
  H   H27       1.0  0.54964  0.88908  0.07509  1.0000
  H   H28       1.0  0.45036  0.11093  0.92492  1.0000
  C   C1        1.0  0.21019  0.36769  0.04748  1.0000
  C   C2        1.0  0.78981  0.63232  0.95252  1.0000
  C   C3        1.0  0.03642  0.29609  0.10129  1.0000
  C   C4        1.0  0.96359  0.70392  0.89871  1.0000
  C   C5        1.0  0.00391  0.20340  0.01293  1.0000
  C   C6        1.0  0.99609  0.79661  0.98708  1.0000
  C   C7        1.0  0.81244  0.15470  0.06063  1.0000
  C   C8        1.0  0.18757  0.84531  0.93937  1.0000
  C   C9        1.0  0.68242  0.27339  0.04615  1.0000
  C   C10       1.0  0.31758  0.72662  0.95385  1.0000
  C   C11       1.0  0.27244  0.43469  0.43458  1.0000
  C   C12       1.0  0.72756  0.56531  0.56541  1.0000
  C   C13       1.0  0.22622  0.30738  0.42434  1.0000
  C   C14       1.0  0.77378  0.69262  0.57565  1.0000
  C   C15       1.0  0.10196  0.24031  0.53518  1.0000
  C   C16       1.0  0.89804  0.75968  0.46480  1.0000
  C   C17       1.0  0.02403  0.29864  0.65230  1.0000
  C   C18       1.0  0.97597  0.70134  0.34768  1.0000
  C   C19       1.0  0.07163  0.42385  0.66511  1.0000
  C   C20       1.0  0.92837  0.57613  0.33488  1.0000
  C   C21       1.0  0.19961  0.48941  0.55501  1.0000
  C   C22       1.0  0.80038  0.51058  0.44498  1.0000
  C   C23       1.0  0.39297  0.62851  0.40393  1.0000
  C   C24       1.0  0.60702  0.37149  0.59608  1.0000
  C   C25       1.0  0.51118  0.74469  0.34491  1.0000
  C   C26       1.0  0.48881  0.25531  0.65510  1.0000
  C   C27       1.0  0.45047  0.92391  0.16015  1.0000
  C   C28       1.0  0.54953  0.07610  0.83985  1.0000
  N   N1        1.0  0.38976  0.52529  0.34189  1.0000
  N   N2        1.0  0.61024  0.47471  0.65810  1.0000
  N   N3        1.0  0.28095  0.61087  0.53171  1.0000
  N   N4        1.0  0.71903  0.38912  0.46830  1.0000
  N   N5        1.0  0.42200  0.86446  0.28924  1.0000
  N   N6        1.0  0.57800  0.13554  0.71077  1.0000
  N   N7        1.0  0.28720  0.93333  0.36777  1.0000
  N   N8        1.0  0.71280  0.06667  0.63224  1.0000
  N   N9        1.0  0.23687  0.03155  0.28653  1.0000
  N   N10       1.0  0.76313  0.96845  0.71348  1.0000
  N   N11       1.0  0.33665  0.02918  0.15618  1.0000
  N   N12       1.0  0.66335  0.97083  0.84383  1.0000
  O   O1        1.0  0.25718  0.41856  0.13263  1.0000
  O   O2        1.0  0.74282  0.58145  0.86737  1.0000
  O   O3        1.0  0.29458  0.37756  0.92233  1.0000
  O   O4        1.0  0.70544  0.62244  0.07768  1.0000
  O   O5        1.0  0.65368  0.30675  0.93178  1.0000
  O   O6        1.0  0.34634  0.69326  0.06821  1.0000
  O   O7        1.0  0.61853  0.33531  0.14680  1.0000
  O   O8        1.0  0.38146  0.66470  0.85320  1.0000
