data_image0
_chemical_formula_structural       Ca2H36C20Br4N4O8
_chemical_formula_sum              "Ca2 H36 C20 Br4 N4 O8"
_cell_length_a       7.66615
_cell_length_b       9.85258
_cell_length_c       10.9631
_cell_angle_alpha    95.078
_cell_angle_beta     110.458
_cell_angle_gamma    90.0159

_space_group_name_H-M_alt    "P 1"
_space_group_IT_number       1

loop_
  _space_group_symop_operation_xyz
  'x, y, z'

loop_
  _atom_site_type_symbol
  _atom_site_label
  _atom_site_symmetry_multiplicity
  _atom_site_fract_x
  _atom_site_fract_y
  _atom_site_fract_z
  _atom_site_occupancy
  Ca  Ca1       1.0  0.31528  0.24454  0.48689  1.0000
  Ca  Ca2       1.0  0.82814  0.75546  0.51326  1.0000
  H   H1        1.0  0.35880  0.88151  0.87568  1.0000
  H   H2        1.0  0.48362  0.11843  0.12474  1.0000
  H   H3        1.0  0.59521  0.83141  0.91304  1.0000
  H   H4        1.0  0.68255  0.16842  0.08712  1.0000
  H   H5        1.0  0.53126  0.60983  0.63458  1.0000
  H   H6        1.0  0.89722  0.39044  0.36557  1.0000
  H   H7        1.0  0.47104  0.65247  0.00135  1.0000
  H   H8        1.0  0.47005  0.34729  0.99876  1.0000
  H   H9        1.0  0.25288  0.64533  0.86858  1.0000
  H   H10       1.0  0.38493  0.35457  0.13165  1.0000
  H   H11       1.0  0.42541  0.45697  0.79793  1.0000
  H   H12       1.0  0.62808  0.54297  0.20195  1.0000
  H   H13       1.0  0.63370  0.56035  0.85510  1.0000
  H   H14       1.0  0.77914  0.43952  0.14480  1.0000
  H   H15       1.0  0.51710  0.82975  0.69284  1.0000
  H   H16       1.0  0.82489  0.17034  0.30738  1.0000
  H   H17       1.0  0.28760  0.80607  0.66125  1.0000
  H   H18       1.0  0.62705  0.19410  0.33904  1.0000
  H   H19       1.0  0.17849  0.82657  0.42478  1.0000
  H   H20       1.0  0.75366  0.17330  0.57503  1.0000
  H   H21       1.0  0.27182  0.88075  0.11434  1.0000
  H   H22       1.0  0.15733  0.11952  0.88555  1.0000
  H   H23       1.0  0.02231  0.87011  0.03983  1.0000
  H   H24       1.0  0.98235  0.13008  0.96008  1.0000
  H   H25       1.0  0.00943  0.65714  0.13977  1.0000
  H   H26       1.0  0.86933  0.34293  0.85982  1.0000
  H   H27       1.0  0.19674  0.63150  0.08144  1.0000
  H   H28       1.0  0.11500  0.36874  0.91826  1.0000
  H   H29       1.0  0.42730  0.69331  0.29576  1.0000
  H   H30       1.0  0.13156  0.30658  0.70407  1.0000
  H   H31       1.0  0.25554  0.61407  0.34206  1.0000
  H   H32       1.0  0.91359  0.38587  0.65758  1.0000
  H   H33       1.0  0.99242  0.90391  0.24549  1.0000
  H   H34       1.0  0.74685  0.09612  0.75443  1.0000
  H   H35       1.0  0.16612  0.01768  0.25990  1.0000
  H   H36       1.0  0.90612  0.98238  0.74007  1.0000
  C   C1        1.0  0.23686  0.57519  0.58183  1.0000
  C   C2        1.0  0.65525  0.42480  0.41810  1.0000
  C   C3        1.0  0.44870  0.79990  0.86161  1.0000
  C   C4        1.0  0.58763  0.20001  0.13865  1.0000
  C   C5        1.0  0.42689  0.62568  0.68172  1.0000
  C   C6        1.0  0.74573  0.37444  0.31834  1.0000
  C   C7        1.0  0.40453  0.66054  0.89609  1.0000
  C   C8        1.0  0.50899  0.33933  0.10406  1.0000
  C   C9        1.0  0.48099  0.56208  0.81225  1.0000
  C   C10       1.0  0.66932  0.43786  0.18772  1.0000
  C   C11       1.0  0.43235  0.92266  0.43595  1.0000
  C   C12       1.0  0.99647  0.07720  0.56412  1.0000
  C   C13       1.0  0.25422  0.83831  0.35754  1.0000
  C   C14       1.0  0.89657  0.16164  0.64232  1.0000
  C   C15       1.0  0.14171  0.84467  0.12364  1.0000
  C   C16       1.0  0.01790  0.15550  0.87624  1.0000
  C   C17       1.0  0.14912  0.69524  0.14984  1.0000
  C   C18       1.0  0.99902  0.30489  0.84989  1.0000
  C   C19       1.0  0.28286  0.69863  0.29216  1.0000
  C   C20       1.0  0.99066  0.30134  0.70759  1.0000
  Br  Br1       1.0  0.47231  0.15759  0.75577  1.0000
  Br  Br2       1.0  0.71611  0.84274  0.24441  1.0000
  Br  Br3       1.0  0.10583  0.24822  0.21080  1.0000
  Br  Br4       1.0  0.89391  0.75170  0.78930  1.0000
  N   N1        1.0  0.41960  0.77709  0.71771  1.0000
  N   N2        1.0  0.70256  0.22298  0.28249  1.0000
  N   N3        1.0  0.13048  0.91367  0.24772  1.0000
  N   N4        1.0  0.88267  0.08636  0.75222  1.0000
  O   O1        1.0  0.21858  0.45046  0.54211  1.0000
  O   O2        1.0  0.67604  0.54958  0.45759  1.0000
  O   O3        1.0  0.11311  0.66308  0.54457  1.0000
  O   O4        1.0  0.56912  0.33670  0.45546  1.0000
  O   O5        1.0  0.43835  0.04754  0.41867  1.0000
  O   O6        1.0  0.01971  0.95238  0.58162  1.0000
  O   O7        1.0  0.55982  0.86087  0.51740  1.0000
  O   O8        1.0  0.04282  0.13884  0.48270  1.0000
