data_image0
_chemical_formula_structural       Zn2H28C36N8O8
_chemical_formula_sum              "Zn2 H28 C36 N8 O8"
_cell_length_a       9.19526
_cell_length_b       10.5329
_cell_length_c       11.1286
_cell_angle_alpha    104.993
_cell_angle_beta     108.587
_cell_angle_gamma    109.395

_space_group_name_H-M_alt    "P 1"
_space_group_IT_number       1

loop_
  _space_group_symop_operation_xyz
  'x, y, z'

loop_
  _atom_site_type_symbol
  _atom_site_label
  _atom_site_symmetry_multiplicity
  _atom_site_fract_x
  _atom_site_fract_y
  _atom_site_fract_z
  _atom_site_occupancy
  Zn  Zn1       1.0  0.27193  0.53581  0.21640  1.0000
  Zn  Zn2       1.0  0.72806  0.46419  0.78360  1.0000
  H   H1        1.0  0.93038  0.52333  0.13933  1.0000
  H   H2        1.0  0.06962  0.47667  0.86066  1.0000
  H   H3        1.0  0.79810  0.67695  0.21776  1.0000
  H   H4        1.0  0.20190  0.32305  0.78225  1.0000
  H   H5        1.0  0.29709  0.97700  0.56806  1.0000
  H   H6        1.0  0.70291  0.02301  0.43194  1.0000
  H   H7        1.0  0.41036  0.81695  0.47182  1.0000
  H   H8        1.0  0.58964  0.18305  0.52817  1.0000
  H   H9        1.0  0.81880  0.88952  0.38163  1.0000
  H   H10       1.0  0.18120  0.11048  0.61838  1.0000
  H   H11       1.0  0.05928  0.63824  0.63027  1.0000
  H   H12       1.0  0.94072  0.36176  0.36973  1.0000
  H   H13       1.0  0.67564  0.30469  0.30726  1.0000
  H   H14       1.0  0.32436  0.69530  0.69274  1.0000
  H   H15       1.0  0.39697  0.30988  0.19666  1.0000
  H   H16       1.0  0.60303  0.69012  0.80334  1.0000
  H   H17       1.0  0.58145  0.73187  0.49055  1.0000
  H   H18       1.0  0.41855  0.26812  0.50945  1.0000
  H   H19       1.0  0.86175  0.74385  0.61419  1.0000
  H   H20       1.0  0.13825  0.25615  0.38581  1.0000
  H   H21       1.0  0.86787  0.03093  0.02863  1.0000
  H   H22       1.0  0.13213  0.96907  0.97137  1.0000
  H   H23       1.0  0.77132  0.14198  0.98138  1.0000
  H   H24       1.0  0.22868  0.85803  0.01862  1.0000
  H   H25       1.0  0.61911  0.76382  0.03932  1.0000
  H   H26       1.0  0.38090  0.23618  0.96068  1.0000
  H   H27       1.0  0.42265  0.76803  0.95407  1.0000
  H   H28       1.0  0.57736  0.23197  0.04594  1.0000
  C   C1        1.0  0.00738  0.62509  0.23338  1.0000
  C   C2        1.0  0.99262  0.37491  0.76662  1.0000
  C   C3        1.0  0.93413  0.71153  0.27886  1.0000
  C   C4        1.0  0.06587  0.28848  0.72114  1.0000
  C   C5        1.0  0.03492  0.84230  0.40073  1.0000
  C   C6        1.0  0.96508  0.15769  0.59927  1.0000
  C   C7        1.0  0.20962  0.87791  0.47273  1.0000
  C   C8        1.0  0.79039  0.12209  0.52727  1.0000
  C   C9        1.0  0.27433  0.78772  0.41983  1.0000
  C   C10       1.0  0.72567  0.21228  0.58017  1.0000
  C   C11       1.0  0.95712  0.93389  0.44491  1.0000
  C   C12       1.0  0.04289  0.06611  0.55510  1.0000
  C   C13       1.0  0.97152  0.54431  0.53039  1.0000
  C   C14       1.0  0.02848  0.45568  0.46961  1.0000
  C   C15       1.0  0.79810  0.52808  0.46805  1.0000
  C   C16       1.0  0.20190  0.47192  0.53195  1.0000
  C   C17       1.0  0.66113  0.40243  0.35111  1.0000
  C   C18       1.0  0.33887  0.59756  0.64888  1.0000
  C   C19       1.0  0.50521  0.40330  0.28891  1.0000
  C   C20       1.0  0.49479  0.59670  0.71109  1.0000
  C   C21       1.0  0.60494  0.63851  0.45258  1.0000
  C   C22       1.0  0.39506  0.36149  0.54741  1.0000
  C   C23       1.0  0.76364  0.64490  0.52182  1.0000
  C   C24       1.0  0.23636  0.35510  0.47818  1.0000
  C   C25       1.0  0.04332  0.22818  0.03150  1.0000
  C   C26       1.0  0.95668  0.77182  0.96850  1.0000
  C   C27       1.0  0.86154  0.09934  0.96870  1.0000
  C   C28       1.0  0.13846  0.90066  0.03130  1.0000
  C   C29       1.0  0.79739  0.00562  0.82455  1.0000
  C   C30       1.0  0.20260  0.99438  0.17545  1.0000
  C   C31       1.0  0.45535  0.73050  0.14326  1.0000
  C   C32       1.0  0.54465  0.26950  0.85674  1.0000
  C   C33       1.0  0.52625  0.80204  0.05671  1.0000
  C   C34       1.0  0.47376  0.19796  0.94330  1.0000
  C   C35       1.0  0.61299  0.96145  0.12694  1.0000
  C   C36       1.0  0.38701  0.03856  0.87306  1.0000
  N   N1        1.0  0.17615  0.66276  0.30190  1.0000
  N   N2        1.0  0.82385  0.33724  0.69810  1.0000
  N   N3        1.0  0.47790  0.52120  0.33623  1.0000
  N   N4        1.0  0.52210  0.47880  0.66377  1.0000
  N   N5        1.0  0.74285  0.92940  0.70807  1.0000
  N   N6        1.0  0.25715  0.07060  0.29193  1.0000
  N   N7        1.0  0.68038  0.08958  0.18365  1.0000
  N   N8        1.0  0.31962  0.91042  0.81635  1.0000
  O   O1        1.0  0.06022  0.34677  0.11754  1.0000
  O   O2        1.0  0.93978  0.65323  0.88246  1.0000
  O   O3        1.0  0.15513  0.20829  0.00059  1.0000
  O   O4        1.0  0.84487  0.79171  0.99940  1.0000
  O   O5        1.0  0.33073  0.59886  0.07374  1.0000
  O   O6        1.0  0.66927  0.40114  0.92626  1.0000
  O   O7        1.0  0.52178  0.80004  0.27187  1.0000
  O   O8        1.0  0.47822  0.19996  0.72813  1.0000
