data_image0
_chemical_formula_structural       Cd2H28C36N8O8
_chemical_formula_sum              "Cd2 H28 C36 N8 O8"
_cell_length_a       7.92559
_cell_length_b       10.6667
_cell_length_c       11.5566
_cell_angle_alpha    71.0417
_cell_angle_beta     82.2013
_cell_angle_gamma    69.1906

_space_group_name_H-M_alt    "P 1"
_space_group_IT_number       1

loop_
  _space_group_symop_operation_xyz
  'x, y, z'

loop_
  _atom_site_type_symbol
  _atom_site_label
  _atom_site_symmetry_multiplicity
  _atom_site_fract_x
  _atom_site_fract_y
  _atom_site_fract_z
  _atom_site_occupancy
  Cd  Cd1       1.0  0.19083  0.45118  0.37390  1.0000
  Cd  Cd2       1.0  0.80917  0.54882  0.62610  1.0000
  H   H1        1.0  0.29108  0.12557  0.49285  1.0000
  H   H2        1.0  0.70892  0.87443  0.50715  1.0000
  H   H3        1.0  0.47054  0.92740  0.66290  1.0000
  H   H4        1.0  0.52946  0.07260  0.33710  1.0000
  H   H5        1.0  0.55857  0.23910  0.78920  1.0000
  H   H6        1.0  0.44144  0.76090  0.21080  1.0000
  H   H7        1.0  0.38107  0.42052  0.61648  1.0000
  H   H8        1.0  0.61893  0.57948  0.38352  1.0000
  H   H9        1.0  0.64830  0.84309  0.83432  1.0000
  H   H10       1.0  0.35171  0.15691  0.16568  1.0000
  H   H11       1.0  0.70794  0.06538  0.92743  1.0000
  H   H12       1.0  0.29206  0.93462  0.07257  1.0000
  H   H13       1.0  0.86234  0.98531  0.11156  1.0000
  H   H14       1.0  0.13766  0.01469  0.88844  1.0000
  H   H15       1.0  0.03445  0.79031  0.28361  1.0000
  H   H16       1.0  0.96555  0.20969  0.71638  1.0000
  H   H17       1.0  0.99641  0.48893  0.14554  1.0000
  H   H18       1.0  0.00359  0.51107  0.85445  1.0000
  H   H19       1.0  0.81945  0.67142  0.96642  1.0000
  H   H20       1.0  0.18055  0.32858  0.03358  1.0000
  H   H21       1.0  0.65802  0.50647  0.07874  1.0000
  H   H22       1.0  0.34198  0.49353  0.92126  1.0000
  H   H23       1.0  0.78626  0.34997  0.18545  1.0000
  H   H24       1.0  0.21375  0.65003  0.81455  1.0000
  H   H25       1.0  0.80588  0.15048  0.56086  1.0000
  H   H26       1.0  0.19411  0.84952  0.43914  1.0000
  H   H27       1.0  0.66180  0.27936  0.44189  1.0000
  H   H28       1.0  0.33819  0.72064  0.55811  1.0000
  C   C1        1.0  0.35497  0.14511  0.55997  1.0000
  C   C2        1.0  0.64503  0.85489  0.44003  1.0000
  C   C3        1.0  0.45482  0.03573  0.65407  1.0000
  C   C4        1.0  0.54517  0.96427  0.34593  1.0000
  C   C5        1.0  0.53396  0.06434  0.74009  1.0000
  C   C6        1.0  0.46603  0.93565  0.25992  1.0000
  C   C7        1.0  0.50409  0.20698  0.72609  1.0000
  C   C8        1.0  0.49591  0.79302  0.27391  1.0000
  C   C9        1.0  0.40316  0.31021  0.62920  1.0000
  C   C10       1.0  0.59683  0.68979  0.37080  1.0000
  C   C11       1.0  0.63941  0.94690  0.83673  1.0000
  C   C12       1.0  0.36059  0.05310  0.16327  1.0000
  C   C13       1.0  0.72079  0.96091  0.92500  1.0000
  C   C14       1.0  0.27921  0.03909  0.07500  1.0000
  C   C15       1.0  0.82490  0.84570  0.02343  1.0000
  C   C16       1.0  0.17510  0.15430  0.97657  1.0000
  C   C17       1.0  0.88921  0.87673  0.11480  1.0000
  C   C18       1.0  0.11079  0.12327  0.88520  1.0000
  C   C19       1.0  0.98555  0.76843  0.21119  1.0000
  C   C20       1.0  0.01445  0.23157  0.78881  1.0000
  C   C21       1.0  0.96271  0.60076  0.13326  1.0000
  C   C22       1.0  0.03729  0.39924  0.86674  1.0000
  C   C23       1.0  0.86524  0.70251  0.03436  1.0000
  C   C24       1.0  0.13475  0.29749  0.96564  1.0000
  C   C25       1.0  0.49477  0.40839  0.21672  1.0000
  C   C26       1.0  0.50524  0.59161  0.78328  1.0000
  C   C27       1.0  0.66321  0.39859  0.13098  1.0000
  C   C28       1.0  0.33679  0.60141  0.86902  1.0000
  C   C29       1.0  0.67084  0.32115  0.04703  1.0000
  C   C30       1.0  0.32916  0.67885  0.95297  1.0000
  C   C31       1.0  0.91397  0.30965  0.44396  1.0000
  C   C32       1.0  0.08603  0.69035  0.55604  1.0000
  C   C33       1.0  0.80249  0.21181  0.46376  1.0000
  C   C34       1.0  0.19751  0.78819  0.53624  1.0000
  C   C35       1.0  0.86544  0.11776  0.38884  1.0000
  C   C36       1.0  0.13456  0.88224  0.61117  1.0000
  N   N1        1.0  0.33009  0.28072  0.54630  1.0000
  N   N2        1.0  0.66991  0.71928  0.45370  1.0000
  N   N3        1.0  0.02132  0.63237  0.22116  1.0000
  N   N4        1.0  0.97868  0.36763  0.77884  1.0000
  N   N5        1.0  0.66919  0.26064  0.97975  1.0000
  N   N6        1.0  0.33081  0.73937  0.02025  1.0000
  N   N7        1.0  0.91704  0.04247  0.32808  1.0000
  N   N8        1.0  0.08297  0.95753  0.67192  1.0000
  O   O1        1.0  0.37800  0.36006  0.20157  1.0000
  O   O2        1.0  0.62200  0.63994  0.79842  1.0000
  O   O3        1.0  0.48560  0.46698  0.29839  1.0000
  O   O4        1.0  0.51440  0.53302  0.70161  1.0000
  O   O5        1.0  0.87865  0.38298  0.51614  1.0000
  O   O6        1.0  0.12135  0.61702  0.48386  1.0000
  O   O7        1.0  0.03161  0.30960  0.35777  1.0000
  O   O8        1.0  0.96839  0.69040  0.64223  1.0000
