data_image0
_chemical_formula_structural       Zn2H28C36N8O8
_chemical_formula_sum              "Zn2 H28 C36 N8 O8"
_cell_length_a       7.48163
_cell_length_b       10.5188
_cell_length_c       11.7001
_cell_angle_alpha    70.3413
_cell_angle_beta     85.729
_cell_angle_gamma    72.6455

_space_group_name_H-M_alt    "P 1"
_space_group_IT_number       1

loop_
  _space_group_symop_operation_xyz
  'x, y, z'

loop_
  _atom_site_type_symbol
  _atom_site_label
  _atom_site_symmetry_multiplicity
  _atom_site_fract_x
  _atom_site_fract_y
  _atom_site_fract_z
  _atom_site_occupancy
  Zn  Zn1       1.0  0.18204  0.47227  0.37605  1.0000
  Zn  Zn2       1.0  0.81796  0.52773  0.62395  1.0000
  H   H1        1.0  0.99586  0.49318  0.14960  1.0000
  H   H2        1.0  0.00414  0.50682  0.85040  1.0000
  H   H3        1.0  0.80549  0.67554  0.96918  1.0000
  H   H4        1.0  0.19450  0.32446  0.03083  1.0000
  H   H5        1.0  0.86698  0.99127  0.11142  1.0000
  H   H6        1.0  0.13303  0.00873  0.88858  1.0000
  H   H7        1.0  0.05322  0.79623  0.28380  1.0000
  H   H8        1.0  0.94680  0.20377  0.71620  1.0000
  H   H9        1.0  0.69383  0.07158  0.93059  1.0000
  H   H10       1.0  0.30617  0.92842  0.06941  1.0000
  H   H11       1.0  0.64138  0.85147  0.82469  1.0000
  H   H12       1.0  0.35862  0.14853  0.17531  1.0000
  H   H13       1.0  0.56464  0.24631  0.78431  1.0000
  H   H14       1.0  0.43536  0.75370  0.21569  1.0000
  H   H15       1.0  0.38615  0.43378  0.61003  1.0000
  H   H16       1.0  0.61385  0.56622  0.38997  1.0000
  H   H17       1.0  0.26786  0.14937  0.47454  1.0000
  H   H18       1.0  0.73214  0.85063  0.52546  1.0000
  H   H19       1.0  0.45023  0.94476  0.64531  1.0000
  H   H20       1.0  0.54976  0.05524  0.35470  1.0000
  H   H21       1.0  0.62840  0.51694  0.08792  1.0000
  H   H22       1.0  0.37160  0.48306  0.91208  1.0000
  H   H23       1.0  0.76134  0.37021  0.20473  1.0000
  H   H24       1.0  0.23867  0.62979  0.79527  1.0000
  H   H25       1.0  0.80134  0.13926  0.55516  1.0000
  H   H26       1.0  0.19866  0.86075  0.44484  1.0000
  H   H27       1.0  0.64666  0.26423  0.43419  1.0000
  H   H28       1.0  0.35334  0.73577  0.56581  1.0000
  C   C1        1.0  0.96150  0.60528  0.13703  1.0000
  C   C2        1.0  0.03850  0.39472  0.86297  1.0000
  C   C3        1.0  0.85696  0.70730  0.03706  1.0000
  C   C4        1.0  0.14304  0.29270  0.96294  1.0000
  C   C5        1.0  0.81797  0.85108  0.02473  1.0000
  C   C6        1.0  0.18203  0.14892  0.97527  1.0000
  C   C7        1.0  0.89159  0.88221  0.11583  1.0000
  C   C8        1.0  0.10841  0.11779  0.88417  1.0000
  C   C9        1.0  0.99548  0.77371  0.21269  1.0000
  C   C10       1.0  0.00452  0.22629  0.78731  1.0000
  C   C11       1.0  0.70913  0.96740  0.92477  1.0000
  C   C12       1.0  0.29086  0.03260  0.07523  1.0000
  C   C13       1.0  0.62967  0.95530  0.83038  1.0000
  C   C14       1.0  0.37032  0.04470  0.16962  1.0000
  C   C15       1.0  0.52411  0.07548  0.73159  1.0000
  C   C16       1.0  0.47588  0.92452  0.26842  1.0000
  C   C17       1.0  0.50206  0.21735  0.71916  1.0000
  C   C18       1.0  0.49794  0.78264  0.28084  1.0000
  C   C19       1.0  0.39977  0.32448  0.62103  1.0000
  C   C20       1.0  0.60022  0.67552  0.37897  1.0000
  C   C21       1.0  0.33647  0.16543  0.54544  1.0000
  C   C22       1.0  0.66352  0.83457  0.45456  1.0000
  C   C23       1.0  0.43823  0.05228  0.64032  1.0000
  C   C24       1.0  0.56177  0.94773  0.35968  1.0000
  C   C25       1.0  0.45720  0.40745  0.21526  1.0000
  C   C26       1.0  0.54281  0.59255  0.78474  1.0000
  C   C27       1.0  0.63906  0.40686  0.14292  1.0000
  C   C28       1.0  0.36094  0.59314  0.85709  1.0000
  C   C29       1.0  0.66570  0.32230  0.06419  1.0000
  C   C30       1.0  0.33431  0.67770  0.93581  1.0000
  C   C31       1.0  0.88350  0.32660  0.45845  1.0000
  C   C32       1.0  0.11650  0.67340  0.54155  1.0000
  C   C33       1.0  0.79539  0.21085  0.46117  1.0000
  C   C34       1.0  0.20461  0.78915  0.53883  1.0000
  C   C35       1.0  0.88269  0.12931  0.38327  1.0000
  C   C36       1.0  0.11731  0.87069  0.61673  1.0000
  N   N1        1.0  0.02936  0.63659  0.22492  1.0000
  N   N2        1.0  0.97064  0.36341  0.77508  1.0000
  N   N3        1.0  0.31614  0.30092  0.53477  1.0000
  N   N4        1.0  0.68386  0.69908  0.46523  1.0000
  N   N5        1.0  0.67834  0.25575  0.00043  1.0000
  N   N6        1.0  0.32166  0.74426  0.99956  1.0000
  N   N7        1.0  0.95187  0.06146  0.32196  1.0000
  N   N8        1.0  0.04813  0.93853  0.67804  1.0000
  O   O1        1.0  0.44246  0.46333  0.29904  1.0000
  O   O2        1.0  0.55754  0.53666  0.70096  1.0000
  O   O3        1.0  0.33992  0.35769  0.18932  1.0000
  O   O4        1.0  0.66009  0.64231  0.81068  1.0000
  O   O5        1.0  0.99697  0.35759  0.37535  1.0000
  O   O6        1.0  0.00303  0.64240  0.62464  1.0000
  O   O7        1.0  0.82874  0.38043  0.54092  1.0000
  O   O8        1.0  0.17126  0.61958  0.45908  1.0000
