data_image0
_chemical_formula_structural       Zn4H32C40N24O16
_chemical_formula_sum              "Zn4 H32 C40 N24 O16"
_cell_length_a       7.57561
_cell_length_b       11.5735
_cell_length_c       14.708
_cell_angle_alpha    90.0003
_cell_angle_beta     90.0002
_cell_angle_gamma    90.0001

_space_group_name_H-M_alt    "P 1"
_space_group_IT_number       1

loop_
  _space_group_symop_operation_xyz
  'x, y, z'

loop_
  _atom_site_type_symbol
  _atom_site_label
  _atom_site_symmetry_multiplicity
  _atom_site_fract_x
  _atom_site_fract_y
  _atom_site_fract_z
  _atom_site_occupancy
  Zn  Zn1       1.0  0.50000  0.66210  0.75000  1.0000
  Zn  Zn2       1.0  0.00000  0.83791  0.25000  1.0000
  Zn  Zn3       1.0  0.49999  0.33791  0.25000  1.0000
  Zn  Zn4       1.0  0.00000  0.16209  0.75000  1.0000
  H   H1        1.0  0.12401  0.67704  0.81884  1.0000
  H   H2        1.0  0.37600  0.82297  0.31885  1.0000
  H   H3        1.0  0.62401  0.82296  0.18115  1.0000
  H   H4        1.0  0.87599  0.67704  0.68116  1.0000
  H   H5        1.0  0.87598  0.32296  0.18115  1.0000
  H   H6        1.0  0.62401  0.17704  0.68115  1.0000
  H   H7        1.0  0.37600  0.17704  0.81884  1.0000
  H   H8        1.0  0.12400  0.32295  0.31885  1.0000
  H   H9        1.0  0.94154  0.81300  0.90992  1.0000
  H   H10       1.0  0.55847  0.68700  0.40992  1.0000
  H   H11       1.0  0.44154  0.68700  0.09008  1.0000
  H   H12       1.0  0.05845  0.81300  0.59007  1.0000
  H   H13       1.0  0.05845  0.18699  0.09007  1.0000
  H   H14       1.0  0.44155  0.31301  0.59007  1.0000
  H   H15       1.0  0.55847  0.31301  0.90992  1.0000
  H   H16       1.0  0.94154  0.18699  0.40993  1.0000
  H   H17       1.0  0.40676  0.02683  0.93915  1.0000
  H   H18       1.0  0.09324  0.47317  0.43915  1.0000
  H   H19       1.0  0.90677  0.47318  0.06085  1.0000
  H   H20       1.0  0.59323  0.02683  0.56085  1.0000
  H   H21       1.0  0.59322  0.97317  0.06086  1.0000
  H   H22       1.0  0.90678  0.52683  0.56086  1.0000
  H   H23       1.0  0.09323  0.52683  0.93915  1.0000
  H   H24       1.0  0.40678  0.97317  0.43915  1.0000
  H   H25       1.0  0.57403  0.87786  0.85129  1.0000
  H   H26       1.0  0.92597  0.62215  0.35129  1.0000
  H   H27       1.0  0.07404  0.62215  0.14872  1.0000
  H   H28       1.0  0.42596  0.87785  0.64872  1.0000
  H   H29       1.0  0.42595  0.12214  0.14872  1.0000
  H   H30       1.0  0.07405  0.37785  0.64872  1.0000
  H   H31       1.0  0.92597  0.37786  0.85128  1.0000
  H   H32       1.0  0.57404  0.12214  0.35128  1.0000
  C   C1        1.0  0.18234  0.75465  0.84806  1.0000
  C   C2        1.0  0.31767  0.74536  0.34805  1.0000
  C   C3        1.0  0.68235  0.74535  0.15195  1.0000
  C   C4        1.0  0.81765  0.75465  0.65195  1.0000
  C   C5        1.0  0.81764  0.24535  0.15195  1.0000
  C   C6        1.0  0.68235  0.25465  0.65194  1.0000
  C   C7        1.0  0.31766  0.25465  0.84806  1.0000
  C   C8        1.0  0.18234  0.24535  0.34806  1.0000
  C   C9        1.0  0.08092  0.83053  0.89871  1.0000
  C   C10       1.0  0.41908  0.66947  0.39871  1.0000
  C   C11       1.0  0.58092  0.66947  0.10130  1.0000
  C   C12       1.0  0.91907  0.83053  0.60129  1.0000
  C   C13       1.0  0.91907  0.16947  0.10129  1.0000
  C   C14       1.0  0.58093  0.33053  0.60129  1.0000
  C   C15       1.0  0.41907  0.33053  0.89871  1.0000
  C   C16       1.0  0.08092  0.16947  0.39871  1.0000
  C   C17       1.0  0.16222  0.92996  0.93328  1.0000
  C   C18       1.0  0.33778  0.57004  0.43328  1.0000
  C   C19       1.0  0.66223  0.57004  0.06673  1.0000
  C   C20       1.0  0.83777  0.92996  0.56672  1.0000
  C   C21       1.0  0.83776  0.07003  0.06673  1.0000
  C   C22       1.0  0.66224  0.42996  0.56672  1.0000
  C   C23       1.0  0.33777  0.42996  0.93328  1.0000
  C   C24       1.0  0.16223  0.07004  0.43328  1.0000
  C   C25       1.0  0.34106  0.94905  0.91519  1.0000
  C   C26       1.0  0.15894  0.55095  0.41518  1.0000
  C   C27       1.0  0.84107  0.55095  0.08481  1.0000
  C   C28       1.0  0.65893  0.94904  0.58481  1.0000
  C   C29       1.0  0.65892  0.05095  0.08481  1.0000
  C   C30       1.0  0.84108  0.44904  0.58481  1.0000
  C   C31       1.0  0.15894  0.44905  0.91518  1.0000
  C   C32       1.0  0.34107  0.05095  0.41518  1.0000
  C   C33       1.0  0.43413  0.86686  0.86582  1.0000
  C   C34       1.0  0.06587  0.63315  0.36581  1.0000
  C   C35       1.0  0.93414  0.63316  0.13418  1.0000
  C   C36       1.0  0.56586  0.86685  0.63419  1.0000
  C   C37       1.0  0.56585  0.13315  0.13419  1.0000
  C   C38       1.0  0.93415  0.36685  0.63418  1.0000
  C   C39       1.0  0.06586  0.36686  0.86581  1.0000
  C   C40       1.0  0.43414  0.13315  0.36581  1.0000
  N   N1        1.0  0.21709  0.58381  0.65387  1.0000
  N   N2        1.0  0.28291  0.91620  0.15387  1.0000
  N   N3        1.0  0.71708  0.91618  0.34613  1.0000
  N   N4        1.0  0.78292  0.58380  0.84613  1.0000
  N   N5        1.0  0.78291  0.41619  0.34613  1.0000
  N   N6        1.0  0.71708  0.08380  0.84613  1.0000
  N   N7        1.0  0.28292  0.08380  0.65387  1.0000
  N   N8        1.0  0.21708  0.41618  0.15386  1.0000
  N   N9        1.0  0.35614  0.77124  0.83237  1.0000
  N   N10       1.0  0.14386  0.72876  0.33237  1.0000
  N   N11       1.0  0.85616  0.72876  0.16763  1.0000
  N   N12       1.0  0.64384  0.77124  0.66763  1.0000
  N   N13       1.0  0.64384  0.22876  0.16763  1.0000
  N   N14       1.0  0.85615  0.27124  0.66763  1.0000
  N   N15       1.0  0.14385  0.27124  0.83237  1.0000
  N   N16       1.0  0.35615  0.22876  0.33237  1.0000
  N   N17       1.0  0.07238  0.01656  0.98311  1.0000
  N   N18       1.0  0.42762  0.48344  0.48310  1.0000
  N   N19       1.0  0.57239  0.48343  0.01690  1.0000
  N   N20       1.0  0.92761  0.01656  0.51689  1.0000
  N   N21       1.0  0.92760  0.98343  0.01690  1.0000
  N   N22       1.0  0.57240  0.51657  0.51690  1.0000
  N   N23       1.0  0.42761  0.51656  0.98310  1.0000
  N   N24       1.0  0.07240  0.98343  0.48311  1.0000
  O   O1        1.0  0.31525  0.53581  0.71492  1.0000
  O   O2        1.0  0.18474  0.96420  0.21491  1.0000
  O   O3        1.0  0.81523  0.96419  0.28509  1.0000
  O   O4        1.0  0.68476  0.53581  0.78509  1.0000
  O   O5        1.0  0.68475  0.46419  0.28509  1.0000
  O   O6        1.0  0.81525  0.03580  0.78509  1.0000
  O   O7        1.0  0.18475  0.03580  0.71491  1.0000
  O   O8        1.0  0.31524  0.46419  0.21490  1.0000
  O   O9        1.0  0.26332  0.68436  0.63342  1.0000
  O   O10       1.0  0.23669  0.81563  0.13342  1.0000
  O   O11       1.0  0.76334  0.81563  0.36659  1.0000
  O   O12       1.0  0.73666  0.68438  0.86659  1.0000
  O   O13       1.0  0.73668  0.31563  0.36659  1.0000
  O   O14       1.0  0.76333  0.18438  0.86659  1.0000
  O   O15       1.0  0.23670  0.18437  0.63342  1.0000
  O   O16       1.0  0.26333  0.31563  0.13340  1.0000
