data_image0
_chemical_formula_structural       Ho8H32C64N16Cl24
_chemical_formula_sum              "Ho8 H32 C64 N16 Cl24"
_cell_length_a       10.9722
_cell_length_b       11.2227
_cell_length_c       19.0952
_cell_angle_alpha    106.79
_cell_angle_beta     90
_cell_angle_gamma    90

_space_group_name_H-M_alt    "P 1"
_space_group_IT_number       1

loop_
  _space_group_symop_operation_xyz
  'x, y, z'

loop_
  _atom_site_type_symbol
  _atom_site_label
  _atom_site_symmetry_multiplicity
  _atom_site_fract_x
  _atom_site_fract_y
  _atom_site_fract_z
  _atom_site_occupancy
  Ho  Ho1       1.0  0.67566  0.31011  0.26202  1.0000
  Ho  Ho2       1.0  0.17566  0.18989  0.73799  1.0000
  Ho  Ho3       1.0  0.32434  0.68989  0.73799  1.0000
  Ho  Ho4       1.0  0.82434  0.81011  0.26201  1.0000
  Ho  Ho5       1.0  0.01834  0.44963  0.23167  1.0000
  Ho  Ho6       1.0  0.51834  0.05037  0.76832  1.0000
  Ho  Ho7       1.0  0.98166  0.55037  0.76832  1.0000
  Ho  Ho8       1.0  0.48166  0.94963  0.23168  1.0000
  H   H1        1.0  0.36301  0.64012  0.18834  1.0000
  H   H2        1.0  0.86300  0.85988  0.81166  1.0000
  H   H3        1.0  0.63700  0.35987  0.81166  1.0000
  H   H4        1.0  0.13700  0.14012  0.18834  1.0000
  H   H5        1.0  0.28415  0.65632  0.32286  1.0000
  H   H6        1.0  0.78415  0.84368  0.67714  1.0000
  H   H7        1.0  0.71585  0.34368  0.67714  1.0000
  H   H8        1.0  0.21585  0.15632  0.32286  1.0000
  H   H9        1.0  0.20842  0.72111  0.12037  1.0000
  H   H10       1.0  0.70842  0.77889  0.87963  1.0000
  H   H11       1.0  0.79158  0.27889  0.87963  1.0000
  H   H12       1.0  0.29158  0.22111  0.12037  1.0000
  H   H13       1.0  0.17866  0.84975  0.39208  1.0000
  H   H14       1.0  0.67866  0.65025  0.60792  1.0000
  H   H15       1.0  0.82134  0.15025  0.60792  1.0000
  H   H16       1.0  0.32134  0.34975  0.39208  1.0000
  H   H17       1.0  0.26376  0.97898  0.51266  1.0000
  H   H18       1.0  0.76376  0.52102  0.48734  1.0000
  H   H19       1.0  0.73624  0.02102  0.48734  1.0000
  H   H20       1.0  0.23624  0.47898  0.51266  1.0000
  H   H21       1.0  0.56735  0.72442  0.48712  1.0000
  H   H22       1.0  0.06735  0.77558  0.51288  1.0000
  H   H23       1.0  0.43265  0.27558  0.51288  1.0000
  H   H24       1.0  0.93265  0.22442  0.48712  1.0000
  H   H25       1.0  0.14913  0.59486  0.99270  1.0000
  H   H26       1.0  0.64913  0.90514  0.00730  1.0000
  H   H27       1.0  0.85087  0.40514  0.00730  1.0000
  H   H28       1.0  0.35087  0.09486  0.99270  1.0000
  H   H29       1.0  0.41420  0.31519  0.00195  1.0000
  H   H30       1.0  0.91420  0.18481  0.99806  1.0000
  H   H31       1.0  0.58580  0.68482  0.99805  1.0000
  H   H32       1.0  0.08580  0.81519  0.00195  1.0000
  C   C1        1.0  0.48200  0.75129  0.46696  1.0000
  C   C2        1.0  0.98200  0.74871  0.53304  1.0000
  C   C3        1.0  0.51800  0.24871  0.53304  1.0000
  C   C4        1.0  0.01800  0.25129  0.46696  1.0000
  C   C5        1.0  0.48367  0.42598  0.14060  1.0000
  C   C6        1.0  0.98367  0.07402  0.85940  1.0000
  C   C7        1.0  0.51633  0.57402  0.85940  1.0000
  C   C8        1.0  0.01633  0.92598  0.14060  1.0000
  C   C9        1.0  0.27820  0.44902  0.99115  1.0000
  C   C10       1.0  0.77820  0.05098  0.00885  1.0000
  C   C11       1.0  0.72180  0.55098  0.00885  1.0000
  C   C12       1.0  0.22180  0.94902  0.99115  1.0000
  C   C13       1.0  0.46413  0.92589  0.57651  1.0000
  C   C14       1.0  0.96414  0.57411  0.42349  1.0000
  C   C15       1.0  0.53586  0.07411  0.42349  1.0000
  C   C16       1.0  0.03586  0.42589  0.57651  1.0000
  C   C17       1.0  0.24258  0.37686  0.92022  1.0000
  C   C18       1.0  0.74258  0.12314  0.07978  1.0000
  C   C19       1.0  0.75742  0.62314  0.07978  1.0000
  C   C20       1.0  0.25742  0.87686  0.92022  1.0000
  C   C21       1.0  0.32195  0.71434  0.37413  1.0000
  C   C22       1.0  0.82195  0.78566  0.62587  1.0000
  C   C23       1.0  0.67805  0.28566  0.62587  1.0000
  C   C24       1.0  0.17805  0.21434  0.37413  1.0000
  C   C25       1.0  0.41909  0.85795  0.50671  1.0000
  C   C26       1.0  0.91909  0.64205  0.49329  1.0000
  C   C27       1.0  0.58091  0.14205  0.49329  1.0000
  C   C28       1.0  0.08091  0.35795  0.50671  1.0000
  C   C29       1.0  0.49436  0.57005  0.36076  1.0000
  C   C30       1.0  0.99436  0.92995  0.63924  1.0000
  C   C31       1.0  0.50564  0.42995  0.63924  1.0000
  C   C32       1.0  0.00564  0.07005  0.36076  1.0000
  C   C33       1.0  0.39766  0.47326  0.09978  1.0000
  C   C34       1.0  0.89766  0.02674  0.90022  1.0000
  C   C35       1.0  0.60234  0.52674  0.90022  1.0000
  C   C36       1.0  0.10234  0.97326  0.09978  1.0000
  C   C37       1.0  0.33934  0.58749  0.13271  1.0000
  C   C38       1.0  0.83934  0.91251  0.86729  1.0000
  C   C39       1.0  0.66066  0.41251  0.86729  1.0000
  C   C40       1.0  0.16066  0.08749  0.13271  1.0000
  C   C41       1.0  0.43189  0.67946  0.40072  1.0000
  C   C42       1.0  0.93189  0.82054  0.59928  1.0000
  C   C43       1.0  0.56811  0.32054  0.59928  1.0000
  C   C44       1.0  0.06811  0.17946  0.40072  1.0000
  C   C45       1.0  0.36855  0.40308  0.02834  1.0000
  C   C46       1.0  0.86855  0.09692  0.97166  1.0000
  C   C47       1.0  0.63146  0.59692  0.97166  1.0000
  C   C48       1.0  0.13146  0.90308  0.02834  1.0000
  C   C49       1.0  0.30962  0.89456  0.48034  1.0000
  C   C50       1.0  0.80962  0.60544  0.51966  1.0000
  C   C51       1.0  0.69038  0.10544  0.51966  1.0000
  C   C52       1.0  0.19038  0.39456  0.48034  1.0000
  C   C53       1.0  0.21975  0.56342  0.02347  1.0000
  C   C54       1.0  0.71974  0.93658  0.97653  1.0000
  C   C55       1.0  0.78026  0.43658  0.97653  1.0000
  C   C56       1.0  0.28026  0.06342  0.02347  1.0000
  C   C57       1.0  0.25197  0.63230  0.09399  1.0000
  C   C58       1.0  0.75196  0.86770  0.90601  1.0000
  C   C59       1.0  0.74803  0.36770  0.90601  1.0000
  C   C60       1.0  0.24804  0.13230  0.09399  1.0000
  C   C61       1.0  0.26234  0.82228  0.41397  1.0000
  C   C62       1.0  0.76234  0.67772  0.58603  1.0000
  C   C63       1.0  0.73766  0.17772  0.58603  1.0000
  C   C64       1.0  0.23766  0.32228  0.41397  1.0000
  N   N1        1.0  0.54709  0.48045  0.32971  1.0000
  N   N2        1.0  0.04710  0.01955  0.67029  1.0000
  N   N3        1.0  0.45291  0.51955  0.67029  1.0000
  N   N4        1.0  0.95291  0.98046  0.32971  1.0000
  N   N5        1.0  0.50002  0.97848  0.63457  1.0000
  N   N6        1.0  0.00002  0.52152  0.36544  1.0000
  N   N7        1.0  0.49998  0.02152  0.36544  1.0000
  N   N8        1.0  0.99998  0.47848  0.63456  1.0000
  N   N9        1.0  0.21318  0.31783  0.86204  1.0000
  N   N10       1.0  0.71318  0.18217  0.13796  1.0000
  N   N11       1.0  0.78682  0.68217  0.13796  1.0000
  N   N12       1.0  0.28682  0.81783  0.86204  1.0000
  N   N13       1.0  0.55168  0.38621  0.17486  1.0000
  N   N14       1.0  0.05168  0.11379  0.82513  1.0000
  N   N15       1.0  0.44832  0.61379  0.82513  1.0000
  N   N16       1.0  0.94832  0.88621  0.17486  1.0000
  Cl  Cl1       1.0  0.78331  0.51794  0.24845  1.0000
  Cl  Cl2       1.0  0.28331  0.98206  0.75155  1.0000
  Cl  Cl3       1.0  0.21669  0.48206  0.75155  1.0000
  Cl  Cl4       1.0  0.71669  0.01794  0.24845  1.0000
  Cl  Cl5       1.0  0.24025  0.41525  0.25150  1.0000
  Cl  Cl6       1.0  0.74025  0.08475  0.74850  1.0000
  Cl  Cl7       1.0  0.75975  0.58475  0.74850  1.0000
  Cl  Cl8       1.0  0.25975  0.91525  0.25150  1.0000
  Cl  Cl9       1.0  0.71286  0.31419  0.39478  1.0000
  Cl  Cl10      1.0  0.21286  0.18581  0.60523  1.0000
  Cl  Cl11      1.0  0.28714  0.68581  0.60522  1.0000
  Cl  Cl12      1.0  0.78714  0.81419  0.39478  1.0000
  Cl  Cl13      1.0  0.01488  0.37367  0.09265  1.0000
  Cl  Cl14      1.0  0.51488  0.12633  0.90735  1.0000
  Cl  Cl15      1.0  0.98512  0.62632  0.90735  1.0000
  Cl  Cl16      1.0  0.48512  0.87367  0.09265  1.0000
  Cl  Cl17      1.0  0.03923  0.69122  0.25148  1.0000
  Cl  Cl18      1.0  0.53923  0.80878  0.74851  1.0000
  Cl  Cl19      1.0  0.96077  0.30877  0.74851  1.0000
  Cl  Cl20      1.0  0.46077  0.19122  0.25149  1.0000
  Cl  Cl21      1.0  0.92243  0.24866  0.25085  1.0000
  Cl  Cl22      1.0  0.42243  0.25134  0.74915  1.0000
  Cl  Cl23      1.0  0.07757  0.75134  0.74915  1.0000
  Cl  Cl24      1.0  0.57757  0.74866  0.25085  1.0000
