data_image0
_chemical_formula_structural       Y8H32C64N16Cl24
_chemical_formula_sum              "Y8 H32 C64 N16 Cl24"
_cell_length_a       11.0169
_cell_length_b       11.2344
_cell_length_c       19.1241
_cell_angle_alpha    106.807
_cell_angle_beta     90
_cell_angle_gamma    90

_space_group_name_H-M_alt    "P 1"
_space_group_IT_number       1

loop_
  _space_group_symop_operation_xyz
  'x, y, z'

loop_
  _atom_site_type_symbol
  _atom_site_label
  _atom_site_symmetry_multiplicity
  _atom_site_fract_x
  _atom_site_fract_y
  _atom_site_fract_z
  _atom_site_occupancy
  Y   Y1        1.0  0.17564  0.68983  0.23800  1.0000
  Y   Y2        1.0  0.67564  0.81017  0.76200  1.0000
  Y   Y3        1.0  0.82436  0.31017  0.76200  1.0000
  Y   Y4        1.0  0.32436  0.18983  0.23800  1.0000
  Y   Y5        1.0  0.51872  0.55022  0.26875  1.0000
  Y   Y6        1.0  0.01872  0.94978  0.73125  1.0000
  Y   Y7        1.0  0.48128  0.44978  0.73125  1.0000
  Y   Y8        1.0  0.98128  0.05022  0.26875  1.0000
  H   H1        1.0  0.36222  0.14039  0.68863  1.0000
  H   H2        1.0  0.86222  0.35962  0.31137  1.0000
  H   H3        1.0  0.63778  0.85962  0.31138  1.0000
  H   H4        1.0  0.13777  0.64038  0.68862  1.0000
  H   H5        1.0  0.14829  0.09281  0.49342  1.0000
  H   H6        1.0  0.64829  0.40720  0.50658  1.0000
  H   H7        1.0  0.85171  0.90720  0.50658  1.0000
  H   H8        1.0  0.35171  0.59280  0.49342  1.0000
  H   H9        1.0  0.78338  0.34243  0.17712  1.0000
  H   H10       1.0  0.28338  0.15757  0.82288  1.0000
  H   H11       1.0  0.21662  0.65757  0.82288  1.0000
  H   H12       1.0  0.71663  0.84243  0.17712  1.0000
  H   H13       1.0  0.41533  0.81609  0.50257  1.0000
  H   H14       1.0  0.91533  0.68392  0.49743  1.0000
  H   H15       1.0  0.58467  0.18392  0.49744  1.0000
  H   H16       1.0  0.08467  0.31608  0.50256  1.0000
  H   H17       1.0  0.20696  0.21970  0.62075  1.0000
  H   H18       1.0  0.70696  0.28030  0.37925  1.0000
  H   H19       1.0  0.79304  0.78030  0.37925  1.0000
  H   H20       1.0  0.29304  0.71970  0.62075  1.0000
  H   H21       1.0  0.76155  0.02357  0.98569  1.0000
  H   H22       1.0  0.26155  0.47643  0.01431  1.0000
  H   H23       1.0  0.23845  0.97643  0.01431  1.0000
  H   H24       1.0  0.73845  0.52357  0.98569  1.0000
  H   H25       1.0  0.06696  0.27473  0.01404  1.0000
  H   H26       1.0  0.56696  0.22527  0.98596  1.0000
  H   H27       1.0  0.93304  0.72527  0.98596  1.0000
  H   H28       1.0  0.43304  0.77473  0.01404  1.0000
  H   H29       1.0  0.67693  0.15112  0.10647  1.0000
  H   H30       1.0  0.17693  0.34888  0.89353  1.0000
  H   H31       1.0  0.32307  0.84888  0.89353  1.0000
  H   H32       1.0  0.82307  0.65112  0.10647  1.0000
  C   C1        1.0  0.48399  0.92720  0.64083  1.0000
  C   C2        1.0  0.98398  0.57280  0.35917  1.0000
  C   C3        1.0  0.51601  0.07280  0.35917  1.0000
  C   C4        1.0  0.01601  0.42720  0.64083  1.0000
  C   C5        1.0  0.99365  0.42866  0.13987  1.0000
  C   C6        1.0  0.49365  0.07134  0.86013  1.0000
  C   C7        1.0  0.00635  0.57134  0.86013  1.0000
  C   C8        1.0  0.50635  0.92866  0.13987  1.0000
  C   C9        1.0  0.93108  0.31966  0.09976  1.0000
  C   C10       1.0  0.43108  0.18034  0.90024  1.0000
  C   C11       1.0  0.06892  0.68034  0.90024  1.0000
  C   C12       1.0  0.56892  0.81966  0.09976  1.0000
  C   C13       1.0  0.91812  0.14265  0.99317  1.0000
  C   C14       1.0  0.41812  0.35735  0.00683  1.0000
  C   C15       1.0  0.08189  0.85736  0.00683  1.0000
  C   C16       1.0  0.58188  0.64264  0.99317  1.0000
  C   C17       1.0  0.39781  0.97394  0.60018  1.0000
  C   C18       1.0  0.89781  0.52606  0.39982  1.0000
  C   C19       1.0  0.60219  0.02606  0.39982  1.0000
  C   C20       1.0  0.10219  0.47394  0.60018  1.0000
  C   C21       1.0  0.98130  0.24823  0.03361  1.0000
  C   C22       1.0  0.48130  0.25176  0.96639  1.0000
  C   C23       1.0  0.01870  0.75177  0.96639  1.0000
  C   C24       1.0  0.51870  0.74824  0.03361  1.0000
  C   C25       1.0  0.27835  0.94842  0.49177  1.0000
  C   C26       1.0  0.77835  0.55158  0.50823  1.0000
  C   C27       1.0  0.72165  0.05158  0.50823  1.0000
  C   C28       1.0  0.22165  0.44842  0.49177  1.0000
  C   C29       1.0  0.24298  0.87602  0.42097  1.0000
  C   C30       1.0  0.74298  0.62398  0.57903  1.0000
  C   C31       1.0  0.75702  0.12398  0.57904  1.0000
  C   C32       1.0  0.25702  0.37602  0.42097  1.0000
  C   C33       1.0  0.33887  0.08756  0.63306  1.0000
  C   C34       1.0  0.83887  0.41244  0.36694  1.0000
  C   C35       1.0  0.66112  0.91244  0.36694  1.0000
  C   C36       1.0  0.16112  0.58756  0.63306  1.0000
  C   C37       1.0  0.36908  0.90348  0.52886  1.0000
  C   C38       1.0  0.86908  0.59652  0.47114  1.0000
  C   C39       1.0  0.63092  0.09652  0.47114  1.0000
  C   C40       1.0  0.13092  0.40348  0.52886  1.0000
  C   C41       1.0  0.82102  0.28508  0.12577  1.0000
  C   C42       1.0  0.32102  0.21492  0.87422  1.0000
  C   C43       1.0  0.17898  0.71492  0.87422  1.0000
  C   C44       1.0  0.67898  0.78508  0.12578  1.0000
  C   C45       1.0  0.96348  0.07502  0.92354  1.0000
  C   C46       1.0  0.46348  0.42498  0.07646  1.0000
  C   C47       1.0  0.03652  0.92498  0.07646  1.0000
  C   C48       1.0  0.53652  0.57502  0.92354  1.0000
  C   C49       1.0  0.80802  0.10686  0.01871  1.0000
  C   C50       1.0  0.30801  0.39314  0.98130  1.0000
  C   C51       1.0  0.19199  0.89314  0.98129  1.0000
  C   C52       1.0  0.69199  0.60686  0.01871  1.0000
  C   C53       1.0  0.21919  0.06213  0.52407  1.0000
  C   C54       1.0  0.71919  0.43787  0.47593  1.0000
  C   C55       1.0  0.78081  0.93787  0.47593  1.0000
  C   C56       1.0  0.28081  0.56213  0.52407  1.0000
  C   C57       1.0  0.25113  0.13143  0.59442  1.0000
  C   C58       1.0  0.75113  0.36857  0.40558  1.0000
  C   C59       1.0  0.74887  0.86857  0.40558  1.0000
  C   C60       1.0  0.24887  0.63143  0.59442  1.0000
  C   C61       1.0  0.76093  0.17830  0.08519  1.0000
  C   C62       1.0  0.26093  0.32170  0.91481  1.0000
  C   C63       1.0  0.23907  0.82170  0.91481  1.0000
  C   C64       1.0  0.73907  0.67830  0.08519  1.0000
  N   N1        1.0  0.21362  0.81698  0.36290  1.0000
  N   N2        1.0  0.71362  0.68302  0.63710  1.0000
  N   N3        1.0  0.78638  0.18302  0.63710  1.0000
  N   N4        1.0  0.28638  0.31698  0.36290  1.0000
  N   N5        1.0  0.55211  0.88734  0.67476  1.0000
  N   N6        1.0  0.05210  0.61266  0.32524  1.0000
  N   N7        1.0  0.44789  0.11266  0.32525  1.0000
  N   N8        1.0  0.94789  0.38734  0.67475  1.0000
  N   N9        1.0  0.04663  0.51803  0.17056  1.0000
  N   N10       1.0  0.54663  0.98197  0.82944  1.0000
  N   N11       1.0  0.95337  0.48197  0.82944  1.0000
  N   N12       1.0  0.45337  0.01803  0.17056  1.0000
  N   N13       1.0  0.99974  0.02248  0.86569  1.0000
  N   N14       1.0  0.49974  0.47752  0.13431  1.0000
  N   N15       1.0  0.00026  0.97752  0.13431  1.0000
  N   N16       1.0  0.50025  0.52248  0.86569  1.0000
  Cl  Cl1       1.0  0.28400  0.48080  0.25179  1.0000
  Cl  Cl2       1.0  0.78400  0.01920  0.74821  1.0000
  Cl  Cl3       1.0  0.71600  0.51920  0.74821  1.0000
  Cl  Cl4       1.0  0.21600  0.98080  0.25179  1.0000
  Cl  Cl5       1.0  0.74041  0.58456  0.24844  1.0000
  Cl  Cl6       1.0  0.24041  0.91544  0.75157  1.0000
  Cl  Cl7       1.0  0.25958  0.41544  0.75156  1.0000
  Cl  Cl8       1.0  0.75959  0.08456  0.24844  1.0000
  Cl  Cl9       1.0  0.42233  0.75167  0.24935  1.0000
  Cl  Cl10      1.0  0.92233  0.74833  0.75065  1.0000
  Cl  Cl11      1.0  0.57767  0.24833  0.75065  1.0000
  Cl  Cl12      1.0  0.07767  0.25167  0.24935  1.0000
  Cl  Cl13      1.0  0.54017  0.30784  0.24865  1.0000
  Cl  Cl14      1.0  0.04017  0.19216  0.75135  1.0000
  Cl  Cl15      1.0  0.45983  0.69216  0.75135  1.0000
  Cl  Cl16      1.0  0.95983  0.80784  0.24865  1.0000
  Cl  Cl17      1.0  0.51437  0.62674  0.40819  1.0000
  Cl  Cl18      1.0  0.01437  0.87326  0.59181  1.0000
  Cl  Cl19      1.0  0.48563  0.37326  0.59181  1.0000
  Cl  Cl20      1.0  0.98563  0.12674  0.40819  1.0000
  Cl  Cl21      1.0  0.21237  0.68421  0.10482  1.0000
  Cl  Cl22      1.0  0.71237  0.81579  0.89518  1.0000
  Cl  Cl23      1.0  0.78763  0.31579  0.89518  1.0000
  Cl  Cl24      1.0  0.28763  0.18421  0.10482  1.0000
