data_image0
_chemical_formula_structural       CdH10C14S2N6
_chemical_formula_sum              "Cd1 H10 C14 S2 N6"
_cell_length_a       3.82154
_cell_length_b       12.5886
_cell_length_c       9.1725
_cell_angle_alpha    118.262
_cell_angle_beta     94.4448
_cell_angle_gamma    91.1442

_space_group_name_H-M_alt    "P 1"
_space_group_IT_number       1

loop_
  _space_group_symop_operation_xyz
  'x, y, z'

loop_
  _atom_site_type_symbol
  _atom_site_label
  _atom_site_symmetry_multiplicity
  _atom_site_fract_x
  _atom_site_fract_y
  _atom_site_fract_z
  _atom_site_occupancy
  Cd  Cd1       1.0  0.99999  1.00000  1.00000  1.0000
  H   H1        1.0  0.29492  0.99753  0.33543  1.0000
  H   H2        1.0  0.70502  0.00246  0.66456  1.0000
  H   H3        1.0  0.33091  0.12934  0.64730  1.0000
  H   H4        1.0  0.66909  0.87065  0.35269  1.0000
  H   H5        1.0  0.08429  0.33128  0.76205  1.0000
  H   H6        1.0  0.91575  0.66873  0.23795  1.0000
  H   H7        1.0  0.80701  0.26019  0.25764  1.0000
  H   H8        1.0  0.19296  0.73981  0.74236  1.0000
  H   H9        1.0  0.80018  0.49434  0.70531  1.0000
  H   H10       1.0  0.19985  0.50566  0.29469  1.0000
  C   C1        1.0  0.19017  0.08663  0.39219  1.0000
  C   C2        1.0  0.80978  0.91336  0.60780  1.0000
  C   C3        1.0  0.20864  0.15970  0.56354  1.0000
  C   C4        1.0  0.79135  0.84029  0.43646  1.0000
  C   C5        1.0  0.07117  0.27314  0.62781  1.0000
  C   C6        1.0  0.92885  0.72686  0.37219  1.0000
  C   C7        1.0  0.91471  0.30968  0.51719  1.0000
  C   C8        1.0  0.08530  0.69032  0.48281  1.0000
  C   C9        1.0  0.91616  0.23182  0.34584  1.0000
  C   C10       1.0  0.08382  0.76818  0.65416  1.0000
  C   C11       1.0  0.75658  0.42521  0.57372  1.0000
  C   C12       1.0  0.24345  0.57480  0.42629  1.0000
  C   C13       1.0  0.55858  0.21138  0.98156  1.0000
  C   C14       1.0  0.44143  0.78862  0.01844  1.0000
  S   S1        1.0  0.63911  0.34389  0.00460  1.0000
  S   S2        1.0  0.36094  0.65611  0.99540  1.0000
  N   N1        1.0  0.04852  0.12325  0.28508  1.0000
  N   N2        1.0  0.95144  0.87675  0.71492  1.0000
  N   N3        1.0  0.56448  0.44335  0.46586  1.0000
  N   N4        1.0  0.43552  0.55664  0.53414  1.0000
  N   N5        1.0  0.50548  0.11144  0.96552  1.0000
  N   N6        1.0  0.49450  0.88857  0.03448  1.0000
