data_image0
_chemical_formula_structural       Ho4P2H38C22N2O32
_chemical_formula_sum              "Ho4 P2 H38 C22 N2 O32"
_cell_length_a       9.62821
_cell_length_b       10.6458
_cell_length_c       11.9256
_cell_angle_alpha    70.4774
_cell_angle_beta     68.9595
_cell_angle_gamma    64.5051

_space_group_name_H-M_alt    "P 1"
_space_group_IT_number       1

loop_
  _space_group_symop_operation_xyz
  'x, y, z'

loop_
  _atom_site_type_symbol
  _atom_site_label
  _atom_site_symmetry_multiplicity
  _atom_site_fract_x
  _atom_site_fract_y
  _atom_site_fract_z
  _atom_site_occupancy
  Ho  Ho1       1.0  0.92848  0.18957  0.25054  1.0000
  Ho  Ho2       1.0  0.07152  0.81043  0.74947  1.0000
  Ho  Ho3       1.0  0.58463  0.83757  0.21581  1.0000
  Ho  Ho4       1.0  0.41537  0.16242  0.78419  1.0000
  P   P1        1.0  0.33451  0.18476  0.09861  1.0000
  P   P2        1.0  0.66549  0.81524  0.90140  1.0000
  H   H1        1.0  0.13737  0.39920  0.24676  1.0000
  H   H2        1.0  0.86263  0.60080  0.75324  1.0000
  H   H3        1.0  0.46033  0.34878  0.07943  1.0000
  H   H4        1.0  0.53967  0.65123  0.92056  1.0000
  H   H5        1.0  0.27691  0.43954  0.03516  1.0000
  H   H6        1.0  0.72308  0.56046  0.96484  1.0000
  H   H7        1.0  0.17802  0.61616  0.13688  1.0000
  H   H8        1.0  0.82197  0.38384  0.86312  1.0000
  H   H9        1.0  0.35919  0.55189  0.18375  1.0000
  H   H10       1.0  0.64080  0.44811  0.81625  1.0000
  H   H11       1.0  0.13185  0.70825  0.32178  1.0000
  H   H12       1.0  0.86814  0.29175  0.67822  1.0000
  H   H13       1.0  0.02072  0.60246  0.35009  1.0000
  H   H14       1.0  0.97928  0.39753  0.64992  1.0000
  H   H15       1.0  0.14220  0.53111  0.52400  1.0000
  H   H16       1.0  0.85782  0.46889  0.47600  1.0000
  H   H17       1.0  0.33390  0.50426  0.42296  1.0000
  H   H18       1.0  0.66611  0.49575  0.57703  1.0000
  H   H19       1.0  0.12306  0.33191  0.47186  1.0000
  H   H20       1.0  0.87695  0.66809  0.52814  1.0000
  H   H21       1.0  0.30132  0.26986  0.51611  1.0000
  H   H22       1.0  0.69870  0.73014  0.48389  1.0000
  H   H23       1.0  0.45382  0.30545  0.29608  1.0000
  H   H24       1.0  0.54618  0.69455  0.70391  1.0000
  H   H25       1.0  0.34551  0.19201  0.32673  1.0000
  H   H26       1.0  0.65449  0.80800  0.67327  1.0000
  H   H27       1.0  0.33372  0.76737  0.45151  1.0000
  H   H28       1.0  0.66628  0.23263  0.54849  1.0000
  H   H29       1.0  0.40691  0.85090  0.48404  1.0000
  H   H30       1.0  0.59309  0.14909  0.51596  1.0000
  H   H31       1.0  0.26311  0.96493  0.19469  1.0000
  H   H32       1.0  0.73689  0.03507  0.80530  1.0000
  H   H33       1.0  0.28847  0.80270  0.23478  1.0000
  H   H34       1.0  0.71153  0.19730  0.76521  1.0000
  H   H35       1.0  0.00704  0.20611  0.99241  1.0000
  H   H36       1.0  0.99296  0.79389  0.00759  1.0000
  H   H37       1.0  0.09326  0.29083  0.00127  1.0000
  H   H38       1.0  0.90674  0.70917  0.99873  1.0000
  C   C1        1.0  0.33626  0.35556  0.10386  1.0000
  C   C2        1.0  0.66374  0.64443  0.89614  1.0000
  C   C3        1.0  0.23767  0.55091  0.21099  1.0000
  C   C4        1.0  0.76232  0.44909  0.78901  1.0000
  C   C5        1.0  0.14297  0.59800  0.33179  1.0000
  C   C6        1.0  0.85703  0.40200  0.66820  1.0000
  C   C7        1.0  0.21732  0.49777  0.43751  1.0000
  C   C8        1.0  0.78268  0.50223  0.56249  1.0000
  C   C9        1.0  0.23918  0.34430  0.44561  1.0000
  C   C10       1.0  0.76083  0.65570  0.55439  1.0000
  C   C11       1.0  0.33431  0.29982  0.32396  1.0000
  C   C12       1.0  0.66569  0.70019  0.67603  1.0000
  C   C13       1.0  0.70669  0.01052  0.30799  1.0000
  C   C14       1.0  0.29331  0.98947  0.69201  1.0000
  C   C15       1.0  0.83017  0.98253  0.18399  1.0000
  C   C16       1.0  0.16983  0.01746  0.81601  1.0000
  C   C17       1.0  0.82165  0.51788  0.25436  1.0000
  C   C18       1.0  0.17835  0.48213  0.74564  1.0000
  C   C19       1.0  0.67106  0.50103  0.25090  1.0000
  C   C20       1.0  0.32894  0.49898  0.74910  1.0000
  C   C21       1.0  0.04479  0.93341  0.47111  1.0000
  C   C22       1.0  0.95522  0.06658  0.52890  1.0000
  N   N1        1.0  0.25368  0.39971  0.22382  1.0000
  N   N2        1.0  0.74632  0.60029  0.77618  1.0000
  O   O1        1.0  0.19047  0.15409  0.19874  1.0000
  O   O2        1.0  0.80953  0.84591  0.80126  1.0000
  O   O3        1.0  0.48932  0.06863  0.12156  1.0000
  O   O4        1.0  0.51067  0.93138  0.87844  1.0000
  O   O5        1.0  0.31008  0.21874  0.97000  1.0000
  O   O6        1.0  0.68991  0.78126  0.03000  1.0000
  O   O7        1.0  0.60560  0.94992  0.34770  1.0000
  O   O8        1.0  0.39440  0.05009  0.65230  1.0000
  O   O9        1.0  0.71786  0.09189  0.35911  1.0000
  O   O10       1.0  0.28214  0.90812  0.64089  1.0000
  O   O11       1.0  0.82016  0.90097  0.13370  1.0000
  O   O12       1.0  0.17984  0.09903  0.86631  1.0000
  O   O13       1.0  0.93136  0.04388  0.14417  1.0000
  O   O14       1.0  0.06865  0.95612  0.85583  1.0000
  O   O15       1.0  0.80826  0.63744  0.26289  1.0000
  O   O16       1.0  0.19175  0.36256  0.73712  1.0000
  O   O17       1.0  0.94804  0.40785  0.24841  1.0000
  O   O18       1.0  0.05196  0.59214  0.75160  1.0000
  O   O19       1.0  0.54748  0.61084  0.25240  1.0000
  O   O20       1.0  0.45252  0.38915  0.74761  1.0000
  O   O21       1.0  0.68617  0.37774  0.24687  1.0000
  O   O22       1.0  0.31384  0.62225  0.75313  1.0000
  O   O23       1.0  0.04945  0.95150  0.36016  1.0000
  O   O24       1.0  0.95055  0.04850  0.63984  1.0000
  O   O25       1.0  0.10760  0.81612  0.54029  1.0000
  O   O26       1.0  0.89240  0.18388  0.45971  1.0000
  O   O27       1.0  0.42576  0.79774  0.42291  1.0000
  O   O28       1.0  0.57424  0.20226  0.57709  1.0000
  O   O29       1.0  0.34191  0.86960  0.18334  1.0000
  O   O30       1.0  0.65809  0.13040  0.81666  1.0000
  O   O31       1.0  0.98527  0.28525  0.02948  1.0000
  O   O32       1.0  0.01473  0.71475  0.97052  1.0000
