data_image0
_chemical_formula_structural       Er4P2H38C22N2O32
_chemical_formula_sum              "Er4 P2 H38 C22 N2 O32"
_cell_length_a       9.50014
_cell_length_b       10.416
_cell_length_c       12.0067
_cell_angle_alpha    72.8136
_cell_angle_beta     69.3276
_cell_angle_gamma    67.1631

_space_group_name_H-M_alt    "P 1"
_space_group_IT_number       1

loop_
  _space_group_symop_operation_xyz
  'x, y, z'

loop_
  _atom_site_type_symbol
  _atom_site_label
  _atom_site_symmetry_multiplicity
  _atom_site_fract_x
  _atom_site_fract_y
  _atom_site_fract_z
  _atom_site_occupancy
  Er  Er1       1.0  0.94076  0.18197  0.75334  1.0000
  Er  Er2       1.0  0.05925  0.81802  0.24665  1.0000
  Er  Er3       1.0  0.41562  0.17107  0.29101  1.0000
  Er  Er4       1.0  0.58438  0.82892  0.70899  1.0000
  P   P1        1.0  0.34536  0.17624  0.60810  1.0000
  P   P2        1.0  0.65463  0.82377  0.39190  1.0000
  H   H1        1.0  0.46910  0.35606  0.58121  1.0000
  H   H2        1.0  0.53089  0.64394  0.41880  1.0000
  H   H3        1.0  0.28588  0.42910  0.54064  1.0000
  H   H4        1.0  0.71411  0.57090  0.45937  1.0000
  H   H5        1.0  0.14756  0.39096  0.75026  1.0000
  H   H6        1.0  0.85244  0.60904  0.24975  1.0000
  H   H7        1.0  0.46127  0.31436  0.79574  1.0000
  H   H8        1.0  0.53872  0.68564  0.20427  1.0000
  H   H9        1.0  0.35567  0.19413  0.82332  1.0000
  H   H10       1.0  0.64433  0.80587  0.17669  1.0000
  H   H11       1.0  0.12987  0.32932  0.96988  1.0000
  H   H12       1.0  0.87012  0.67069  0.03013  1.0000
  H   H13       1.0  0.30555  0.27529  0.01376  1.0000
  H   H14       1.0  0.69444  0.72472  0.98625  1.0000
  H   H15       1.0  0.14675  0.53335  0.02745  1.0000
  H   H16       1.0  0.85325  0.46667  0.97256  1.0000
  H   H17       1.0  0.33767  0.51357  0.92542  1.0000
  H   H18       1.0  0.66233  0.48644  0.07459  1.0000
  H   H19       1.0  0.13725  0.70756  0.83034  1.0000
  H   H20       1.0  0.86275  0.29244  0.16966  1.0000
  H   H21       1.0  0.02505  0.59503  0.85923  1.0000
  H   H22       1.0  0.97494  0.40498  0.14078  1.0000
  H   H23       1.0  0.17811  0.61266  0.64887  1.0000
  H   H24       1.0  0.82189  0.38734  0.35113  1.0000
  H   H25       1.0  0.36016  0.56255  0.68930  1.0000
  H   H26       1.0  0.63984  0.43745  0.31071  1.0000
  H   H27       1.0  0.86848  0.30652  0.52759  1.0000
  H   H28       1.0  0.13154  0.69349  0.47239  1.0000
  H   H29       1.0  0.04490  0.21091  0.48328  1.0000
  H   H30       1.0  0.95511  0.78909  0.51670  1.0000
  H   H31       1.0  0.67556  0.09060  0.40425  1.0000
  H   H32       1.0  0.32443  0.90940  0.59576  1.0000
  H   H33       1.0  0.76155  0.10786  0.26457  1.0000
  H   H34       1.0  0.23845  0.89213  0.73545  1.0000
  H   H35       1.0  0.57861  0.15416  0.03712  1.0000
  H   H36       1.0  0.42140  0.84582  0.96289  1.0000
  H   H37       1.0  0.67959  0.23090  0.05367  1.0000
  H   H38       1.0  0.32041  0.76910  0.94634  1.0000
  C   C1        1.0  0.34736  0.35297  0.60719  1.0000
  C   C2        1.0  0.65264  0.64703  0.39282  1.0000
  C   C3        1.0  0.34256  0.30331  0.82358  1.0000
  C   C4        1.0  0.65743  0.69670  0.17643  1.0000
  C   C5        1.0  0.24538  0.34649  0.94503  1.0000
  C   C6        1.0  0.75461  0.65352  0.05498  1.0000
  C   C7        1.0  0.22179  0.50122  0.94080  1.0000
  C   C8        1.0  0.77820  0.49879  0.05921  1.0000
  C   C9        1.0  0.14650  0.59690  0.83941  1.0000
  C   C10       1.0  0.85350  0.40310  0.16059  1.0000
  C   C11       1.0  0.24144  0.55153  0.71830  1.0000
  C   C12       1.0  0.75856  0.44848  0.28170  1.0000
  C   C13       1.0  0.84694  0.96365  0.68428  1.0000
  C   C14       1.0  0.15306  0.03636  0.31570  1.0000
  C   C15       1.0  0.72134  0.99414  0.80655  1.0000
  C   C16       1.0  0.27866  0.00587  0.19344  1.0000
  C   C17       1.0  0.68623  0.48925  0.73346  1.0000
  C   C18       1.0  0.31378  0.51074  0.26653  1.0000
  C   C19       1.0  0.82463  0.51423  0.75432  1.0000
  C   C20       1.0  0.17537  0.48576  0.24568  1.0000
  C   C21       1.0  0.94799  0.06525  0.03031  1.0000
  C   C22       1.0  0.05202  0.93475  0.96966  1.0000
  N   N1        1.0  0.26223  0.39825  0.72660  1.0000
  N   N2        1.0  0.73777  0.60175  0.27341  1.0000
  O   O1        1.0  0.19101  0.16215  0.70252  1.0000
  O   O2        1.0  0.80899  0.83784  0.29748  1.0000
  O   O3        1.0  0.34173  0.18497  0.48041  1.0000
  O   O4        1.0  0.65827  0.81503  0.51959  1.0000
  O   O5        1.0  0.49262  0.06583  0.64230  1.0000
  O   O6        1.0  0.50739  0.93417  0.35771  1.0000
  O   O7        1.0  0.95981  0.01417  0.65190  1.0000
  O   O8        1.0  0.04019  0.98583  0.34808  1.0000
  O   O9        1.0  0.17445  0.10958  0.37206  1.0000
  O   O10       1.0  0.82555  0.89042  0.62793  1.0000
  O   O11       1.0  0.73397  0.07854  0.85738  1.0000
  O   O12       1.0  0.26603  0.92147  0.14260  1.0000
  O   O13       1.0  0.38130  0.06878  0.15448  1.0000
  O   O14       1.0  0.61870  0.93122  0.84551  1.0000
  O   O15       1.0  0.70499  0.36248  0.72903  1.0000
  O   O16       1.0  0.29503  0.63751  0.27095  1.0000
  O   O17       1.0  0.43253  0.40351  0.27806  1.0000
  O   O18       1.0  0.56747  0.59649  0.72193  1.0000
  O   O19       1.0  0.94682  0.40589  0.76183  1.0000
  O   O20       1.0  0.05318  0.59410  0.23816  1.0000
  O   O21       1.0  0.19487  0.36191  0.23783  1.0000
  O   O22       1.0  0.80512  0.63809  0.76217  1.0000
  O   O23       1.0  0.88940  0.17961  0.96300  1.0000
  O   O24       1.0  0.11061  0.82039  0.03699  1.0000
  O   O25       1.0  0.07117  0.95280  0.85738  1.0000
  O   O26       1.0  0.92883  0.04720  0.14260  1.0000
  O   O27       1.0  0.97324  0.27930  0.53920  1.0000
  O   O28       1.0  0.02678  0.72069  0.46078  1.0000
  O   O29       1.0  0.66234  0.14673  0.32545  1.0000
  O   O30       1.0  0.33766  0.85326  0.67456  1.0000
  O   O31       1.0  0.57776  0.21113  0.08965  1.0000
  O   O32       1.0  0.42225  0.78885  0.91036  1.0000
