data_image0
_chemical_formula_structural       Dy4P2H38C22N2O32
_chemical_formula_sum              "Dy4 P2 H38 C22 N2 O32"
_cell_length_a       9.5279
_cell_length_b       10.6042
_cell_length_c       11.8131
_cell_angle_alpha    71.2254
_cell_angle_beta     69.0219
_cell_angle_gamma    65.4163

_space_group_name_H-M_alt    "P 1"
_space_group_IT_number       1

loop_
  _space_group_symop_operation_xyz
  'x, y, z'

loop_
  _atom_site_type_symbol
  _atom_site_label
  _atom_site_symmetry_multiplicity
  _atom_site_fract_x
  _atom_site_fract_y
  _atom_site_fract_z
  _atom_site_occupancy
  Dy  Dy1       1.0  0.58025  0.84162  0.21501  1.0000
  Dy  Dy2       1.0  0.41975  0.15837  0.78498  1.0000
  Dy  Dy3       1.0  0.93788  0.19574  0.25053  1.0000
  Dy  Dy4       1.0  0.06212  0.80426  0.74948  1.0000
  P   P1        1.0  0.34160  0.19205  0.09751  1.0000
  P   P2        1.0  0.65840  0.80795  0.90249  1.0000
  H   H1        1.0  0.14906  0.40377  0.24188  1.0000
  H   H2        1.0  0.85093  0.59624  0.75812  1.0000
  H   H3        1.0  0.47671  0.35541  0.07628  1.0000
  H   H4        1.0  0.52327  0.64460  0.92371  1.0000
  H   H5        1.0  0.29543  0.44416  0.02828  1.0000
  H   H6        1.0  0.70457  0.55584  0.97172  1.0000
  H   H7        1.0  0.46310  0.31790  0.29456  1.0000
  H   H8        1.0  0.53690  0.68211  0.70544  1.0000
  H   H9        1.0  0.35733  0.20106  0.32143  1.0000
  H   H10       1.0  0.64268  0.79894  0.67856  1.0000
  H   H11       1.0  0.12886  0.33605  0.46809  1.0000
  H   H12       1.0  0.87114  0.66395  0.53191  1.0000
  H   H13       1.0  0.30550  0.27821  0.51490  1.0000
  H   H14       1.0  0.69449  0.72178  0.48510  1.0000
  H   H15       1.0  0.14038  0.53713  0.52563  1.0000
  H   H16       1.0  0.85962  0.46286  0.47438  1.0000
  H   H17       1.0  0.33521  0.51402  0.42622  1.0000
  H   H18       1.0  0.66478  0.48598  0.57378  1.0000
  H   H19       1.0  0.14095  0.71295  0.32179  1.0000
  H   H20       1.0  0.85904  0.28705  0.67821  1.0000
  H   H21       1.0  0.02510  0.60795  0.34854  1.0000
  H   H22       1.0  0.97490  0.39205  0.65146  1.0000
  H   H23       1.0  0.18661  0.62198  0.13471  1.0000
  H   H24       1.0  0.81339  0.37803  0.86529  1.0000
  H   H25       1.0  0.36644  0.56413  0.18307  1.0000
  H   H26       1.0  0.63356  0.43587  0.81693  1.0000
  H   H27       1.0  0.32825  0.76698  0.44444  1.0000
  H   H28       1.0  0.67175  0.23303  0.55556  1.0000
  H   H29       1.0  0.39156  0.85676  0.48295  1.0000
  H   H30       1.0  0.60844  0.14324  0.51704  1.0000
  H   H31       1.0  0.34642  0.91095  0.07233  1.0000
  H   H32       1.0  0.65357  0.08905  0.92768  1.0000
  H   H33       1.0  0.23994  0.90665  0.21281  1.0000
  H   H34       1.0  0.76005  0.09335  0.78719  1.0000
  H   H35       1.0  0.10116  0.29024  0.99910  1.0000
  H   H36       1.0  0.89883  0.70976  0.00090  1.0000
  H   H37       1.0  0.00624  0.20921  0.99276  1.0000
  H   H38       1.0  0.99376  0.79078  0.00725  1.0000
  C   C1        1.0  0.35202  0.36198  0.09863  1.0000
  C   C2        1.0  0.64798  0.63803  0.90136  1.0000
  C   C3        1.0  0.34413  0.30901  0.32062  1.0000
  C   C4        1.0  0.65588  0.69099  0.67937  1.0000
  C   C5        1.0  0.24443  0.35137  0.44380  1.0000
  C   C6        1.0  0.75557  0.64864  0.55620  1.0000
  C   C7        1.0  0.21940  0.50487  0.43854  1.0000
  C   C8        1.0  0.78060  0.49513  0.56146  1.0000
  C   C9        1.0  0.14793  0.60422  0.33149  1.0000
  C   C10       1.0  0.85207  0.39578  0.66851  1.0000
  C   C11       1.0  0.24601  0.55853  0.20914  1.0000
  C   C12       1.0  0.75399  0.44147  0.79085  1.0000
  C   C13       1.0  0.82485  0.52581  0.25451  1.0000
  C   C14       1.0  0.17516  0.47419  0.74550  1.0000
  C   C15       1.0  0.67460  0.50326  0.25376  1.0000
  C   C16       1.0  0.32541  0.49674  0.74624  1.0000
  C   C17       1.0  0.70982  0.01250  0.30987  1.0000
  C   C18       1.0  0.29017  0.98749  0.69013  1.0000
  C   C19       1.0  0.83263  0.98630  0.18354  1.0000
  C   C20       1.0  0.16738  0.01369  0.81646  1.0000
  C   C21       1.0  0.04870  0.93547  0.46786  1.0000
  C   C22       1.0  0.95130  0.06453  0.53215  1.0000
  N   N1        1.0  0.26516  0.40694  0.21944  1.0000
  N   N2        1.0  0.73484  0.59306  0.78055  1.0000
  O   O1        1.0  0.50121  0.07534  0.10961  1.0000
  O   O2        1.0  0.49879  0.92466  0.89038  1.0000
  O   O3        1.0  0.19879  0.16956  0.20398  1.0000
  O   O4        1.0  0.80121  0.83044  0.79602  1.0000
  O   O5        1.0  0.69005  0.77929  0.02892  1.0000
  O   O6        1.0  0.30994  0.22072  0.97108  1.0000
  O   O7        1.0  0.80929  0.64749  0.26049  1.0000
  O   O8        1.0  0.19073  0.35251  0.73951  1.0000
  O   O9        1.0  0.95246  0.41799  0.24952  1.0000
  O   O10       1.0  0.04755  0.58200  0.75049  1.0000
  O   O11       1.0  0.54947  0.61004  0.25588  1.0000
  O   O12       1.0  0.45053  0.38996  0.74412  1.0000
  O   O13       1.0  0.69140  0.37843  0.25111  1.0000
  O   O14       1.0  0.30861  0.62157  0.74889  1.0000
  O   O15       1.0  0.72584  0.09015  0.36361  1.0000
  O   O16       1.0  0.27416  0.90984  0.63638  1.0000
  O   O17       1.0  0.60465  0.95467  0.34815  1.0000
  O   O18       1.0  0.39536  0.04532  0.65185  1.0000
  O   O19       1.0  0.93784  0.04506  0.14477  1.0000
  O   O20       1.0  0.06217  0.95492  0.85524  1.0000
  O   O21       1.0  0.81757  0.90917  0.12994  1.0000
  O   O22       1.0  0.18244  0.09083  0.87005  1.0000
  O   O23       1.0  0.06801  0.95985  0.35244  1.0000
  O   O24       1.0  0.93199  0.04014  0.64757  1.0000
  O   O25       1.0  0.89773  0.18404  0.46399  1.0000
  O   O26       1.0  0.10226  0.81596  0.53603  1.0000
  O   O27       1.0  0.41411  0.80676  0.41706  1.0000
  O   O28       1.0  0.58588  0.19325  0.58293  1.0000
  O   O29       1.0  0.34618  0.86576  0.15913  1.0000
  O   O30       1.0  0.65382  0.13424  0.84087  1.0000
  O   O31       1.0  0.99020  0.28762  0.02910  1.0000
  O   O32       1.0  0.00980  0.71237  0.97090  1.0000
