data_image0
_chemical_formula_structural       Ni3P4H24C14N2O18
_chemical_formula_sum              "Ni3 P4 H24 C14 N2 O18"
_cell_length_a       6.87203
_cell_length_b       9.56528
_cell_length_c       10.2909
_cell_angle_alpha    79.263
_cell_angle_beta     86.8688
_cell_angle_gamma    79.8593

_space_group_name_H-M_alt    "P 1"
_space_group_IT_number       1

loop_
  _space_group_symop_operation_xyz
  'x, y, z'

loop_
  _atom_site_type_symbol
  _atom_site_label
  _atom_site_symmetry_multiplicity
  _atom_site_fract_x
  _atom_site_fract_y
  _atom_site_fract_z
  _atom_site_occupancy
  Ni  Ni1       1.0  0.50036  0.50022  0.49988  1.0000
  Ni  Ni2       1.0  0.29638  0.04341  0.55700  1.0000
  Ni  Ni3       1.0  0.70355  0.95673  0.44325  1.0000
  P   P1        1.0  0.46129  0.73985  0.68233  1.0000
  P   P2        1.0  0.53871  0.26020  0.31766  1.0000
  P   P3        1.0  0.14293  0.78673  0.47842  1.0000
  P   P4        1.0  0.85686  0.21320  0.52162  1.0000
  H   H1        1.0  0.98908  0.96658  0.65685  1.0000
  H   H2        1.0  0.01091  0.03340  0.34315  1.0000
  H   H3        1.0  0.20517  0.34544  0.57543  1.0000
  H   H4        1.0  0.79503  0.65502  0.42432  1.0000
  H   H5        1.0  0.37617  0.29923  0.67326  1.0000
  H   H6        1.0  0.62415  0.70114  0.32644  1.0000
  H   H7        1.0  0.58813  0.07956  0.67679  1.0000
  H   H8        1.0  0.41169  0.92053  0.32336  1.0000
  H   H9        1.0  0.45485  0.99496  0.78021  1.0000
  H   H10       1.0  0.54503  0.00507  0.21994  1.0000
  H   H11       1.0  0.36268  0.40776  0.11886  1.0000
  H   H12       1.0  0.63732  0.59215  0.88120  1.0000
  H   H13       1.0  0.91088  0.71157  0.72207  1.0000
  H   H14       1.0  0.08913  0.28816  0.27794  1.0000
  H   H15       1.0  0.10762  0.56715  0.70557  1.0000
  H   H16       1.0  0.89268  0.43275  0.29440  1.0000
  H   H17       1.0  0.91177  0.84134  0.92171  1.0000
  H   H18       1.0  0.08837  0.15862  0.07822  1.0000
  H   H19       1.0  0.99620  0.80031  0.16291  1.0000
  H   H20       1.0  0.00396  0.19975  0.83700  1.0000
  H   H21       1.0  0.23456  0.57671  0.25635  1.0000
  H   H22       1.0  0.76549  0.42330  0.74366  1.0000
  H   H23       1.0  0.30629  0.44443  0.89148  1.0000
  H   H24       1.0  0.69368  0.55541  0.10860  1.0000
  C   C1        1.0  0.18780  0.77758  0.65802  1.0000
  C   C2        1.0  0.81210  0.22240  0.34198  1.0000
  C   C3        1.0  0.06865  0.67025  0.74094  1.0000
  C   C4        1.0  0.93141  0.32963  0.25907  1.0000
  C   C5        1.0  0.10615  0.64860  0.88579  1.0000
  C   C6        1.0  0.89389  0.35130  0.11421  1.0000
  C   C7        1.0  0.01772  0.74781  0.96530  1.0000
  C   C8        1.0  0.98238  0.25214  0.03467  1.0000
  C   C9        1.0  0.06275  0.72529  0.09881  1.0000
  C   C10       1.0  0.93737  0.27471  0.90116  1.0000
  C   C11       1.0  0.19215  0.60233  0.15307  1.0000
  C   C12       1.0  0.80794  0.39767  0.84692  1.0000
  C   C13       1.0  0.23378  0.52726  0.94592  1.0000
  C   C14       1.0  0.76621  0.47263  0.05412  1.0000
  N   N1        1.0  0.27201  0.50673  0.07566  1.0000
  N   N2        1.0  0.72801  0.49320  0.92437  1.0000
  O   O1        1.0  0.54371  0.58939  0.65574  1.0000
  O   O2        1.0  0.45679  0.41075  0.34417  1.0000
  O   O3        1.0  0.51770  0.86478  0.57449  1.0000
  O   O4        1.0  0.48210  0.13535  0.42553  1.0000
  O   O5        1.0  0.50969  0.75684  0.82139  1.0000
  O   O6        1.0  0.49021  0.24315  0.17862  1.0000
  O   O7        1.0  0.27507  0.66363  0.42737  1.0000
  O   O8        1.0  0.72368  0.33545  0.57328  1.0000
  O   O9        1.0  0.19195  0.93938  0.41090  1.0000
  O   O10       1.0  0.80824  0.06035  0.58899  1.0000
  O   O11       1.0  0.92148  0.78451  0.46294  1.0000
  O   O12       1.0  0.07827  0.21592  0.53659  1.0000
  O   O13       1.0  0.12872  0.92066  0.69101  1.0000
  O   O14       1.0  0.87124  0.07929  0.30910  1.0000
  O   O15       1.0  0.29773  0.38649  0.62317  1.0000
  O   O16       1.0  0.70236  0.61386  0.37673  1.0000
  O   O17       1.0  0.45168  0.08747  0.71846  1.0000
  O   O18       1.0  0.54813  0.91253  0.28161  1.0000
