data_image0
_chemical_formula_structural       Dy4H20C24N8O32
_chemical_formula_sum              "Dy4 H20 C24 N8 O32"
_cell_length_a       6.81741
_cell_length_b       11.5033
_cell_length_c       14.223
_cell_angle_alpha    109.617
_cell_angle_beta     89.9955
_cell_angle_gamma    107.265

_space_group_name_H-M_alt    "P 1"
_space_group_IT_number       1

loop_
  _space_group_symop_operation_xyz
  'x, y, z'

loop_
  _atom_site_type_symbol
  _atom_site_label
  _atom_site_symmetry_multiplicity
  _atom_site_fract_x
  _atom_site_fract_y
  _atom_site_fract_z
  _atom_site_occupancy
  Dy  Dy1       1.0  0.53545  0.23090  0.19482  1.0000
  Dy  Dy2       1.0  0.30460  0.76884  0.30511  1.0000
  Dy  Dy3       1.0  0.46453  0.76910  0.80518  1.0000
  Dy  Dy4       1.0  0.69541  0.23116  0.69489  1.0000
  H   H1        1.0  0.58618  0.34661  0.49307  1.0000
  H   H2        1.0  0.23893  0.65279  0.00681  1.0000
  H   H3        1.0  0.41382  0.65339  0.50693  1.0000
  H   H4        1.0  0.76104  0.34720  0.99319  1.0000
  H   H5        1.0  0.22691  0.19880  0.34406  1.0000
  H   H6        1.0  0.02838  0.80103  0.15593  1.0000
  H   H7        1.0  0.77308  0.80119  0.65594  1.0000
  H   H8        1.0  0.97161  0.19897  0.84408  1.0000
  H   H9        1.0  0.33910  0.09493  0.33614  1.0000
  H   H10       1.0  0.24454  0.90487  0.16383  1.0000
  H   H11       1.0  0.66091  0.90508  0.66387  1.0000
  H   H12       1.0  0.75545  0.09512  0.83618  1.0000
  H   H13       1.0  0.86135  0.16532  0.30642  1.0000
  H   H14       1.0  0.69670  0.83467  0.19373  1.0000
  H   H15       1.0  0.13865  0.83468  0.69358  1.0000
  H   H16       1.0  0.30331  0.16534  0.80628  1.0000
  H   H17       1.0  0.82482  0.08623  0.18859  1.0000
  H   H18       1.0  0.73886  0.91376  0.31155  1.0000
  H   H19       1.0  0.17518  0.91378  0.81140  1.0000
  H   H20       1.0  0.26114  0.08626  0.68845  1.0000
  C   C1        1.0  0.67864  0.42071  0.46539  1.0000
  C   C2        1.0  0.25737  0.57872  0.03448  1.0000
  C   C3        1.0  0.32135  0.57929  0.53461  1.0000
  C   C4        1.0  0.74262  0.42127  0.96552  1.0000
  C   C5        1.0  0.82263  0.51065  0.36193  1.0000
  C   C6        1.0  0.31148  0.48887  0.13794  1.0000
  C   C7        1.0  0.17737  0.48935  0.63806  1.0000
  C   C8        1.0  0.68854  0.51113  0.86206  1.0000
  C   C9        1.0  0.87104  0.60546  0.46588  1.0000
  C   C10       1.0  0.26495  0.39400  0.03399  1.0000
  C   C11       1.0  0.12897  0.39455  0.53412  1.0000
  C   C12       1.0  0.73507  0.60600  0.96602  1.0000
  C   C13       1.0  0.00940  0.74328  0.50576  1.0000
  C   C14       1.0  0.26556  0.25623  0.99409  1.0000
  C   C15       1.0  0.99061  0.25672  0.49424  1.0000
  C   C16       1.0  0.73445  0.74377  0.00592  1.0000
  C   C17       1.0  0.86846  0.51918  0.26114  1.0000
  C   C18       1.0  0.34872  0.48043  0.23877  1.0000
  C   C19       1.0  0.13154  0.48081  0.73885  1.0000
  C   C20       1.0  0.65129  0.51956  0.76123  1.0000
  C   C21       1.0  0.59634  0.04172  0.98357  1.0000
  C   C22       1.0  0.55460  0.95834  0.51651  1.0000
  C   C23       1.0  0.40363  0.95828  0.01644  1.0000
  C   C24       1.0  0.44543  0.04168  0.48350  1.0000
  N   N1        1.0  0.70367  0.39720  0.36557  1.0000
  N   N2        1.0  0.30600  0.60228  0.13429  1.0000
  N   N3        1.0  0.29633  0.60280  0.63443  1.0000
  N   N4        1.0  0.69401  0.39772  0.86571  1.0000
  N   N5        1.0  0.78042  0.54488  0.52724  1.0000
  N   N6        1.0  0.23491  0.45456  0.97262  1.0000
  N   N7        1.0  0.21958  0.45512  0.47276  1.0000
  N   N8        1.0  0.76510  0.54543  0.02738  1.0000
  O   O1        1.0  0.97573  0.62553  0.25445  1.0000
  O   O2        1.0  0.35024  0.37422  0.24546  1.0000
  O   O3        1.0  0.02429  0.37446  0.74554  1.0000
  O   O4        1.0  0.64975  0.62577  0.75454  1.0000
  O   O5        1.0  0.78908  0.41379  0.18705  1.0000
  O   O6        1.0  0.37415  0.58573  0.31285  1.0000
  O   O7        1.0  0.21092  0.58621  0.81295  1.0000
  O   O8        1.0  0.62584  0.41427  0.68715  1.0000
  O   O9        1.0  0.14200  0.78061  0.45098  1.0000
  O   O10       1.0  0.36122  0.21909  0.04883  1.0000
  O   O11       1.0  0.85803  0.21938  0.54902  1.0000
  O   O12       1.0  0.63876  0.78090  0.95118  1.0000
  O   O13       1.0  0.99311  0.81358  0.59374  1.0000
  O   O14       1.0  0.17879  0.18587  0.90613  1.0000
  O   O15       1.0  0.00688  0.18642  0.40625  1.0000
  O   O16       1.0  0.82123  0.81413  0.09387  1.0000
  O   O17       1.0  0.70578  0.14659  0.04825  1.0000
  O   O18       1.0  0.55908  0.85342  0.45187  1.0000
  O   O19       1.0  0.29418  0.85340  0.95174  1.0000
  O   O20       1.0  0.44094  0.14658  0.54814  1.0000
  O   O21       1.0  0.62611  0.99516  0.89171  1.0000
  O   O22       1.0  0.63094  0.00501  0.60837  1.0000
  O   O23       1.0  0.37386  0.00484  0.10829  1.0000
  O   O24       1.0  0.36910  0.99500  0.39164  1.0000
  O   O25       1.0  0.33022  0.16143  0.30686  1.0000
  O   O26       1.0  0.16922  0.83824  0.19302  1.0000
  O   O27       1.0  0.66977  0.83858  0.69314  1.0000
  O   O28       1.0  0.83077  0.16176  0.80699  1.0000
  O   O29       1.0  0.77824  0.14713  0.24227  1.0000
  O   O30       1.0  0.63170  0.85231  0.25787  1.0000
  O   O31       1.0  0.22176  0.85287  0.75773  1.0000
  O   O32       1.0  0.36830  0.14770  0.74213  1.0000
