data_image0
_chemical_formula_structural       Nd4H24C24N8O32
_chemical_formula_sum              "Nd4 H24 C24 N8 O32"
_cell_length_a       7.46341
_cell_length_b       8.29672
_cell_length_c       17.2127
_cell_angle_alpha    89.9999
_cell_angle_beta     90
_cell_angle_gamma    110.747

_space_group_name_H-M_alt    "P 1"
_space_group_IT_number       1

loop_
  _space_group_symop_operation_xyz
  'x, y, z'

loop_
  _atom_site_type_symbol
  _atom_site_label
  _atom_site_symmetry_multiplicity
  _atom_site_fract_x
  _atom_site_fract_y
  _atom_site_fract_z
  _atom_site_occupancy
  Nd  Nd1       1.0  0.81756  0.75621  0.41523  1.0000
  Nd  Nd2       1.0  0.18244  0.74379  0.91523  1.0000
  Nd  Nd3       1.0  0.18243  0.24380  0.58477  1.0000
  Nd  Nd4       1.0  0.81757  0.25620  0.08477  1.0000
  H   H1        1.0  0.45454  0.90118  0.20998  1.0000
  H   H2        1.0  0.54546  0.59882  0.70998  1.0000
  H   H3        1.0  0.54546  0.09882  0.79003  1.0000
  H   H4        1.0  0.45454  0.40119  0.29003  1.0000
  H   H5        1.0  0.35658  0.92754  0.34820  1.0000
  H   H6        1.0  0.64343  0.57246  0.84820  1.0000
  H   H7        1.0  0.64342  0.07246  0.65181  1.0000
  H   H8        1.0  0.35658  0.42754  0.15181  1.0000
  H   H9        1.0  0.42305  0.66040  0.46779  1.0000
  H   H10       1.0  0.57695  0.83960  0.96779  1.0000
  H   H11       1.0  0.57694  0.33961  0.53221  1.0000
  H   H12       1.0  0.42306  0.16040  0.03221  1.0000
  H   H13       1.0  0.40202  0.49585  0.41912  1.0000
  H   H14       1.0  0.59798  0.00415  0.91912  1.0000
  H   H15       1.0  0.59797  0.50414  0.58088  1.0000
  H   H16       1.0  0.40203  0.99586  0.08088  1.0000
  H   H17       1.0  0.73748  0.07709  0.47946  1.0000
  H   H18       1.0  0.26251  0.42291  0.97946  1.0000
  H   H19       1.0  0.26251  0.92290  0.52054  1.0000
  H   H20       1.0  0.73749  0.57710  0.02054  1.0000
  H   H21       1.0  0.65855  0.00609  0.39771  1.0000
  H   H22       1.0  0.34145  0.49391  0.89772  1.0000
  H   H23       1.0  0.34145  0.99391  0.60228  1.0000
  H   H24       1.0  0.65856  0.50609  0.10228  1.0000
  C   C1        1.0  0.01753  0.65893  0.24761  1.0000
  C   C2        1.0  0.98247  0.84107  0.74761  1.0000
  C   C3        1.0  0.98246  0.34107  0.75239  1.0000
  C   C4        1.0  0.01754  0.15893  0.25239  1.0000
  C   C5        1.0  0.81418  0.53950  0.24595  1.0000
  C   C6        1.0  0.18582  0.96050  0.74595  1.0000
  C   C7        1.0  0.18581  0.46050  0.75405  1.0000
  C   C8        1.0  0.81419  0.03950  0.25405  1.0000
  C   C9        1.0  0.26222  0.84701  0.30453  1.0000
  C   C10       1.0  0.73778  0.65299  0.80453  1.0000
  C   C11       1.0  0.73777  0.15299  0.69547  1.0000
  C   C12       1.0  0.26223  0.34701  0.19547  1.0000
  C   C13       1.0  0.17224  0.67805  0.10813  1.0000
  C   C14       1.0  0.82776  0.82196  0.60813  1.0000
  C   C15       1.0  0.82776  0.32196  0.89186  1.0000
  C   C16       1.0  0.17224  0.17804  0.39187  1.0000
  C   C17       1.0  0.16538  0.71328  0.19244  1.0000
  C   C18       1.0  0.83462  0.78672  0.69244  1.0000
  C   C19       1.0  0.83462  0.28672  0.80756  1.0000
  C   C20       1.0  0.16538  0.21328  0.30756  1.0000
  C   C21       1.0  0.08922  0.57897  0.51139  1.0000
  C   C22       1.0  0.91077  0.92103  0.01139  1.0000
  C   C23       1.0  0.91075  0.42102  0.48862  1.0000
  C   C24       1.0  0.08924  0.07897  0.98862  1.0000
  N   N1        1.0  0.31739  0.83311  0.23081  1.0000
  N   N2        1.0  0.68261  0.66689  0.73081  1.0000
  N   N3        1.0  0.68261  0.16688  0.76919  1.0000
  N   N4        1.0  0.31739  0.33312  0.26919  1.0000
  N   N5        1.0  0.08081  0.74699  0.31601  1.0000
  N   N6        1.0  0.91919  0.75301  0.81601  1.0000
  N   N7        1.0  0.91918  0.25301  0.68399  1.0000
  N   N8        1.0  0.08082  0.24699  0.18399  1.0000
  O   O1        1.0  0.70753  0.55594  0.30132  1.0000
  O   O2        1.0  0.29247  0.94406  0.80132  1.0000
  O   O3        1.0  0.29247  0.44406  0.69868  1.0000
  O   O4        1.0  0.70754  0.05594  0.19868  1.0000
  O   O5        1.0  0.75268  0.42856  0.19240  1.0000
  O   O6        1.0  0.24732  0.07144  0.69240  1.0000
  O   O7        1.0  0.24732  0.57144  0.80760  1.0000
  O   O8        1.0  0.75268  0.92856  0.30760  1.0000
  O   O9        1.0  0.09013  0.72579  0.49000  1.0000
  O   O10       1.0  0.90987  0.77420  0.99000  1.0000
  O   O11       1.0  0.90986  0.27419  0.51000  1.0000
  O   O12       1.0  0.09014  0.22580  0.01000  1.0000
  O   O13       1.0  0.06664  0.53438  0.08128  1.0000
  O   O14       1.0  0.93336  0.96562  0.58128  1.0000
  O   O15       1.0  0.93337  0.46562  0.91872  1.0000
  O   O16       1.0  0.06663  0.03438  0.41872  1.0000
  O   O17       1.0  0.46904  0.62457  0.41977  1.0000
  O   O18       1.0  0.53096  0.87543  0.91977  1.0000
  O   O19       1.0  0.53096  0.37543  0.58023  1.0000
  O   O20       1.0  0.46905  0.12458  0.08023  1.0000
  O   O21       1.0  0.22100  0.55065  0.54841  1.0000
  O   O22       1.0  0.77900  0.94935  0.04841  1.0000
  O   O23       1.0  0.77898  0.44934  0.45159  1.0000
  O   O24       1.0  0.22102  0.05066  0.95159  1.0000
  O   O25       1.0  0.65708  0.97051  0.45203  1.0000
  O   O26       1.0  0.34292  0.52948  0.95203  1.0000
  O   O27       1.0  0.34291  0.02948  0.54797  1.0000
  O   O28       1.0  0.65709  0.47052  0.04797  1.0000
  O   O29       1.0  0.28371  0.79608  0.06459  1.0000
  O   O30       1.0  0.71629  0.70393  0.56459  1.0000
  O   O31       1.0  0.71630  0.20392  0.93541  1.0000
  O   O32       1.0  0.28370  0.29608  0.43541  1.0000
