data_image0
_chemical_formula_structural       Zn2H28C40N8O8
_chemical_formula_sum              "Zn2 H28 C40 N8 O8"
_cell_length_a       7.45059
_cell_length_b       9.60391
_cell_length_c       13.4003
_cell_angle_alpha    104.381
_cell_angle_beta     90.0204
_cell_angle_gamma    112.795

_space_group_name_H-M_alt    "P 1"
_space_group_IT_number       1

loop_
  _space_group_symop_operation_xyz
  'x, y, z'

loop_
  _atom_site_type_symbol
  _atom_site_label
  _atom_site_symmetry_multiplicity
  _atom_site_fract_x
  _atom_site_fract_y
  _atom_site_fract_z
  _atom_site_occupancy
  Zn  Zn1       1.0  0.58796  0.99997  0.75019  1.0000
  Zn  Zn2       1.0  0.41204  0.00003  0.24981  1.0000
  H   H1        1.0  0.09207  0.56536  0.84438  1.0000
  H   H2        1.0  0.52665  0.43445  0.65538  1.0000
  H   H3        1.0  0.90793  0.43464  0.15562  1.0000
  H   H4        1.0  0.47335  0.56555  0.34462  1.0000
  H   H5        1.0  0.40104  0.24272  0.86992  1.0000
  H   H6        1.0  0.15783  0.75754  0.62994  1.0000
  H   H7        1.0  0.59896  0.75728  0.13008  1.0000
  H   H8        1.0  0.84217  0.24245  0.37006  1.0000
  H   H9        1.0  0.70942  0.34879  0.98216  1.0000
  H   H10       1.0  0.36030  0.65146  0.51792  1.0000
  H   H11       1.0  0.29058  0.65122  0.01784  1.0000
  H   H12       1.0  0.63970  0.34853  0.48208  1.0000
  H   H13       1.0  0.01915  0.10886  0.85832  1.0000
  H   H14       1.0  0.90976  0.89105  0.64167  1.0000
  H   H15       1.0  0.98085  0.89114  0.14168  1.0000
  H   H16       1.0  0.09024  0.10894  0.35833  1.0000
  H   H17       1.0  0.74978  0.36745  0.75404  1.0000
  H   H18       1.0  0.38232  0.63228  0.74591  1.0000
  H   H19       1.0  0.25022  0.63255  0.24596  1.0000
  H   H20       1.0  0.61768  0.36772  0.25410  1.0000
  H   H21       1.0  0.21077  0.85105  0.45776  1.0000
  H   H22       1.0  0.35963  0.14935  0.04224  1.0000
  H   H23       1.0  0.78923  0.14895  0.54223  1.0000
  H   H24       1.0  0.64038  0.85066  0.95777  1.0000
  H   H25       1.0  0.88233  0.75225  0.35813  1.0000
  H   H26       1.0  0.12971  0.24811  0.14157  1.0000
  H   H27       1.0  0.11766  0.24775  0.64186  1.0000
  H   H28       1.0  0.87030  0.75190  0.85843  1.0000
  C   C1        1.0  0.32174  0.43804  0.93538  1.0000
  C   C2        1.0  0.88353  0.56194  0.56445  1.0000
  C   C3        1.0  0.67826  0.56196  0.06462  1.0000
  C   C4        1.0  0.11647  0.43806  0.43555  1.0000
  C   C5        1.0  0.44332  0.35542  0.92711  1.0000
  C   C6        1.0  0.08756  0.64473  0.57284  1.0000
  C   C7        1.0  0.55668  0.64458  0.07289  1.0000
  C   C8        1.0  0.91244  0.35526  0.42716  1.0000
  C   C9        1.0  0.61796  0.41546  0.99102  1.0000
  C   C10       1.0  0.20224  0.58468  0.50903  1.0000
  C   C11       1.0  0.38204  0.58454  0.00898  1.0000
  C   C12       1.0  0.79776  0.41531  0.49097  1.0000
  C   C13       1.0  0.13118  0.36523  0.87394  1.0000
  C   C14       1.0  0.76558  0.63462  0.62580  1.0000
  C   C15       1.0  0.86882  0.63477  0.12606  1.0000
  C   C16       1.0  0.23441  0.36538  0.37420  1.0000
  C   C17       1.0  0.00230  0.20936  0.84399  1.0000
  C   C18       1.0  0.79253  0.79048  0.65593  1.0000
  C   C19       1.0  0.99770  0.79064  0.15601  1.0000
  C   C20       1.0  0.20747  0.20951  0.34407  1.0000
  C   C21       1.0  0.85811  0.34084  0.79034  1.0000
  C   C22       1.0  0.51716  0.65893  0.70960  1.0000
  C   C23       1.0  0.14189  0.65916  0.20966  1.0000
  C   C24       1.0  0.48284  0.34107  0.29040  1.0000
  C   C25       1.0  0.18426  0.05503  0.55620  1.0000
  C   C26       1.0  0.12940  0.94490  0.94395  1.0000
  C   C27       1.0  0.81573  0.94497  0.44379  1.0000
  C   C28       1.0  0.87061  0.05511  0.05606  1.0000
  C   C29       1.0  0.11764  0.91545  0.47597  1.0000
  C   C30       1.0  0.20216  0.08469  0.02402  1.0000
  C   C31       1.0  0.88236  0.08454  0.52403  1.0000
  C   C32       1.0  0.79785  0.91532  0.97598  1.0000
  C   C33       1.0  0.93430  0.86033  0.42072  1.0000
  C   C34       1.0  0.07381  0.13985  0.07910  1.0000
  C   C35       1.0  0.06570  0.13966  0.57927  1.0000
  C   C36       1.0  0.92620  0.86016  0.92090  1.0000
  C   C37       1.0  0.37252  0.10769  0.62331  1.0000
  C   C38       1.0  0.26507  0.89220  0.87694  1.0000
  C   C39       1.0  0.62748  0.89230  0.37668  1.0000
  C   C40       1.0  0.73494  0.10781  0.12306  1.0000
  N   N1        1.0  0.03498  0.44538  0.83908  1.0000
  N   N2        1.0  0.58943  0.55442  0.66069  1.0000
  N   N3        1.0  0.96501  0.55463  0.16092  1.0000
  N   N4        1.0  0.41056  0.44558  0.33931  1.0000
  N   N5        1.0  0.83306  0.19594  0.79297  1.0000
  N   N6        1.0  0.63689  0.80388  0.70707  1.0000
  N   N7        1.0  0.16693  0.80406  0.20703  1.0000
  N   N8        1.0  0.36311  0.19612  0.29293  1.0000
  O   O1        1.0  0.42089  0.99605  0.63306  1.0000
  O   O2        1.0  0.42515  0.00383  0.86740  1.0000
  O   O3        1.0  0.57911  0.00394  0.36694  1.0000
  O   O4        1.0  0.57485  0.99618  0.13259  1.0000
  O   O5        1.0  0.46575  0.25087  0.66848  1.0000
  O   O6        1.0  0.21522  0.74905  0.83170  1.0000
  O   O7        1.0  0.53426  0.74912  0.33151  1.0000
  O   O8        1.0  0.78478  0.25096  0.16831  1.0000
