data_image0
_chemical_formula_structural       Nd2H26C32N8O32
_chemical_formula_sum              "Nd2 H26 C32 N8 O32"
_cell_length_a       8.75938
_cell_length_b       8.93092
_cell_length_c       16.6192
_cell_angle_alpha    75.4586
_cell_angle_beta     76.8066
_cell_angle_gamma    62.18

_space_group_name_H-M_alt    "P 1"
_space_group_IT_number       1

loop_
  _space_group_symop_operation_xyz
  'x, y, z'

loop_
  _atom_site_type_symbol
  _atom_site_label
  _atom_site_symmetry_multiplicity
  _atom_site_fract_x
  _atom_site_fract_y
  _atom_site_fract_z
  _atom_site_occupancy
  Nd  Nd1       1.0  0.83498  0.75490  0.98735  1.0000
  Nd  Nd2       1.0  0.16501  0.24511  0.01265  1.0000
  H   H1        1.0  0.44687  0.88069  0.41217  1.0000
  H   H2        1.0  0.55313  0.11929  0.58783  1.0000
  H   H3        1.0  0.90321  0.96844  0.30800  1.0000
  H   H4        1.0  0.09680  0.03154  0.69200  1.0000
  H   H5        1.0  0.82684  0.02492  0.16341  1.0000
  H   H6        1.0  0.17317  0.97507  0.83659  1.0000
  H   H7        1.0  0.41411  0.65854  0.56256  1.0000
  H   H8        1.0  0.58590  0.34145  0.43744  1.0000
  H   H9        1.0  0.96210  0.58345  0.56109  1.0000
  H   H10       1.0  0.03790  0.41655  0.43891  1.0000
  H   H11       1.0  0.91780  0.53169  0.71594  1.0000
  H   H12       1.0  0.08220  0.46831  0.28406  1.0000
  H   H13       1.0  0.35989  0.39842  0.11778  1.0000
  H   H14       1.0  0.64011  0.60159  0.88222  1.0000
  H   H15       1.0  0.41886  0.57075  0.07269  1.0000
  H   H16       1.0  0.58114  0.42926  0.92731  1.0000
  H   H17       1.0  0.26681  0.58795  0.16406  1.0000
  H   H18       1.0  0.73318  0.41206  0.83594  1.0000
  H   H19       1.0  0.51925  0.74055  0.11428  1.0000
  H   H20       1.0  0.48074  0.25947  0.88572  1.0000
  H   H21       1.0  0.44928  0.84184  0.02590  1.0000
  H   H22       1.0  0.55072  0.15817  0.97410  1.0000
  H   H23       1.0  0.89519  0.08952  0.92042  1.0000
  H   H24       1.0  0.10481  0.91049  0.07958  1.0000
  H   H25       1.0  0.82298  0.06244  0.84706  1.0000
  H   H26       1.0  0.17701  0.93757  0.15294  1.0000
  C   C1        1.0  0.54090  0.04035  0.11985  1.0000
  C   C2        1.0  0.45909  0.95965  0.88015  1.0000
  C   C3        1.0  0.59532  0.98537  0.20615  1.0000
  C   C4        1.0  0.40468  0.01463  0.79385  1.0000
  C   C5        1.0  0.49144  0.94357  0.27729  1.0000
  C   C6        1.0  0.50856  0.05643  0.72271  1.0000
  C   C7        1.0  0.52967  0.91244  0.35805  1.0000
  C   C8        1.0  0.47032  0.08756  0.64195  1.0000
  C   C9        1.0  0.67840  0.92328  0.36663  1.0000
  C   C10       1.0  0.32160  0.07671  0.63337  1.0000
  C   C11       1.0  0.78767  0.96203  0.29820  1.0000
  C   C12       1.0  0.21233  0.03795  0.70179  1.0000
  C   C13       1.0  0.74522  0.99188  0.21800  1.0000
  C   C14       1.0  0.25479  0.00810  0.78200  1.0000
  C   C15       1.0  0.10221  0.53489  0.82295  1.0000
  C   C16       1.0  0.89780  0.46511  0.17705  1.0000
  C   C17       1.0  0.14151  0.56240  0.72829  1.0000
  C   C18       1.0  0.85850  0.43760  0.27171  1.0000
  C   C19       1.0  0.27980  0.59905  0.68285  1.0000
  C   C20       1.0  0.72020  0.40095  0.31715  1.0000
  C   C21       1.0  0.30651  0.62957  0.59569  1.0000
  C   C22       1.0  0.69349  0.37042  0.40431  1.0000
  C   C23       1.0  0.19145  0.62198  0.55332  1.0000
  C   C24       1.0  0.80855  0.37801  0.44668  1.0000
  C   C25       1.0  0.05137  0.58702  0.59565  1.0000
  C   C26       1.0  0.94863  0.41298  0.40436  1.0000
  C   C27       1.0  0.02797  0.55714  0.68268  1.0000
  C   C28       1.0  0.97203  0.44286  0.31732  1.0000
  C   C29       1.0  0.31137  0.53791  0.10480  1.0000
  C   C30       1.0  0.68863  0.46210  0.89520  1.0000
  C   C31       1.0  0.16804  0.61995  0.05133  1.0000
  C   C32       1.0  0.83195  0.38006  0.94867  1.0000
  N   N1        1.0  0.33570  0.92847  0.26896  1.0000
  N   N2        1.0  0.66430  0.07154  0.73104  1.0000
  N   N3        1.0  0.71737  0.89590  0.45189  1.0000
  N   N4        1.0  0.28262  0.10409  0.54811  1.0000
  N   N5        1.0  0.40168  0.60880  0.72693  1.0000
  N   N6        1.0  0.59832  0.39120  0.27307  1.0000
  N   N7        1.0  0.21981  0.65055  0.46157  1.0000
  N   N8        1.0  0.78020  0.34944  0.53843  1.0000
  O   O1        1.0  0.66065  0.01180  0.05741  1.0000
  O   O2        1.0  0.33934  0.98821  0.94259  1.0000
  O   O3        1.0  0.37920  0.11727  0.11536  1.0000
  O   O4        1.0  0.62080  0.88273  0.88464  1.0000
  O   O5        1.0  0.54925  0.74760  0.05361  1.0000
  O   O6        1.0  0.45075  0.25241  0.94640  1.0000
  O   O7        1.0  0.35597  0.82627  0.22355  1.0000
  O   O8        1.0  0.64404  0.17373  0.77645  1.0000
  O   O9        1.0  0.88131  0.00277  0.89734  1.0000
  O   O10       1.0  0.11869  0.99724  0.10266  1.0000
  O   O11       1.0  0.19687  0.01192  0.30880  1.0000
  O   O12       1.0  0.80313  0.98807  0.69120  1.0000
  O   O13       1.0  0.66225  0.80433  0.50781  1.0000
  O   O14       1.0  0.33774  0.19567  0.49218  1.0000
  O   O15       1.0  0.80140  0.96688  0.46311  1.0000
  O   O16       1.0  0.19859  0.03311  0.53689  1.0000
  O   O17       1.0  0.16718  0.38141  0.86110  1.0000
  O   O18       1.0  0.83282  0.61860  0.13890  1.0000
  O   O19       1.0  0.99571  0.66901  0.85270  1.0000
  O   O20       1.0  0.00429  0.33100  0.14730  1.0000
  O   O21       1.0  0.37411  0.58755  0.80472  1.0000
  O   O22       1.0  0.62589  0.41245  0.19528  1.0000
  O   O23       1.0  0.52329  0.63942  0.68460  1.0000
  O   O24       1.0  0.47671  0.36057  0.31540  1.0000
  O   O25       1.0  0.34942  0.67517  0.42614  1.0000
  O   O26       1.0  0.65059  0.32482  0.57387  1.0000
  O   O27       1.0  0.11474  0.64729  0.42387  1.0000
  O   O28       1.0  0.88526  0.35271  0.57613  1.0000
  O   O29       1.0  0.13837  0.52863  0.01399  1.0000
  O   O30       1.0  0.86163  0.47139  0.98601  1.0000
  O   O31       1.0  0.07045  0.78147  0.04230  1.0000
  O   O32       1.0  0.92954  0.21854  0.95770  1.0000
