data_image0
_chemical_formula_structural       Zn4H20C32N8O16
_chemical_formula_sum              "Zn4 H20 C32 N8 O16"
_cell_length_a       8.27247
_cell_length_b       9.21091
_cell_length_c       12.4327
_cell_angle_alpha    104.625
_cell_angle_beta     90.0005
_cell_angle_gamma    89.9995

_space_group_name_H-M_alt    "P 1"
_space_group_IT_number       1

loop_
  _space_group_symop_operation_xyz
  'x, y, z'

loop_
  _atom_site_type_symbol
  _atom_site_label
  _atom_site_symmetry_multiplicity
  _atom_site_fract_x
  _atom_site_fract_y
  _atom_site_fract_z
  _atom_site_occupancy
  Zn  Zn1       1.0  0.05388  0.86896  0.87966  1.0000
  Zn  Zn2       1.0  0.55388  0.63104  0.12033  1.0000
  Zn  Zn3       1.0  0.94612  0.13105  0.12034  1.0000
  Zn  Zn4       1.0  0.44612  0.36896  0.87967  1.0000
  H   H1        1.0  0.33507  0.69799  0.62579  1.0000
  H   H2        1.0  0.83508  0.80201  0.37421  1.0000
  H   H3        1.0  0.66493  0.30200  0.37421  1.0000
  H   H4        1.0  0.16493  0.19800  0.62579  1.0000
  H   H5        1.0  0.79842  0.49637  0.51672  1.0000
  H   H6        1.0  0.29842  0.00364  0.48328  1.0000
  H   H7        1.0  0.20158  0.50363  0.48328  1.0000
  H   H8        1.0  0.70158  0.99637  0.51672  1.0000
  H   H9        1.0  0.92134  0.65852  0.66233  1.0000
  H   H10       1.0  0.42134  0.84147  0.33767  1.0000
  H   H11       1.0  0.07866  0.34148  0.33768  1.0000
  H   H12       1.0  0.57866  0.15852  0.66233  1.0000
  H   H13       1.0  0.68012  0.01830  0.87982  1.0000
  H   H14       1.0  0.18011  0.48170  0.12018  1.0000
  H   H15       1.0  0.31988  0.98170  0.12018  1.0000
  H   H16       1.0  0.81989  0.51830  0.87982  1.0000
  H   H17       1.0  0.46925  0.87322  0.74566  1.0000
  H   H18       1.0  0.96926  0.62678  0.25434  1.0000
  H   H19       1.0  0.53074  0.12677  0.25434  1.0000
  H   H20       1.0  0.03074  0.37322  0.74566  1.0000
  C   C1        1.0  0.40877  0.61213  0.57092  1.0000
  C   C2        1.0  0.90878  0.88788  0.42907  1.0000
  C   C3        1.0  0.59123  0.38787  0.42908  1.0000
  C   C4        1.0  0.09123  0.11213  0.57092  1.0000
  C   C5        1.0  0.57797  0.61273  0.58231  1.0000
  C   C6        1.0  0.07797  0.88727  0.41769  1.0000
  C   C7        1.0  0.42203  0.38727  0.41769  1.0000
  C   C8        1.0  0.92203  0.11273  0.58231  1.0000
  C   C9        1.0  0.66714  0.49859  0.50970  1.0000
  C   C10       1.0  0.16714  0.00141  0.49030  1.0000
  C   C11       1.0  0.33286  0.50140  0.49030  1.0000
  C   C12       1.0  0.83286  0.99860  0.50970  1.0000
  C   C13       1.0  0.66176  0.72384  0.66764  1.0000
  C   C14       1.0  0.16176  0.77617  0.33236  1.0000
  C   C15       1.0  0.33824  0.27616  0.33236  1.0000
  C   C16       1.0  0.83824  0.22384  0.66764  1.0000
  C   C17       1.0  0.82298  0.73257  0.69718  1.0000
  C   C18       1.0  0.32298  0.76742  0.30282  1.0000
  C   C19       1.0  0.17702  0.26743  0.30282  1.0000
  C   C20       1.0  0.67702  0.23257  0.69719  1.0000
  C   C21       1.0  0.70310  0.91875  0.81311  1.0000
  C   C22       1.0  0.20310  0.58125  0.18689  1.0000
  C   C23       1.0  0.29689  0.08125  0.18689  1.0000
  C   C24       1.0  0.79690  0.41875  0.81311  1.0000
  C   C25       1.0  0.21724  0.58021  0.83260  1.0000
  C   C26       1.0  0.71722  0.91979  0.16738  1.0000
  C   C27       1.0  0.78276  0.41979  0.16740  1.0000
  C   C28       1.0  0.28277  0.08021  0.83261  1.0000
  C   C29       1.0  0.31448  0.67443  0.93292  1.0000
  C   C30       1.0  0.81446  0.82557  0.06707  1.0000
  C   C31       1.0  0.68553  0.32557  0.06709  1.0000
  C   C32       1.0  0.18554  0.17443  0.93293  1.0000
  N   N1        1.0  0.84686  0.85246  0.78766  1.0000
  N   N2        1.0  0.34686  0.64753  0.21233  1.0000
  N   N3        1.0  0.15313  0.14755  0.21234  1.0000
  N   N4        1.0  0.65314  0.35245  0.78767  1.0000
  N   N5        1.0  0.58920  0.84372  0.74253  1.0000
  N   N6        1.0  0.08921  0.65628  0.25747  1.0000
  N   N7        1.0  0.41079  0.15628  0.25747  1.0000
  N   N8        1.0  0.91079  0.34372  0.74253  1.0000
  O   O1        1.0  0.09923  0.64424  0.79957  1.0000
  O   O2        1.0  0.59923  0.85576  0.20042  1.0000
  O   O3        1.0  0.90076  0.35577  0.20044  1.0000
  O   O4        1.0  0.40077  0.14423  0.79957  1.0000
  O   O5        1.0  0.25731  0.44444  0.79147  1.0000
  O   O6        1.0  0.75730  0.05556  0.20853  1.0000
  O   O7        1.0  0.74269  0.55556  0.20854  1.0000
  O   O8        1.0  0.24270  0.94443  0.79147  1.0000
  O   O9        1.0  0.43211  0.60482  0.96461  1.0000
  O   O10       1.0  0.93209  0.89519  0.03537  1.0000
  O   O11       1.0  0.56789  0.39517  0.03539  1.0000
  O   O12       1.0  0.06791  0.10481  0.96463  1.0000
  O   O13       1.0  0.27064  0.80648  0.97496  1.0000
  O   O14       1.0  0.77064  0.69353  0.02503  1.0000
  O   O15       1.0  0.72936  0.19352  0.02505  1.0000
  O   O16       1.0  0.22937  0.30647  0.97496  1.0000
