data_image0
_chemical_formula_structural       Hg4H44C40Br4N40
_chemical_formula_sum              "Hg4 H44 C40 Br4 N40"
_cell_length_a       9.99803
_cell_length_b       12.0995
_cell_length_c       13.0073
_cell_angle_alpha    90
_cell_angle_beta     90
_cell_angle_gamma    101.678

_space_group_name_H-M_alt    "P 1"
_space_group_IT_number       1

loop_
  _space_group_symop_operation_xyz
  'x, y, z'

loop_
  _atom_site_type_symbol
  _atom_site_label
  _atom_site_symmetry_multiplicity
  _atom_site_fract_x
  _atom_site_fract_y
  _atom_site_fract_z
  _atom_site_occupancy
  Hg  Hg1       1.0  0.35261  0.59772  0.91356  1.0000
  Hg  Hg2       1.0  0.14739  0.90227  0.41356  1.0000
  Hg  Hg3       1.0  0.64739  0.40227  0.08644  1.0000
  Hg  Hg4       1.0  0.85261  0.09773  0.58644  1.0000
  H   H1        1.0  0.04484  0.63258  0.66960  1.0000
  H   H2        1.0  0.45516  0.86742  0.16960  1.0000
  H   H3        1.0  0.95516  0.36742  0.33040  1.0000
  H   H4        1.0  0.54484  0.13258  0.83040  1.0000
  H   H5        1.0  0.16061  0.65149  0.77276  1.0000
  H   H6        1.0  0.33939  0.84851  0.27276  1.0000
  H   H7        1.0  0.83940  0.34851  0.22724  1.0000
  H   H8        1.0  0.66060  0.15149  0.72724  1.0000
  H   H9        1.0  0.92806  0.51979  0.57775  1.0000
  H   H10       1.0  0.57194  0.98021  0.07775  1.0000
  H   H11       1.0  0.07194  0.48021  0.42225  1.0000
  H   H12       1.0  0.42806  0.01979  0.92225  1.0000
  H   H13       1.0  0.89837  0.37585  0.54037  1.0000
  H   H14       1.0  0.60163  0.12415  0.04037  1.0000
  H   H15       1.0  0.10163  0.62415  0.45963  1.0000
  H   H16       1.0  0.39837  0.87585  0.95963  1.0000
  H   H17       1.0  0.67783  0.43903  0.56008  1.0000
  H   H18       1.0  0.82217  0.06097  0.06008  1.0000
  H   H19       1.0  0.32217  0.56097  0.43992  1.0000
  H   H20       1.0  0.17783  0.93903  0.93992  1.0000
  H   H21       1.0  0.71606  0.47487  0.69131  1.0000
  H   H22       1.0  0.78394  0.02513  0.19131  1.0000
  H   H23       1.0  0.28394  0.52513  0.30869  1.0000
  H   H24       1.0  0.21606  0.97487  0.80869  1.0000
  H   H25       1.0  0.69086  0.33248  0.65068  1.0000
  H   H26       1.0  0.80914  0.16752  0.15068  1.0000
  H   H27       1.0  0.30914  0.66752  0.34932  1.0000
  H   H28       1.0  0.19086  0.83248  0.84932  1.0000
  H   H29       1.0  0.95888  0.74101  0.80828  1.0000
  H   H30       1.0  0.54112  0.75899  0.30828  1.0000
  H   H31       1.0  0.04112  0.25899  0.19172  1.0000
  H   H32       1.0  0.45888  0.24101  0.69172  1.0000
  H   H33       1.0  0.96979  0.63245  0.89925  1.0000
  H   H34       1.0  0.53021  0.86755  0.39926  1.0000
  H   H35       1.0  0.03021  0.36755  0.10075  1.0000
  H   H36       1.0  0.46979  0.13245  0.60074  1.0000
  H   H37       1.0  0.84711  0.60678  0.79886  1.0000
  H   H38       1.0  0.65289  0.89322  0.29886  1.0000
  H   H39       1.0  0.15289  0.39322  0.20114  1.0000
  H   H40       1.0  0.34711  0.10678  0.70114  1.0000
  H   H41       1.0  0.11855  0.14626  0.99107  1.0000
  H   H42       1.0  0.38145  0.35374  0.49107  1.0000
  H   H43       1.0  0.88145  0.85374  0.00893  1.0000
  H   H44       1.0  0.61855  0.64626  0.50893  1.0000
  C   C1        1.0  0.10714  0.33731  0.85341  1.0000
  C   C2        1.0  0.39286  0.16269  0.35342  1.0000
  C   C3        1.0  0.89286  0.66269  0.14659  1.0000
  C   C4        1.0  0.60714  0.83731  0.64659  1.0000
  C   C5        1.0  0.20287  0.31220  0.93141  1.0000
  C   C6        1.0  0.29712  0.18780  0.43141  1.0000
  C   C7        1.0  0.79712  0.68780  0.06859  1.0000
  C   C8        1.0  0.70288  0.81220  0.56859  1.0000
  C   C9        1.0  0.04724  0.48387  0.75937  1.0000
  C   C10       1.0  0.45276  0.01613  0.25937  1.0000
  C   C11       1.0  0.95276  0.51613  0.24063  1.0000
  C   C12       1.0  0.54724  0.98387  0.74063  1.0000
  C   C13       1.0  0.01451  0.25800  0.79480  1.0000
  C   C14       1.0  0.48549  0.24200  0.29480  1.0000
  C   C15       1.0  0.98549  0.74200  0.20520  1.0000
  C   C16       1.0  0.51451  0.75800  0.70520  1.0000
  C   C17       1.0  0.97792  0.13627  0.81192  1.0000
  C   C18       1.0  0.52208  0.36373  0.31193  1.0000
  C   C19       1.0  0.02208  0.86373  0.18808  1.0000
  C   C20       1.0  0.47792  0.63627  0.68808  1.0000
  C   C21       1.0  0.05709  0.60876  0.74987  1.0000
  C   C22       1.0  0.44291  0.89124  0.24988  1.0000
  C   C23       1.0  0.94291  0.39124  0.25012  1.0000
  C   C24       1.0  0.55709  0.10876  0.75012  1.0000
  C   C25       1.0  0.96455  0.40362  0.69413  1.0000
  C   C26       1.0  0.53545  0.09638  0.19413  1.0000
  C   C27       1.0  0.03545  0.59638  0.30587  1.0000
  C   C28       1.0  0.46455  0.90362  0.80587  1.0000
  C   C29       1.0  0.88638  0.43351  0.60358  1.0000
  C   C30       1.0  0.61362  0.06650  0.10358  1.0000
  C   C31       1.0  0.11361  0.56649  0.39642  1.0000
  C   C32       1.0  0.38638  0.93350  0.89642  1.0000
  C   C33       1.0  0.73384  0.41968  0.62787  1.0000
  C   C34       1.0  0.76616  0.08032  0.12787  1.0000
  C   C35       1.0  0.26616  0.58032  0.37213  1.0000
  C   C36       1.0  0.23384  0.91968  0.87213  1.0000
  C   C37       1.0  0.95164  0.64989  0.81813  1.0000
  C   C38       1.0  0.54836  0.85011  0.31813  1.0000
  C   C39       1.0  0.04836  0.35011  0.18187  1.0000
  C   C40       1.0  0.45164  0.14989  0.68187  1.0000
  Br  Br1       1.0  0.26303  0.66584  0.07300  1.0000
  Br  Br2       1.0  0.23697  0.83416  0.57300  1.0000
  Br  Br3       1.0  0.73697  0.33416  0.92700  1.0000
  Br  Br4       1.0  0.76303  0.16584  0.42700  1.0000
  N   N1        1.0  0.98573  0.08079  0.90005  1.0000
  N   N2        1.0  0.51426  0.41921  0.40006  1.0000
  N   N3        1.0  0.01426  0.91921  0.09995  1.0000
  N   N4        1.0  0.48574  0.58079  0.59994  1.0000
  N   N5        1.0  0.37851  0.33250  0.03056  1.0000
  N   N6        1.0  0.12149  0.16750  0.53056  1.0000
  N   N7        1.0  0.62149  0.66750  0.96944  1.0000
  N   N8        1.0  0.87851  0.83250  0.46944  1.0000
  N   N9        1.0  0.88795  0.95985  0.78457  1.0000
  N   N10       1.0  0.61205  0.54014  0.28457  1.0000
  N   N11       1.0  0.11205  0.04014  0.21543  1.0000
  N   N12       1.0  0.38795  0.45986  0.71543  1.0000
  N   N13       1.0  0.92881  0.97188  0.88072  1.0000
  N   N14       1.0  0.57119  0.52812  0.38072  1.0000
  N   N15       1.0  0.07119  0.02812  0.11928  1.0000
  N   N16       1.0  0.42881  0.47188  0.61928  1.0000
  N   N17       1.0  0.94906  0.29399  0.71515  1.0000
  N   N18       1.0  0.55094  0.20601  0.21515  1.0000
  N   N19       1.0  0.05094  0.70601  0.28485  1.0000
  N   N20       1.0  0.44906  0.79399  0.78485  1.0000
  N   N21       1.0  0.31788  0.38441  0.95804  1.0000
  N   N22       1.0  0.18212  0.11559  0.45804  1.0000
  N   N23       1.0  0.68212  0.61559  0.04196  1.0000
  N   N24       1.0  0.81788  0.88441  0.54196  1.0000
  N   N25       1.0  0.19723  0.21849  0.98888  1.0000
  N   N26       1.0  0.30277  0.28151  0.48888  1.0000
  N   N27       1.0  0.80277  0.78151  0.01112  1.0000
  N   N28       1.0  0.69723  0.71849  0.51112  1.0000
  N   N29       1.0  0.11816  0.44809  0.83488  1.0000
  N   N30       1.0  0.38184  0.05191  0.33488  1.0000
  N   N31       1.0  0.88184  0.55191  0.16512  1.0000
  N   N32       1.0  0.61816  0.94809  0.66512  1.0000
  N   N33       1.0  0.30696  0.23175  0.05024  1.0000
  N   N34       1.0  0.19304  0.26825  0.55024  1.0000
  N   N35       1.0  0.69304  0.76825  0.94976  1.0000
  N   N36       1.0  0.80696  0.73175  0.44975  1.0000
  N   N37       1.0  0.91775  0.06186  0.73994  1.0000
  N   N38       1.0  0.58225  0.43813  0.23994  1.0000
  N   N39       1.0  0.08225  0.93814  0.26006  1.0000
  N   N40       1.0  0.41775  0.56187  0.76006  1.0000
