data_image0
_chemical_formula_structural       Cd4Fe2H28C24O32
_chemical_formula_sum              "Cd4 Fe2 H28 C24 O32"
_cell_length_a       6.03738
_cell_length_b       9.84533
_cell_length_c       14.816
_cell_angle_alpha    89.999
_cell_angle_beta     90.0005
_cell_angle_gamma    101.339

_space_group_name_H-M_alt    "P 1"
_space_group_IT_number       1

loop_
  _space_group_symop_operation_xyz
  'x, y, z'

loop_
  _atom_site_type_symbol
  _atom_site_label
  _atom_site_symmetry_multiplicity
  _atom_site_fract_x
  _atom_site_fract_y
  _atom_site_fract_z
  _atom_site_occupancy
  Cd  Cd1       1.0  0.58796  0.83436  0.40243  1.0000
  Cd  Cd2       1.0  0.41203  0.66564  0.90242  1.0000
  Cd  Cd3       1.0  0.41204  0.16564  0.59758  1.0000
  Cd  Cd4       1.0  0.58796  0.33436  0.09757  1.0000
  Fe  Fe1       1.0  1.00000  0.50000  0.50000  1.0000
  Fe  Fe2       1.0  0.00000  1.00000  1.00000  1.0000
  H   H1        1.0  0.19149  0.88068  0.46714  1.0000
  H   H2        1.0  0.80851  0.61932  0.96713  1.0000
  H   H3        1.0  0.80851  0.11932  0.53286  1.0000
  H   H4        1.0  0.19149  0.38068  0.03286  1.0000
  H   H5        1.0  0.27945  0.01546  0.41367  1.0000
  H   H6        1.0  0.72055  0.48454  0.91368  1.0000
  H   H7        1.0  0.72056  0.98454  0.58633  1.0000
  H   H8        1.0  0.27944  0.51545  0.08632  1.0000
  H   H9        1.0  0.82731  0.83675  0.73054  1.0000
  H   H10       1.0  0.17270  0.66325  0.23054  1.0000
  H   H11       1.0  0.17270  0.16325  0.26946  1.0000
  H   H12       1.0  0.82730  0.33675  0.76946  1.0000
  H   H13       1.0  0.05931  0.76707  0.76525  1.0000
  H   H14       1.0  0.94069  0.73293  0.26525  1.0000
  H   H15       1.0  0.94071  0.23293  0.23475  1.0000
  H   H16       1.0  0.05930  0.26708  0.73475  1.0000
  H   H17       1.0  0.75800  0.56278  0.75496  1.0000
  H   H18       1.0  0.24201  0.93722  0.25496  1.0000
  H   H19       1.0  0.24201  0.43722  0.24504  1.0000
  H   H20       1.0  0.75799  0.06278  0.74504  1.0000
  H   H21       1.0  0.56104  0.62692  0.68889  1.0000
  H   H22       1.0  0.43897  0.87307  0.18889  1.0000
  H   H23       1.0  0.43897  0.37308  0.31111  1.0000
  H   H24       1.0  0.56103  0.12693  0.81111  1.0000
  H   H25       1.0  0.13177  0.56856  0.67593  1.0000
  H   H26       1.0  0.86824  0.93145  0.17593  1.0000
  H   H27       1.0  0.86823  0.43144  0.32407  1.0000
  H   H28       1.0  0.13176  0.06855  0.82407  1.0000
  C   C1        1.0  0.81913  0.72725  0.55069  1.0000
  C   C2        1.0  0.18089  0.77274  0.05069  1.0000
  C   C3        1.0  0.18089  0.27275  0.44931  1.0000
  C   C4        1.0  0.81911  0.22726  0.94931  1.0000
  C   C5        1.0  0.90608  0.68254  0.64056  1.0000
  C   C6        1.0  0.09394  0.81747  0.14055  1.0000
  C   C7        1.0  0.09393  0.31747  0.35944  1.0000
  C   C8        1.0  0.90606  0.18253  0.85945  1.0000
  C   C9        1.0  0.97965  0.80362  0.70564  1.0000
  C   C10       1.0  0.02033  0.69639  0.20564  1.0000
  C   C11       1.0  0.02036  0.19639  0.29436  1.0000
  C   C12       1.0  0.97967  0.30362  0.79436  1.0000
  C   C13       1.0  0.13717  0.92927  0.66851  1.0000
  C   C14       1.0  0.86284  0.57073  0.16851  1.0000
  C   C15       1.0  0.86283  0.07073  0.33149  1.0000
  C   C16       1.0  0.13716  0.42927  0.83149  1.0000
  C   C17       1.0  0.71145  0.57978  0.68475  1.0000
  C   C18       1.0  0.28855  0.92023  0.18475  1.0000
  C   C19       1.0  0.28855  0.42023  0.31525  1.0000
  C   C20       1.0  0.71145  0.07977  0.81525  1.0000
  C   C21       1.0  0.64107  0.43975  0.64015  1.0000
  C   C22       1.0  0.35893  0.06025  0.14015  1.0000
  C   C23       1.0  0.35894  0.56025  0.35985  1.0000
  C   C24       1.0  0.64106  0.93975  0.85985  1.0000
  O   O1        1.0  0.86037  0.66451  0.47925  1.0000
  O   O2        1.0  0.13963  0.83549  0.97924  1.0000
  O   O3        1.0  0.13963  0.33549  0.52075  1.0000
  O   O4        1.0  0.86037  0.16451  0.02076  1.0000
  O   O5        1.0  0.69554  0.81859  0.55001  1.0000
  O   O6        1.0  0.30444  0.68142  0.05001  1.0000
  O   O7        1.0  0.30447  0.18141  0.44999  1.0000
  O   O8        1.0  0.69555  0.31858  0.94999  1.0000
  O   O9        1.0  0.20646  0.93179  0.58746  1.0000
  O   O10       1.0  0.79353  0.56821  0.08747  1.0000
  O   O11       1.0  0.79355  0.06822  0.41254  1.0000
  O   O12       1.0  0.20645  0.43179  0.91253  1.0000
  O   O13       1.0  0.19573  0.03515  0.71974  1.0000
  O   O14       1.0  0.80428  0.46485  0.21975  1.0000
  O   O15       1.0  0.80428  0.96485  0.28025  1.0000
  O   O16       1.0  0.19572  0.53515  0.78025  1.0000
  O   O17       1.0  0.72285  0.40631  0.56571  1.0000
  O   O18       1.0  0.27715  0.09369  0.06571  1.0000
  O   O19       1.0  0.27714  0.59369  0.43429  1.0000
  O   O20       1.0  0.72285  0.90631  0.93429  1.0000
  O   O21       1.0  0.49278  0.35314  0.68337  1.0000
  O   O22       1.0  0.50721  0.14685  0.18337  1.0000
  O   O23       1.0  0.50722  0.64686  0.31663  1.0000
  O   O24       1.0  0.49278  0.85315  0.81663  1.0000
  O   O25       1.0  0.09190  0.61495  0.61887  1.0000
  O   O26       1.0  0.90810  0.88505  0.11888  1.0000
  O   O27       1.0  0.90811  0.38505  0.38113  1.0000
  O   O28       1.0  0.09191  0.11495  0.88112  1.0000
  O   O29       1.0  0.25422  0.91271  0.40759  1.0000
  O   O30       1.0  0.74578  0.58729  0.90759  1.0000
  O   O31       1.0  0.74578  0.08729  0.59240  1.0000
  O   O32       1.0  0.25422  0.41271  0.09240  1.0000
