data_image0
_chemical_formula_structural       CdH28C46N8O6
_chemical_formula_sum              "Cd1 H28 C46 N8 O6"
_cell_length_a       8.6599
_cell_length_b       10.5578
_cell_length_c       11.2559
_cell_angle_alpha    62.6809
_cell_angle_beta     80.5074
_cell_angle_gamma    77.4205

_space_group_name_H-M_alt    "P 1"
_space_group_IT_number       1

loop_
  _space_group_symop_operation_xyz
  'x, y, z'

loop_
  _atom_site_type_symbol
  _atom_site_label
  _atom_site_symmetry_multiplicity
  _atom_site_fract_x
  _atom_site_fract_y
  _atom_site_fract_z
  _atom_site_occupancy
  Cd  Cd1       1.0  0.50000  0.50000  0.50000  1.0000
  H   H1        1.0  0.20860  0.88643  0.11372  1.0000
  H   H2        1.0  0.79140  0.11357  0.88628  1.0000
  H   H3        1.0  0.64318  0.67388  0.62731  1.0000
  H   H4        1.0  0.35682  0.32612  0.37269  1.0000
  H   H5        1.0  0.87516  0.63979  0.49413  1.0000
  H   H6        1.0  0.12484  0.36022  0.50587  1.0000
  H   H7        1.0  0.05599  0.75882  0.29577  1.0000
  H   H8        1.0  0.94401  0.24119  0.70423  1.0000
  H   H9        1.0  0.62618  0.05532  0.45593  1.0000
  H   H10       1.0  0.37381  0.94468  0.54407  1.0000
  H   H11       1.0  0.26963  0.69927  0.95722  1.0000
  H   H12       1.0  0.73037  0.30073  0.04279  1.0000
  H   H13       1.0  0.66898  0.15289  0.58358  1.0000
  H   H14       1.0  0.33102  0.84711  0.41642  1.0000
  H   H15       1.0  0.18428  0.72237  0.53900  1.0000
  H   H16       1.0  0.81573  0.27763  0.46099  1.0000
  H   H17       1.0  0.92706  0.49159  0.91416  1.0000
  H   H18       1.0  0.07294  0.50841  0.08584  1.0000
  H   H19       1.0  0.80878  0.17497  0.25804  1.0000
  H   H20       1.0  0.19121  0.82504  0.74196  1.0000
  H   H21       1.0  0.59992  0.36487  0.22716  1.0000
  H   H22       1.0  0.40007  0.63513  0.77285  1.0000
  H   H23       1.0  0.63866  0.90593  0.75948  1.0000
  H   H24       1.0  0.36134  0.09407  0.24052  1.0000
  H   H25       1.0  0.42444  0.87779  0.94578  1.0000
  H   H26       1.0  0.57556  0.12220  0.05422  1.0000
  H   H27       1.0  0.96375  0.72546  0.71064  1.0000
  H   H28       1.0  0.03626  0.27454  0.28936  1.0000
  C   C1        1.0  0.16820  0.62352  0.62925  1.0000
  C   C2        1.0  0.83181  0.37648  0.37075  1.0000
  C   C3        1.0  0.04266  0.62485  0.72522  1.0000
  C   C4        1.0  0.95734  0.37515  0.27478  1.0000
  C   C5        1.0  0.02298  0.49698  0.83684  1.0000
  C   C6        1.0  0.97703  0.50302  0.16316  1.0000
  C   C7        1.0  0.12782  0.36947  0.85024  1.0000
  C   C8        1.0  0.87218  0.63053  0.14976  1.0000
  C   C9        1.0  0.11299  0.23181  0.95975  1.0000
  C   C10       1.0  0.88701  0.76819  0.04024  1.0000
  C   C11       1.0  0.21245  0.10616  0.96390  1.0000
  C   C12       1.0  0.78755  0.89384  0.03610  1.0000
  C   C13       1.0  0.33839  0.10808  0.86492  1.0000
  C   C14       1.0  0.66161  0.89191  0.13508  1.0000
  C   C15       1.0  0.44090  0.98403  0.86571  1.0000
  C   C16       1.0  0.55910  0.01597  0.13429  1.0000
  C   C17       1.0  0.55966  0.99935  0.76412  1.0000
  C   C18       1.0  0.44034  0.00065  0.23588  1.0000
  C   C19       1.0  0.57532  0.13859  0.66380  1.0000
  C   C20       1.0  0.42468  0.86141  0.33620  1.0000
  C   C21       1.0  0.36037  0.24604  0.75698  1.0000
  C   C22       1.0  0.63963  0.75396  0.24302  1.0000
  C   C23       1.0  0.25263  0.37667  0.74857  1.0000
  C   C24       1.0  0.74737  0.62333  0.25143  1.0000
  C   C25       1.0  0.03638  0.05552  0.13969  1.0000
  C   C26       1.0  0.96362  0.94448  0.86031  1.0000
  C   C27       1.0  0.94518  0.97655  0.26320  1.0000
  C   C28       1.0  0.05482  0.02346  0.73680  1.0000
  C   C29       1.0  0.82458  0.05777  0.31230  1.0000
  C   C30       1.0  0.17541  0.94223  0.68770  1.0000
  C   C31       1.0  0.72477  0.99147  0.42373  1.0000
  C   C32       1.0  0.27523  0.00853  0.57627  1.0000
  C   C33       1.0  0.74222  0.83990  0.49086  1.0000
  C   C34       1.0  0.25777  0.16011  0.50914  1.0000
  C   C35       1.0  0.86315  0.75732  0.44346  1.0000
  C   C36       1.0  0.13685  0.24269  0.55654  1.0000
  C   C37       1.0  0.96377  0.82487  0.33141  1.0000
  C   C38       1.0  0.03623  0.17513  0.66859  1.0000
  C   C39       1.0  0.35383  0.58186  0.21209  1.0000
  C   C40       1.0  0.64617  0.41813  0.78792  1.0000
  C   C41       1.0  0.42810  0.53732  0.10351  1.0000
  C   C42       1.0  0.57189  0.46268  0.89649  1.0000
  C   C43       1.0  0.37215  0.61344  0.97495  1.0000
  C   C44       1.0  0.62784  0.38656  0.02505  1.0000
  C   C45       1.0  0.55622  0.42352  0.12751  1.0000
  C   C46       1.0  0.44377  0.57648  0.87250  1.0000
  N   N1        1.0  0.47918  0.25754  0.65954  1.0000
  N   N2        1.0  0.52082  0.74246  0.34046  1.0000
  N   N3        1.0  0.27021  0.50467  0.64072  1.0000
  N   N4        1.0  0.72979  0.49533  0.35928  1.0000
  N   N5        1.0  0.00540  0.19963  0.06885  1.0000
  N   N6        1.0  0.99461  0.80038  0.93115  1.0000
  N   N7        1.0  0.16075  0.99503  0.07845  1.0000
  N   N8        1.0  0.83925  0.00497  0.92155  1.0000
  O   O1        1.0  0.36629  0.48513  0.33542  1.0000
  O   O2        1.0  0.63370  0.51487  0.66458  1.0000
  O   O3        1.0  0.28552  0.70958  0.17897  1.0000
  O   O4        1.0  0.71447  0.29042  0.82103  1.0000
  O   O5        1.0  0.63943  0.78159  0.59767  1.0000
  O   O6        1.0  0.36056  0.21841  0.40233  1.0000
