data_image0
_chemical_formula_structural       Mn2H14C20N6O10
_chemical_formula_sum              "Mn2 H14 C20 N6 O10"
_cell_length_a       7.48655
_cell_length_b       9.57517
_cell_length_c       9.21517
_cell_angle_alpha    64.923
_cell_angle_beta     80.1763
_cell_angle_gamma    79.8648

_space_group_name_H-M_alt    "P 1"
_space_group_IT_number       1

loop_
  _space_group_symop_operation_xyz
  'x, y, z'

loop_
  _atom_site_type_symbol
  _atom_site_label
  _atom_site_symmetry_multiplicity
  _atom_site_fract_x
  _atom_site_fract_y
  _atom_site_fract_z
  _atom_site_occupancy
  Mn  Mn1       1.0  0.48520  0.11033  0.55328  1.0000
  Mn  Mn2       1.0  0.98386  0.54679  0.10597  1.0000
  H   H1        1.0  0.14685  0.76116  0.50554  1.0000
  H   H2        1.0  0.62895  0.50443  0.75991  1.0000
  H   H3        1.0  0.98207  0.77112  0.75556  1.0000
  H   H4        1.0  0.47119  0.75264  0.76474  1.0000
  H   H5        1.0  0.11704  0.29718  0.01367  1.0000
  H   H6        1.0  0.66103  0.00266  0.28909  1.0000
  H   H7        1.0  0.30068  0.26832  0.77663  1.0000
  H   H8        1.0  0.83627  0.76512  0.26293  1.0000
  H   H9        1.0  0.31489  0.73008  0.29793  1.0000
  H   H10       1.0  0.81400  0.30610  0.73990  1.0000
  H   H11       1.0  0.54726  0.95411  0.86486  1.0000
  H   H12       1.0  0.04686  0.84715  0.95459  1.0000
  H   H13       1.0  0.72652  0.03984  0.78342  1.0000
  H   H14       1.0  0.23450  0.75588  0.02717  1.0000
  C   C1        1.0  0.73249  0.31547  0.29945  1.0000
  C   C2        1.0  0.22290  0.30624  0.30450  1.0000
  C   C3        1.0  0.58857  0.42650  0.33474  1.0000
  C   C4        1.0  0.08010  0.33285  0.42453  1.0000
  C   C5        1.0  0.59169  0.69516  0.08269  1.0000
  C   C6        1.0  0.07698  0.08497  0.70379  1.0000
  C   C7        1.0  0.53120  0.58081  0.24176  1.0000
  C   C8        1.0  0.02189  0.24394  0.58488  1.0000
  C   C9        1.0  0.14707  0.65411  0.61472  1.0000
  C   C10       1.0  0.64179  0.61130  0.65173  1.0000
  C   C11       1.0  0.05340  0.66219  0.75438  1.0000
  C   C12       1.0  0.55215  0.74956  0.65572  1.0000
  C   C13       1.0  0.13004  0.39663  0.89890  1.0000
  C   C14       1.0  0.65835  0.88923  0.38936  1.0000
  C   C15       1.0  0.22967  0.38141  0.76530  1.0000
  C   C16       1.0  0.75398  0.75743  0.37503  1.0000
  C   C17       1.0  0.24419  0.51249  0.61741  1.0000
  C   C18       1.0  0.74854  0.61446  0.50963  1.0000
  C   C19       1.0  0.36270  0.50093  0.48140  1.0000
  C   C20       1.0  0.86103  0.47900  0.50070  1.0000
  N   N1        1.0  0.48076  0.37690  0.48073  1.0000
  N   N2        1.0  0.97590  0.47576  0.37271  1.0000
  N   N3        1.0  0.38695  0.62299  0.33513  1.0000
  N   N4        1.0  0.88261  0.33823  0.62775  1.0000
  N   N5        1.0  0.04888  0.53681  0.89896  1.0000
  N   N6        1.0  0.56207  0.88693  0.52816  1.0000
  O   O1        1.0  0.72829  0.17283  0.39057  1.0000
  O   O2        1.0  0.21942  0.41631  0.16098  1.0000
  O   O3        1.0  0.85871  0.36300  0.18170  1.0000
  O   O4        1.0  0.34216  0.19011  0.34037  1.0000
  O   O5        1.0  0.76146  0.69252  0.02858  1.0000
  O   O6        1.0  0.24132  0.02587  0.69258  1.0000
  O   O7        1.0  0.46858  0.79932  0.00774  1.0000
  O   O8        1.0  0.95433  0.01818  0.81477  1.0000
  O   O9        1.0  0.59366  0.04980  0.77499  1.0000
  O   O10       1.0  0.10063  0.75148  0.04312  1.0000
