data_image0
_chemical_formula_structural       H16Pb2C34N4O8F12
_chemical_formula_sum              "H16 Pb2 C34 N4 O8 F12"
_cell_length_a       8.71778
_cell_length_b       10.3039
_cell_length_c       11.0372
_cell_angle_alpha    97.4266
_cell_angle_beta     99.6832
_cell_angle_gamma    111.073

_space_group_name_H-M_alt    "P 1"
_space_group_IT_number       1

loop_
  _space_group_symop_operation_xyz
  'x, y, z'

loop_
  _atom_site_type_symbol
  _atom_site_label
  _atom_site_symmetry_multiplicity
  _atom_site_fract_x
  _atom_site_fract_y
  _atom_site_fract_z
  _atom_site_occupancy
  H   H1        1.0  0.88765  0.57616  0.31509  1.0000
  H   H2        1.0  0.11238  0.42388  0.68490  1.0000
  H   H3        1.0  0.65977  0.53173  0.12453  1.0000
  H   H4        1.0  0.34019  0.46824  0.87549  1.0000
  H   H5        1.0  0.64876  0.37260  0.92572  1.0000
  H   H6        1.0  0.35123  0.62741  0.07430  1.0000
  H   H7        1.0  0.76890  0.22169  0.81614  1.0000
  H   H8        1.0  0.23111  0.77833  0.18388  1.0000
  H   H9        1.0  0.97931  0.11005  0.82155  1.0000
  H   H10       1.0  0.02065  0.88993  0.17845  1.0000
  H   H11       1.0  0.22246  0.07058  0.94345  1.0000
  H   H12       1.0  0.77766  0.92946  0.05656  1.0000
  H   H13       1.0  0.43548  0.12497  0.14758  1.0000
  H   H14       1.0  0.56456  0.87503  0.85240  1.0000
  H   H15       1.0  0.41941  0.27957  0.33334  1.0000
  H   H16       1.0  0.58059  0.72040  0.66668  1.0000
  Pb  Pb1       1.0  0.21797  0.48399  0.43223  1.0000
  Pb  Pb2       1.0  0.78161  0.51595  0.56764  1.0000
  C   C1        1.0  0.79275  0.23541  0.41643  1.0000
  C   C2        1.0  0.20720  0.76456  0.58357  1.0000
  C   C3        1.0  0.78544  0.09332  0.33933  1.0000
  C   C4        1.0  0.21455  0.90668  0.66065  1.0000
  C   C5        1.0  0.67158  0.96054  0.38246  1.0000
  C   C6        1.0  0.32846  0.03946  0.61757  1.0000
  C   C7        1.0  0.66571  0.81188  0.32455  1.0000
  C   C8        1.0  0.33429  0.18810  0.67547  1.0000
  C   C9        1.0  0.52832  0.68829  0.36256  1.0000
  C   C10       1.0  0.47166  0.31167  0.63743  1.0000
  C   C11       1.0  0.87421  0.50352  0.22911  1.0000
  C   C12       1.0  0.12581  0.49652  0.77088  1.0000
  C   C13       1.0  0.74819  0.47957  0.12116  1.0000
  C   C14       1.0  0.25179  0.52042  0.87885  1.0000
  C   C15       1.0  0.74171  0.39240  0.01262  1.0000
  C   C16       1.0  0.25828  0.60759  0.98739  1.0000
  C   C17       1.0  0.86032  0.32812  0.01249  1.0000
  C   C18       1.0  0.13968  0.67188  0.98752  1.0000
  C   C19       1.0  0.98158  0.35612  0.12656  1.0000
  C   C20       1.0  0.01847  0.64392  0.87343  1.0000
  C   C21       1.0  0.86174  0.23847  0.90241  1.0000
  C   C22       1.0  0.13824  0.76152  0.09761  1.0000
  C   C23       1.0  0.97787  0.17773  0.90565  1.0000
  C   C24       1.0  0.02211  0.82225  0.09436  1.0000
  C   C25       1.0  0.10356  0.29116  0.12983  1.0000
  C   C26       1.0  0.89649  0.70887  0.87016  1.0000
  C   C27       1.0  0.10079  0.20198  0.01895  1.0000
  C   C28       1.0  0.89923  0.79801  0.98105  1.0000
  C   C29       1.0  0.22248  0.14049  0.02636  1.0000
  C   C30       1.0  0.77758  0.85954  0.97364  1.0000
  C   C31       1.0  0.33912  0.16939  0.13802  1.0000
  C   C32       1.0  0.66095  0.83065  0.86197  1.0000
  C   C33       1.0  0.33157  0.25753  0.24335  1.0000
  C   C34       1.0  0.66847  0.74248  0.75665  1.0000
  N   N1        1.0  0.21775  0.31604  0.23905  1.0000
  N   N2        1.0  0.78229  0.68398  0.76094  1.0000
  N   N3        1.0  0.98632  0.44324  0.23206  1.0000
  N   N4        1.0  0.01374  0.55683  0.76791  1.0000
  O   O1        1.0  0.93175  0.31584  0.49185  1.0000
  O   O2        1.0  0.06817  0.68411  0.50819  1.0000
  O   O3        1.0  0.65799  0.25488  0.39532  1.0000
  O   O4        1.0  0.34196  0.74510  0.60467  1.0000
  O   O5        1.0  0.57715  0.63527  0.45008  1.0000
  O   O6        1.0  0.42283  0.36476  0.54995  1.0000
  O   O7        1.0  0.37823  0.65394  0.30161  1.0000
  O   O8        1.0  0.62176  0.34598  0.69835  1.0000
  F   F1        1.0  0.94353  0.09157  0.34837  1.0000
  F   F2        1.0  0.05648  0.90847  0.65157  1.0000
  F   F3        1.0  0.71939  0.08288  0.21328  1.0000
  F   F4        1.0  0.28057  0.91710  0.78670  1.0000
  F   F5        1.0  0.50975  0.95439  0.35674  1.0000
  F   F6        1.0  0.49029  0.04562  0.64334  1.0000
  F   F7        1.0  0.72724  0.98212  0.51040  1.0000
  F   F8        1.0  0.27287  0.01791  0.48962  1.0000
  F   F9        1.0  0.62923  0.79359  0.19479  1.0000
  F   F10       1.0  0.37080  0.20644  0.80522  1.0000
  F   F11       1.0  0.82192  0.80822  0.36049  1.0000
  F   F12       1.0  0.17808  0.19175  0.63951  1.0000
