data_image0
_chemical_formula_structural       H34Pb2C32N6O12
_chemical_formula_sum              "H34 Pb2 C32 N6 O12"
_cell_length_a       9.04993
_cell_length_b       9.33531
_cell_length_c       11.541
_cell_angle_alpha    67.1915
_cell_angle_beta     89.2092
_cell_angle_gamma    68.3948

_space_group_name_H-M_alt    "P 1"
_space_group_IT_number       1

loop_
  _space_group_symop_operation_xyz
  'x, y, z'

loop_
  _atom_site_type_symbol
  _atom_site_label
  _atom_site_symmetry_multiplicity
  _atom_site_fract_x
  _atom_site_fract_y
  _atom_site_fract_z
  _atom_site_occupancy
  H   H1        1.0  0.19568  0.20253  0.51032  1.0000
  H   H2        1.0  0.80437  0.79745  0.48972  1.0000
  H   H3        1.0  0.10881  0.38511  0.39067  1.0000
  H   H4        1.0  0.89110  0.61487  0.60939  1.0000
  H   H5        1.0  0.24848  0.59410  0.92877  1.0000
  H   H6        1.0  0.75157  0.40579  0.07121  1.0000
  H   H7        1.0  0.08708  0.59702  0.80349  1.0000
  H   H8        1.0  0.91292  0.40299  0.19657  1.0000
  H   H9        1.0  0.20083  0.08628  0.07630  1.0000
  H   H10       1.0  0.79901  0.91373  0.92373  1.0000
  H   H11       1.0  0.09893  0.03133  0.90146  1.0000
  H   H12       1.0  0.90092  0.96874  0.09853  1.0000
  H   H13       1.0  0.00503  0.26673  0.68325  1.0000
  H   H14       1.0  0.99478  0.73339  0.31677  1.0000
  H   H15       1.0  0.38250  0.71907  0.98798  1.0000
  H   H16       1.0  0.61742  0.28094  0.01200  1.0000
  H   H17       1.0  0.29197  0.58625  0.32900  1.0000
  H   H18       1.0  0.70787  0.41390  0.67097  1.0000
  H   H19       1.0  0.57012  0.98420  0.19077  1.0000
  H   H20       1.0  0.42990  0.01577  0.80919  1.0000
  H   H21       1.0  0.51776  0.86144  0.04653  1.0000
  H   H22       1.0  0.48209  0.13867  0.95338  1.0000
  H   H23       1.0  0.25929  0.57194  0.64707  1.0000
  H   H24       1.0  0.74063  0.42804  0.35292  1.0000
  H   H25       1.0  0.13140  0.66926  0.49748  1.0000
  H   H26       1.0  0.86866  0.33079  0.50245  1.0000
  H   H27       1.0  0.30943  0.48116  0.53357  1.0000
  H   H28       1.0  0.69049  0.51878  0.46644  1.0000
  H   H29       1.0  0.05048  0.14910  0.23427  1.0000
  H   H30       1.0  0.94956  0.85100  0.76581  1.0000
  H   H31       1.0  0.07571  0.93378  0.30995  1.0000
  H   H32       1.0  0.92458  0.06622  0.69003  1.0000
  H   H33       1.0  0.05955  0.05003  0.40187  1.0000
  H   H34       1.0  0.94064  0.94986  0.59823  1.0000
  Pb  Pb1       1.0  0.47262  0.21482  0.34970  1.0000
  Pb  Pb2       1.0  0.52754  0.78532  0.65016  1.0000
  C   C1        1.0  0.09406  0.46914  0.82925  1.0000
  C   C2        1.0  0.90588  0.53088  0.17078  1.0000
  C   C3        1.0  0.15802  0.34351  0.95224  1.0000
  C   C4        1.0  0.84195  0.65647  0.04778  1.0000
  C   C5        1.0  0.15484  0.18441  0.98031  1.0000
  C   C6        1.0  0.84509  0.81559  0.01969  1.0000
  C   C7        1.0  0.09891  0.15478  0.88385  1.0000
  C   C8        1.0  0.90097  0.84527  0.11614  1.0000
  C   C9        1.0  0.04477  0.28606  0.76268  1.0000
  C   C10       1.0  0.95508  0.71402  0.23734  1.0000
  C   C11       1.0  0.22790  0.36806  0.05548  1.0000
  C   C12       1.0  0.77207  0.63192  0.94454  1.0000
  C   C13       1.0  0.36364  0.65870  0.08664  1.0000
  C   C14       1.0  0.63634  0.34129  0.91335  1.0000
  C   C15       1.0  0.39977  0.71770  0.17667  1.0000
  C   C16       1.0  0.60025  0.28228  0.82333  1.0000
  C   C17       1.0  0.35380  0.67220  0.29958  1.0000
  C   C18       1.0  0.64626  0.32779  0.70040  1.0000
  C   C19       1.0  0.38310  0.74080  0.37931  1.0000
  C   C20       1.0  0.61695  0.25915  0.62068  1.0000
  C   C21       1.0  0.45453  0.86332  0.33892  1.0000
  C   C22       1.0  0.54542  0.13673  0.66103  1.0000
  C   C23       1.0  0.50786  0.89850  0.21957  1.0000
  C   C24       1.0  0.49214  0.10147  0.78042  1.0000
  C   C25       1.0  0.47941  0.82886  0.13993  1.0000
  C   C26       1.0  0.52057  0.17111  0.86004  1.0000
  C   C27       1.0  0.25649  0.59960  0.54595  1.0000
  C   C28       1.0  0.74352  0.40035  0.45405  1.0000
  C   C29       1.0  0.83476  0.10786  0.29765  1.0000
  C   C30       1.0  0.16546  0.89202  0.70239  1.0000
  C   C31       1.0  0.01450  0.05939  0.31001  1.0000
  C   C32       1.0  0.98570  0.94055  0.69006  1.0000
  N   N1        1.0  0.03797  0.44169  0.73646  1.0000
  N   N2        1.0  0.96189  0.55839  0.26358  1.0000
  N   N3        1.0  0.26076  0.50810  0.02302  1.0000
  N   N4        1.0  0.73925  0.49182  0.97700  1.0000
  N   N5        1.0  0.30734  0.54097  0.11916  1.0000
  N   N6        1.0  0.69269  0.45899  0.88084  1.0000
  O   O1        1.0  0.25556  0.25961  0.16796  1.0000
  O   O2        1.0  0.74446  0.74035  0.83207  1.0000
  O   O3        1.0  0.34604  0.70402  0.50013  1.0000
  O   O4        1.0  0.65410  0.29584  0.49989  1.0000
  O   O5        1.0  0.46578  0.93785  0.41277  1.0000
  O   O6        1.0  0.53399  0.06240  0.58709  1.0000
  O   O7        1.0  0.78168  0.00408  0.37496  1.0000
  O   O8        1.0  0.21850  0.99589  0.62513  1.0000
  O   O9        1.0  0.74062  0.25115  0.21279  1.0000
  O   O10       1.0  0.25963  0.74867  0.78715  1.0000
  O   O11       1.0  0.21057  0.30464  0.45136  1.0000
  O   O12       1.0  0.78940  0.69535  0.54858  1.0000
