data_image0
_chemical_formula_structural       Tb2H28C48O20F18
_chemical_formula_sum              "Tb2 H28 C48 O20 F18"
_cell_length_a       8.80617
_cell_length_b       11.9291
_cell_length_c       13.6437
_cell_angle_alpha    114.179
_cell_angle_beta     96.6016
_cell_angle_gamma    99.7496

_space_group_name_H-M_alt    "P 1"
_space_group_IT_number       1

loop_
  _space_group_symop_operation_xyz
  'x, y, z'

loop_
  _atom_site_type_symbol
  _atom_site_label
  _atom_site_symmetry_multiplicity
  _atom_site_fract_x
  _atom_site_fract_y
  _atom_site_fract_z
  _atom_site_occupancy
  Tb  Tb1       1.0  0.22908  0.07101  0.03251  1.0000
  Tb  Tb2       1.0  0.77091  0.92899  0.96749  1.0000
  H   H1        1.0  0.12013  0.25012  0.41745  1.0000
  H   H2        1.0  0.87986  0.74989  0.58254  1.0000
  H   H3        1.0  0.37750  0.15274  0.30012  1.0000
  H   H4        1.0  0.62251  0.84725  0.69988  1.0000
  H   H5        1.0  0.15383  0.30926  0.86444  1.0000
  H   H6        1.0  0.84617  0.69074  0.13557  1.0000
  H   H7        1.0  0.46453  0.30568  0.76190  1.0000
  H   H8        1.0  0.53547  0.69432  0.23810  1.0000
  H   H9        1.0  0.39368  0.44227  0.83771  1.0000
  H   H10       1.0  0.60632  0.55773  0.16229  1.0000
  H   H11       1.0  0.44999  0.34664  0.90240  1.0000
  H   H12       1.0  0.55000  0.65336  0.09760  1.0000
  H   H13       1.0  0.99150  0.06041  0.62648  1.0000
  H   H14       1.0  0.00851  0.93960  0.37353  1.0000
  H   H15       1.0  0.80398  0.06507  0.66637  1.0000
  H   H16       1.0  0.19603  0.93494  0.33363  1.0000
  H   H17       1.0  0.90804  0.19237  0.64310  1.0000
  H   H18       1.0  0.09196  0.80764  0.35691  1.0000
  H   H19       1.0  0.44829  0.47724  0.30166  1.0000
  H   H20       1.0  0.55171  0.52277  0.69834  1.0000
  H   H21       1.0  0.61522  0.55157  0.41369  1.0000
  H   H22       1.0  0.38478  0.44843  0.58631  1.0000
  H   H23       1.0  0.46999  0.41683  0.40081  1.0000
  H   H24       1.0  0.53001  0.58318  0.59919  1.0000
  H   H25       1.0  0.49352  0.30013  0.14039  1.0000
  H   H26       1.0  0.50648  0.69986  0.85961  1.0000
  H   H27       1.0  0.36414  0.35174  0.09241  1.0000
  H   H28       1.0  0.63586  0.64826  0.90759  1.0000
  C   C1        1.0  0.04878  0.17500  0.19782  1.0000
  C   C2        1.0  0.95120  0.82499  0.80217  1.0000
  C   C3        1.0  0.96032  0.24395  0.28089  1.0000
  C   C4        1.0  0.03967  0.75605  0.71911  1.0000
  C   C5        1.0  0.82676  0.27996  0.25130  1.0000
  C   C6        1.0  0.17323  0.72004  0.74869  1.0000
  C   C7        1.0  0.74255  0.34813  0.32780  1.0000
  C   C8        1.0  0.25744  0.65187  0.67220  1.0000
  C   C9        1.0  0.79699  0.37504  0.43767  1.0000
  C   C10       1.0  0.20301  0.62496  0.56233  1.0000
  C   C11       1.0  0.93105  0.33866  0.46763  1.0000
  C   C12       1.0  0.06894  0.66134  0.53236  1.0000
  C   C13       1.0  0.01483  0.27583  0.39189  1.0000
  C   C14       1.0  0.98517  0.72417  0.60810  1.0000
  C   C15       1.0  0.56647  0.05548  0.28496  1.0000
  C   C16       1.0  0.43354  0.94453  0.71504  1.0000
  C   C17       1.0  0.46586  0.12558  0.34295  1.0000
  C   C18       1.0  0.53415  0.87442  0.65705  1.0000
  C   C19       1.0  0.48293  0.16219  0.45403  1.0000
  C   C20       1.0  0.51707  0.83781  0.54597  1.0000
  C   C21       1.0  0.59843  0.13262  0.51215  1.0000
  C   C22       1.0  0.40158  0.86739  0.48786  1.0000
  C   C23       1.0  0.69935  0.06081  0.45728  1.0000
  C   C24       1.0  0.30066  0.93919  0.54272  1.0000
  C   C25       1.0  0.67759  0.02229  0.34282  1.0000
  C   C26       1.0  0.32242  0.97772  0.65718  1.0000
  C   C27       1.0  0.94868  0.17551  0.92660  1.0000
  C   C28       1.0  0.05129  0.82448  0.07339  1.0000
  C   C29       1.0  0.92086  0.27950  0.89650  1.0000
  C   C30       1.0  0.07914  0.72050  0.10350  1.0000
  C   C31       1.0  0.78053  0.31981  0.89944  1.0000
  C   C32       1.0  0.21947  0.68018  0.10056  1.0000
  C   C33       1.0  0.75885  0.41736  0.87060  1.0000
  C   C34       1.0  0.24115  0.58264  0.12941  1.0000
  C   C35       1.0  0.88330  0.47262  0.83688  1.0000
  C   C36       1.0  0.11670  0.52738  0.16313  1.0000
  C   C37       1.0  0.02419  0.43414  0.83513  1.0000
  C   C38       1.0  0.97580  0.56586  0.16488  1.0000
  C   C39       1.0  0.04392  0.33945  0.86521  1.0000
  C   C40       1.0  0.95608  0.66055  0.13480  1.0000
  C   C41       1.0  0.55941  0.03151  0.16703  1.0000
  C   C42       1.0  0.44061  0.96848  0.83297  1.0000
  C   C43       1.0  0.47453  0.38378  0.84299  1.0000
  C   C44       1.0  0.52547  0.61622  0.15701  1.0000
  C   C45       1.0  0.88202  0.09007  0.61754  1.0000
  C   C46       1.0  0.11798  0.90994  0.38246  1.0000
  C   C47       1.0  0.53346  0.46166  0.35687  1.0000
  C   C48       1.0  0.46653  0.53834  0.64313  1.0000
  O   O1        1.0  0.19777  0.20330  0.22107  1.0000
  O   O2        1.0  0.80223  0.79670  0.77893  1.0000
  O   O3        1.0  0.46133  0.07610  0.12719  1.0000
  O   O4        1.0  0.53865  0.92390  0.87280  1.0000
  O   O5        1.0  0.09161  0.18362  0.96342  1.0000
  O   O6        1.0  0.90840  0.81637  0.03658  1.0000
  O   O7        1.0  0.83035  0.08871  0.91074  1.0000
  O   O8        1.0  0.16966  0.91129  0.08925  1.0000
  O   O9        1.0  0.81295  0.02198  0.50141  1.0000
  O   O10       1.0  0.18706  0.97803  0.49859  1.0000
  O   O11       1.0  0.63055  0.46846  0.87875  1.0000
  O   O12       1.0  0.36945  0.53154  0.12125  1.0000
  O   O13       1.0  0.61632  0.37760  0.28582  1.0000
  O   O14       1.0  0.38367  0.62240  0.71418  1.0000
  O   O15       1.0  0.97322  0.08920  0.10360  1.0000
  O   O16       1.0  0.02679  0.91081  0.89640  1.0000
  O   O17       1.0  0.65644  0.97547  0.11678  1.0000
  O   O18       1.0  0.34356  0.02454  0.88323  1.0000
  O   O19       1.0  0.40181  0.27559  0.08133  1.0000
  O   O20       1.0  0.59818  0.72441  0.91866  1.0000
  F   F1        1.0  0.14202  0.49084  0.80265  1.0000
  F   F2        1.0  0.85798  0.50915  0.19736  1.0000
  F   F3        1.0  0.86549  0.56515  0.80696  1.0000
  F   F4        1.0  0.13451  0.43484  0.19304  1.0000
  F   F5        1.0  0.66257  0.26951  0.93570  1.0000
  F   F6        1.0  0.33743  0.73049  0.06431  1.0000
  F   F7        1.0  0.97725  0.36740  0.57561  1.0000
  F   F8        1.0  0.02275  0.63259  0.42439  1.0000
  F   F9        1.0  0.72180  0.43569  0.51814  1.0000
  F   F10       1.0  0.27819  0.56430  0.48185  1.0000
  F   F11       1.0  0.60779  0.17292  0.62192  1.0000
  F   F12       1.0  0.39223  0.82709  0.37808  1.0000
  F   F13       1.0  0.38668  0.23067  0.51186  1.0000
  F   F14       1.0  0.61332  0.76932  0.48814  1.0000
  F   F15       1.0  0.77479  0.95101  0.29190  1.0000
  F   F16       1.0  0.22522  0.04899  0.70810  1.0000
  F   F17       1.0  0.77278  0.25274  0.14515  1.0000
  F   F18       1.0  0.22721  0.74726  0.85485  1.0000
