data_image0
_chemical_formula_structural       Mn2H32C48N4Cl4O8
_chemical_formula_sum              "Mn2 H32 C48 N4 Cl4 O8"
_cell_length_a       6.92978
_cell_length_b       12.1877
_cell_length_c       14.4985
_cell_angle_alpha    114.873
_cell_angle_beta     95.7202
_cell_angle_gamma    89.9446

_space_group_name_H-M_alt    "P 1"
_space_group_IT_number       1

loop_
  _space_group_symop_operation_xyz
  'x, y, z'

loop_
  _atom_site_type_symbol
  _atom_site_label
  _atom_site_symmetry_multiplicity
  _atom_site_fract_x
  _atom_site_fract_y
  _atom_site_fract_z
  _atom_site_occupancy
  Mn  Mn1       1.0  0.75017  0.38559  0.00003  1.0000
  Mn  Mn2       1.0  0.24982  0.61441  0.99997  1.0000
  H   H1        1.0  0.36272  0.65980  0.30113  1.0000
  H   H2        1.0  0.13761  0.35892  0.69910  1.0000
  H   H3        1.0  0.63729  0.34020  0.69887  1.0000
  H   H4        1.0  0.86238  0.64107  0.30090  1.0000
  H   H5        1.0  0.26948  0.51351  0.51867  1.0000
  H   H6        1.0  0.23015  0.99481  0.48130  1.0000
  H   H7        1.0  0.73052  0.48649  0.48133  1.0000
  H   H8        1.0  0.76986  0.00519  0.51870  1.0000
  H   H9        1.0  0.05630  0.34871  0.38475  1.0000
  H   H10       1.0  0.44316  0.96344  0.61508  1.0000
  H   H11       1.0  0.94370  0.65129  0.61525  1.0000
  H   H12       1.0  0.55684  0.03656  0.38491  1.0000
  H   H13       1.0  0.00182  0.33700  0.20650  1.0000
  H   H14       1.0  0.49791  0.12991  0.79344  1.0000
  H   H15       1.0  0.99818  0.66300  0.79351  1.0000
  H   H16       1.0  0.50209  0.87009  0.20655  1.0000
  H   H17       1.0  0.73888  0.00243  0.08156  1.0000
  H   H18       1.0  0.76024  0.92111  0.91961  1.0000
  H   H19       1.0  0.26113  0.99757  0.91844  1.0000
  H   H20       1.0  0.23977  0.07890  0.08039  1.0000
  H   H21       1.0  0.61952  0.10356  0.25246  1.0000
  H   H22       1.0  0.88002  0.85050  0.74879  1.0000
  H   H23       1.0  0.38049  0.89644  0.74754  1.0000
  H   H24       1.0  0.11997  0.14951  0.25122  1.0000
  H   H25       1.0  0.52428  0.32051  0.31436  1.0000
  H   H26       1.0  0.97613  0.00494  0.68655  1.0000
  H   H27       1.0  0.47572  0.67949  0.68564  1.0000
  H   H28       1.0  0.02386  0.99507  0.31345  1.0000
  H   H29       1.0  0.56922  0.42847  0.20265  1.0000
  H   H30       1.0  0.93167  0.22489  0.79786  1.0000
  H   H31       1.0  0.43077  0.57152  0.79735  1.0000
  H   H32       1.0  0.06833  0.77511  0.20215  1.0000
  C   C1        1.0  0.17798  0.49749  0.24336  1.0000
  C   C2        1.0  0.32197  0.25392  0.75675  1.0000
  C   C3        1.0  0.82203  0.50252  0.75665  1.0000
  C   C4        1.0  0.67802  0.74608  0.24325  1.0000
  C   C5        1.0  0.29741  0.59117  0.31935  1.0000
  C   C6        1.0  0.20267  0.27191  0.68083  1.0000
  C   C7        1.0  0.70259  0.40883  0.68065  1.0000
  C   C8        1.0  0.79733  0.72808  0.31917  1.0000
  C   C9        1.0  0.32998  0.59476  0.41691  1.0000
  C   C10       1.0  0.17000  0.17796  0.58321  1.0000
  C   C11       1.0  0.67002  0.40523  0.58309  1.0000
  C   C12       1.0  0.83001  0.82204  0.41678  1.0000
  C   C13       1.0  0.24399  0.50853  0.44166  1.0000
  C   C14       1.0  0.25574  0.06677  0.55836  1.0000
  C   C15       1.0  0.75602  0.49146  0.55833  1.0000
  C   C16       1.0  0.74427  0.93322  0.44164  1.0000
  C   C17       1.0  0.12439  0.41581  0.36548  1.0000
  C   C18       1.0  0.37526  0.04998  0.63447  1.0000
  C   C19       1.0  0.87562  0.58419  0.63451  1.0000
  C   C20       1.0  0.62475  0.95003  0.36553  1.0000
  C   C21       1.0  0.09291  0.40940  0.26683  1.0000
  C   C22       1.0  0.40681  0.14214  0.73317  1.0000
  C   C23       1.0  0.90709  0.59060  0.73317  1.0000
  C   C24       1.0  0.59319  0.85786  0.26683  1.0000
  C   C25       1.0  0.14005  0.49373  0.13788  1.0000
  C   C26       1.0  0.36037  0.35551  0.86226  1.0000
  C   C27       1.0  0.85995  0.50628  0.86212  1.0000
  C   C28       1.0  0.63962  0.64448  0.13774  1.0000
  C   C29       1.0  0.71474  0.16231  0.05159  1.0000
  C   C30       1.0  0.78512  0.11086  0.94926  1.0000
  C   C31       1.0  0.28526  0.83769  0.94841  1.0000
  C   C32       1.0  0.21487  0.88914  0.05074  1.0000
  C   C33       1.0  0.69787  0.09626  0.10975  1.0000
  C   C34       1.0  0.80162  0.98650  0.89129  1.0000
  C   C35       1.0  0.30213  0.90374  0.89025  1.0000
  C   C36       1.0  0.19838  0.01350  0.10871  1.0000
  C   C37       1.0  0.63088  0.15311  0.20561  1.0000
  C   C38       1.0  0.86886  0.94700  0.79545  1.0000
  C   C39       1.0  0.36912  0.84689  0.79439  1.0000
  C   C40       1.0  0.13116  0.05300  0.20455  1.0000
  C   C41       1.0  0.58016  0.27365  0.24074  1.0000
  C   C42       1.0  0.92021  0.03211  0.76020  1.0000
  C   C43       1.0  0.41983  0.72635  0.75927  1.0000
  C   C44       1.0  0.07978  0.96790  0.23980  1.0000
  C   C45       1.0  0.60256  0.33364  0.17888  1.0000
  C   C46       1.0  0.89800  0.15407  0.82181  1.0000
  C   C47       1.0  0.39745  0.66636  0.82113  1.0000
  C   C48       1.0  0.10199  0.84593  0.17819  1.0000
  N   N1        1.0  0.66834  0.27980  0.08722  1.0000
  N   N2        1.0  0.83199  0.19239  0.91344  1.0000
  N   N3        1.0  0.33166  0.72020  0.91279  1.0000
  N   N4        1.0  0.16802  0.80761  0.08656  1.0000
  Cl  Cl1       1.0  0.47908  0.71138  0.51033  1.0000
  Cl  Cl2       1.0  0.02122  0.20139  0.48977  1.0000
  Cl  Cl3       1.0  0.52093  0.28863  0.48967  1.0000
  Cl  Cl4       1.0  0.97879  0.79861  0.51023  1.0000
  O   O1        1.0  0.04581  0.40292  0.06815  1.0000
  O   O2        1.0  0.45473  0.33414  0.93182  1.0000
  O   O3        1.0  0.95417  0.59709  0.93185  1.0000
  O   O4        1.0  0.54526  0.66586  0.06817  1.0000
  O   O5        1.0  0.79218  0.41505  0.87245  1.0000
  O   O6        1.0  0.70719  0.54276  0.12724  1.0000
  O   O7        1.0  0.20782  0.58495  0.12754  1.0000
  O   O8        1.0  0.29280  0.45724  0.87276  1.0000
