data_image0
_chemical_formula_structural       Cd2H14C16N2O10
_chemical_formula_sum              "Cd2 H14 C16 N2 O10"
_cell_length_a       6.92477
_cell_length_b       8.37273
_cell_length_c       9.04007
_cell_angle_alpha    90.51
_cell_angle_beta     81.7554
_cell_angle_gamma    69.8793

_space_group_name_H-M_alt    "P 1"
_space_group_IT_number       1

loop_
  _space_group_symop_operation_xyz
  'x, y, z'

loop_
  _atom_site_type_symbol
  _atom_site_label
  _atom_site_symmetry_multiplicity
  _atom_site_fract_x
  _atom_site_fract_y
  _atom_site_fract_z
  _atom_site_occupancy
  Cd  Cd1       1.0  0.00019  0.12277  0.79449  1.0000
  Cd  Cd2       1.0  0.99981  0.87723  0.20550  1.0000
  H   H1        1.0  0.41267  0.79364  0.29979  1.0000
  H   H2        1.0  0.58734  0.20637  0.70020  1.0000
  H   H3        1.0  0.24384  0.81321  0.45513  1.0000
  H   H4        1.0  0.75616  0.18681  0.54487  1.0000
  H   H5        1.0  0.57199  0.54178  0.13881  1.0000
  H   H6        1.0  0.42802  0.45823  0.86118  1.0000
  H   H7        1.0  0.16894  0.56559  0.55644  1.0000
  H   H8        1.0  0.83108  0.43441  0.44355  1.0000
  H   H9        1.0  0.49701  0.08452  0.30507  1.0000
  H   H10       1.0  0.50298  0.91549  0.69494  1.0000
  H   H11       1.0  0.88853  0.87962  0.64558  1.0000
  H   H12       1.0  0.11147  0.12037  0.35442  1.0000
  H   H13       1.0  0.87304  0.84289  0.82050  1.0000
  H   H14       1.0  0.12695  0.15711  0.17951  1.0000
  C   C1        1.0  0.70549  0.20246  0.07914  1.0000
  C   C2        1.0  0.29451  0.79753  0.92086  1.0000
  C   C3        1.0  0.54994  0.30331  0.20898  1.0000
  C   C4        1.0  0.45005  0.69668  0.79102  1.0000
  C   C5        1.0  0.49855  0.47992  0.22309  1.0000
  C   C6        1.0  0.50145  0.52008  0.77690  1.0000
  C   C7        1.0  0.35621  0.57588  0.34477  1.0000
  C   C8        1.0  0.64380  0.42412  0.65523  1.0000
  C   C9        1.0  0.27159  0.49387  0.45674  1.0000
  C   C10       1.0  0.72842  0.50613  0.54326  1.0000
  C   C11       1.0  0.32140  0.31703  0.44144  1.0000
  C   C12       1.0  0.67860  0.68297  0.55856  1.0000
  C   C13       1.0  0.45742  0.22202  0.31655  1.0000
  C   C14       1.0  0.54258  0.77799  0.68346  1.0000
  C   C15       1.0  0.22876  0.22804  0.55797  1.0000
  C   C16       1.0  0.77124  0.77197  0.44202  1.0000
  N   N1        1.0  0.29486  0.75580  0.34968  1.0000
  N   N2        1.0  0.70513  0.24421  0.65032  1.0000
  O   O1        1.0  0.78261  0.28669  0.98627  1.0000
  O   O2        1.0  0.21738  0.71330  0.01373  1.0000
  O   O3        1.0  0.75303  0.04061  0.06617  1.0000
  O   O4        1.0  0.24696  0.95937  0.93384  1.0000
  O   O5        1.0  0.18415  0.09977  0.51576  1.0000
  O   O6        1.0  0.81585  0.90024  0.48426  1.0000
  O   O7        1.0  0.19492  0.28145  0.69503  1.0000
  O   O8        1.0  0.80509  0.71855  0.30496  1.0000
  O   O9        1.0  0.96190  0.86687  0.73644  1.0000
  O   O10       1.0  0.03809  0.13313  0.26357  1.0000
