data_image0
_chemical_formula_structural       Cd2H20C28S4N8O8
_chemical_formula_sum              "Cd2 H20 C28 S4 N8 O8"
_cell_length_a       7.64478
_cell_length_b       9.70721
_cell_length_c       12.4357
_cell_angle_alpha    112.974
_cell_angle_beta     92.5009
_cell_angle_gamma    89.9987

_space_group_name_H-M_alt    "P 1"
_space_group_IT_number       1

loop_
  _space_group_symop_operation_xyz
  'x, y, z'

loop_
  _atom_site_type_symbol
  _atom_site_label
  _atom_site_symmetry_multiplicity
  _atom_site_fract_x
  _atom_site_fract_y
  _atom_site_fract_z
  _atom_site_occupancy
  Cd  Cd1       1.0  1.00000  0.50000  0.50000  1.0000
  Cd  Cd2       1.0  0.50000  1.00000  0.50001  1.0000
  H   H1        1.0  0.42853  0.97392  0.06955  1.0000
  H   H2        1.0  0.07093  0.90407  0.93018  1.0000
  H   H3        1.0  0.57140  0.02603  0.93043  1.0000
  H   H4        1.0  0.92904  0.09597  0.06982  1.0000
  H   H5        1.0  0.21448  0.24710  0.28968  1.0000
  H   H6        1.0  0.28500  0.95705  0.70995  1.0000
  H   H7        1.0  0.78550  0.75288  0.71031  1.0000
  H   H8        1.0  0.71500  0.04298  0.29006  1.0000
  H   H9        1.0  0.42090  0.44158  0.06303  1.0000
  H   H10       1.0  0.07879  0.37816  0.93682  1.0000
  H   H11       1.0  0.57913  0.55839  0.93698  1.0000
  H   H12       1.0  0.92122  0.62188  0.06316  1.0000
  H   H13       1.0  0.26973  0.68192  0.18195  1.0000
  H   H14       1.0  0.23005  0.49971  0.81801  1.0000
  H   H15       1.0  0.73032  0.31805  0.81806  1.0000
  H   H16       1.0  0.76998  0.50033  0.18198  1.0000
  H   H17       1.0  0.10050  0.68832  0.35241  1.0000
  H   H18       1.0  0.39929  0.33576  0.64756  1.0000
  H   H19       1.0  0.89952  0.31166  0.64759  1.0000
  H   H20       1.0  0.60075  0.66426  0.35245  1.0000
  C   C1        1.0  0.22976  0.34105  0.26346  1.0000
  C   C2        1.0  0.27004  0.07729  0.73634  1.0000
  C   C3        1.0  0.77023  0.65892  0.73654  1.0000
  C   C4        1.0  0.72996  0.92275  0.26366  1.0000
  C   C5        1.0  0.32830  0.32783  0.16789  1.0000
  C   C6        1.0  0.17161  0.15962  0.83197  1.0000
  C   C7        1.0  0.67168  0.67213  0.83210  1.0000
  C   C8        1.0  0.82839  0.84042  0.16804  1.0000
  C   C9        1.0  0.34408  0.45135  0.13732  1.0000
  C   C10       1.0  0.15581  0.31373  0.86262  1.0000
  C   C11       1.0  0.65593  0.54861  0.86268  1.0000
  C   C12       1.0  0.84420  0.68631  0.13738  1.0000
  C   C13       1.0  0.26119  0.58296  0.20272  1.0000
  C   C14       1.0  0.23866  0.37999  0.79726  1.0000
  C   C15       1.0  0.73884  0.41701  0.79728  1.0000
  C   C16       1.0  0.76136  0.62005  0.20275  1.0000
  C   C17       1.0  0.16653  0.58739  0.29735  1.0000
  C   C18       1.0  0.33340  0.28984  0.70263  1.0000
  C   C19       1.0  0.83349  0.41259  0.70265  1.0000
  C   C20       1.0  0.66663  0.71018  0.29737  1.0000
  C   C21       1.0  0.41152  0.18519  0.09693  1.0000
  C   C22       1.0  0.08831  0.08783  0.90281  1.0000
  C   C23       1.0  0.58843  0.81476  0.90305  1.0000
  C   C24       1.0  0.91167  0.91221  0.09720  1.0000
  C   C25       1.0  0.11884  0.13985  0.43370  1.0000
  C   C26       1.0  0.38123  0.70597  0.56646  1.0000
  C   C27       1.0  0.88118  0.86014  0.56630  1.0000
  C   C28       1.0  0.61879  0.29404  0.43356  1.0000
  S   S1        1.0  0.19461  0.97301  0.36656  1.0000
  S   S2        1.0  0.30541  0.60621  0.63355  1.0000
  S   S3        1.0  0.80540  0.02699  0.63345  1.0000
  S   S4        1.0  0.69457  0.39379  0.36646  1.0000
  N   N1        1.0  0.15092  0.46857  0.32675  1.0000
  N   N2        1.0  0.34901  0.14160  0.67315  1.0000
  N   N3        1.0  0.84909  0.53141  0.67325  1.0000
  N   N4        1.0  0.65101  0.85841  0.32685  1.0000
  N   N5        1.0  0.06275  0.26108  0.48263  1.0000
  N   N6        1.0  0.43725  0.77827  0.51751  1.0000
  N   N7        1.0  0.93727  0.73892  0.51737  1.0000
  N   N8        1.0  0.56277  0.22172  0.48251  1.0000
  O   O1        1.0  0.37623  0.07254  0.12682  1.0000
  O   O2        1.0  0.12313  0.94519  0.87272  1.0000
  O   O3        1.0  0.62368  0.92740  0.87314  1.0000
  O   O4        1.0  0.87684  0.05484  0.12728  1.0000
  O   O5        1.0  0.50258  0.17619  0.01343  1.0000
  O   O6        1.0  0.99763  0.16246  0.98648  1.0000
  O   O7        1.0  0.49741  0.82377  0.98656  1.0000
  O   O8        1.0  0.00236  0.83758  0.01352  1.0000
