data_image0
_chemical_formula_structural       K2V2H18C14N6O16
_chemical_formula_sum              "K2 V2 H18 C14 N6 O16"
_cell_length_a       6.65309
_cell_length_b       9.47078
_cell_length_c       10.8294
_cell_angle_alpha    115.297
_cell_angle_beta     90.8211
_cell_angle_gamma    105.794

_space_group_name_H-M_alt    "P 1"
_space_group_IT_number       1

loop_
  _space_group_symop_operation_xyz
  'x, y, z'

loop_
  _atom_site_type_symbol
  _atom_site_label
  _atom_site_symmetry_multiplicity
  _atom_site_fract_x
  _atom_site_fract_y
  _atom_site_fract_z
  _atom_site_occupancy
  K   K1        1.0  0.31811  0.61185  0.48622  1.0000
  K   K2        1.0  0.68189  0.38815  0.51378  1.0000
  V   V1        1.0  0.28729  0.05392  0.20294  1.0000
  V   V2        1.0  0.71271  0.94608  0.79706  1.0000
  H   H1        1.0  0.64427  0.39312  0.03202  1.0000
  H   H2        1.0  0.35574  0.60688  0.96799  1.0000
  H   H3        1.0  0.70541  0.51374  0.86348  1.0000
  H   H4        1.0  0.29459  0.48625  0.13652  1.0000
  H   H5        1.0  0.97672  0.78985  0.94114  1.0000
  H   H6        1.0  0.02328  0.21014  0.05885  1.0000
  H   H7        1.0  0.55214  0.89618  0.23638  1.0000
  H   H8        1.0  0.44787  0.10382  0.76362  1.0000
  H   H9        1.0  0.59227  0.92395  0.08562  1.0000
  H   H10       1.0  0.40772  0.07605  0.91438  1.0000
  H   H11       1.0  0.98337  0.21723  0.25888  1.0000
  H   H12       1.0  0.01663  0.78277  0.74112  1.0000
  H   H13       1.0  0.03181  0.16634  0.38746  1.0000
  H   H14       1.0  0.96818  0.83367  0.61254  1.0000
  H   H15       1.0  0.61194  0.88068  0.43449  1.0000
  H   H16       1.0  0.38806  0.11932  0.56551  1.0000
  H   H17       1.0  0.60751  0.70277  0.33399  1.0000
  H   H18       1.0  0.39249  0.29723  0.66601  1.0000
  C   C1        1.0  0.01987  0.75543  0.22911  1.0000
  C   C2        1.0  0.98013  0.24457  0.77089  1.0000
  C   C3        1.0  0.87647  0.60081  0.19406  1.0000
  C   C4        1.0  0.12353  0.39918  0.80594  1.0000
  C   C5        1.0  0.75954  0.51289  0.06092  1.0000
  C   C6        1.0  0.24046  0.48711  0.93908  1.0000
  C   C7        1.0  0.79198  0.57919  0.96796  1.0000
  C   C8        1.0  0.20802  0.42080  0.03204  1.0000
  C   C9        1.0  0.94235  0.73234  0.00926  1.0000
  C   C10       1.0  0.05765  0.26765  0.99074  1.0000
  C   C11       1.0  0.14299  0.86847  0.37102  1.0000
  C   C12       1.0  0.85701  0.13153  0.62898  1.0000
  C   C13       1.0  0.83238  0.52917  0.29552  1.0000
  C   C14       1.0  0.16762  0.47082  0.70448  1.0000
  N   N1        1.0  0.05281  0.81780  0.13696  1.0000
  N   N2        1.0  0.94719  0.18220  0.86304  1.0000
  N   N3        1.0  0.52672  0.95352  0.17616  1.0000
  N   N4        1.0  0.47328  0.04649  0.82384  1.0000
  N   N5        1.0  0.08001  0.17411  0.29947  1.0000
  N   N6        1.0  0.91999  0.82590  0.70053  1.0000
  O   O1        1.0  0.27021  0.00419  0.38130  1.0000
  O   O2        1.0  0.72978  0.99581  0.61870  1.0000
  O   O3        1.0  0.11706  0.82972  0.46768  1.0000
  O   O4        1.0  0.88294  0.17028  0.53232  1.0000
  O   O5        1.0  0.67065  0.55036  0.35312  1.0000
  O   O6        1.0  0.32935  0.44965  0.64689  1.0000
  O   O7        1.0  0.94778  0.44985  0.30983  1.0000
  O   O8        1.0  0.05222  0.55015  0.69017  1.0000
  O   O9        1.0  0.25235  0.04202  0.04945  1.0000
  O   O10       1.0  0.74765  0.95797  0.95055  1.0000
  O   O11       1.0  0.58452  0.12441  0.25106  1.0000
  O   O12       1.0  0.41548  0.87559  0.74894  1.0000
  O   O13       1.0  0.29118  0.27020  0.32422  1.0000
  O   O14       1.0  0.70882  0.72980  0.67578  1.0000
  O   O15       1.0  0.55172  0.79311  0.33987  1.0000
  O   O16       1.0  0.44829  0.20689  0.66013  1.0000
