data_image0
_chemical_formula_structural       H12Pb4C6S4O12F4
_chemical_formula_sum              "H12 Pb4 C6 S4 O12 F4"
_cell_length_a       4.61374
_cell_length_b       8.85702
_cell_length_c       12.4127
_cell_angle_alpha    102.194
_cell_angle_beta     100.718
_cell_angle_gamma    90.0374

_space_group_name_H-M_alt    "P 1"
_space_group_IT_number       1

loop_
  _space_group_symop_operation_xyz
  'x, y, z'

loop_
  _atom_site_type_symbol
  _atom_site_label
  _atom_site_symmetry_multiplicity
  _atom_site_fract_x
  _atom_site_fract_y
  _atom_site_fract_z
  _atom_site_occupancy
  H   H1        1.0  0.76859  0.17137  0.10776  1.0000
  H   H2        1.0  0.66129  0.32859  0.89239  1.0000
  H   H3        1.0  0.23140  0.82863  0.89224  1.0000
  H   H4        1.0  0.33871  0.67141  0.10761  1.0000
  H   H5        1.0  0.77130  0.37494  0.11623  1.0000
  H   H6        1.0  0.65509  0.12501  0.88379  1.0000
  H   H7        1.0  0.22870  0.62506  0.88377  1.0000
  H   H8        1.0  0.34491  0.87499  0.11621  1.0000
  H   H9        1.0  0.18318  0.35118  0.00505  1.0000
  H   H10       1.0  0.17787  0.14874  0.99519  1.0000
  H   H11       1.0  0.81682  0.64882  0.99496  1.0000
  H   H12       1.0  0.82213  0.85126  0.00481  1.0000
  Pb  Pb1       1.0  0.68541  0.09393  0.39753  1.0000
  Pb  Pb2       1.0  0.28795  0.40580  0.60219  1.0000
  Pb  Pb3       1.0  0.31459  0.90607  0.60247  1.0000
  Pb  Pb4       1.0  0.71205  0.59420  0.39781  1.0000
  C   C1        1.0  0.90422  0.27197  0.10506  1.0000
  C   C2        1.0  0.79946  0.22800  0.89506  1.0000
  C   C3        1.0  0.09578  0.72803  0.89494  1.0000
  C   C4        1.0  0.20054  0.77200  0.10494  1.0000
  C   C5        1.0  0.03960  0.24998  0.00007  1.0000
  C   C6        1.0  0.96040  0.75002  0.99993  1.0000
  S   S1        1.0  0.18114  0.29989  0.22942  1.0000
  S   S2        1.0  0.95160  0.20019  0.77062  1.0000
  S   S3        1.0  0.81886  0.70011  0.77058  1.0000
  S   S4        1.0  0.04839  0.79981  0.22938  1.0000
  O   O1        1.0  0.35748  0.16041  0.21964  1.0000
  O   O2        1.0  0.13737  0.33971  0.78009  1.0000
  O   O3        1.0  0.64252  0.83958  0.78036  1.0000
  O   O4        1.0  0.86263  0.66028  0.21990  1.0000
  O   O5        1.0  0.35880  0.43956  0.23055  1.0000
  O   O6        1.0  0.12814  0.06062  0.76955  1.0000
  O   O7        1.0  0.64119  0.56044  0.76945  1.0000
  O   O8        1.0  0.87186  0.93938  0.23045  1.0000
  O   O9        1.0  0.02619  0.32145  0.32565  1.0000
  O   O10       1.0  0.69996  0.17827  0.67452  1.0000
  O   O11       1.0  0.97380  0.67855  0.67435  1.0000
  O   O12       1.0  0.30004  0.82173  0.32549  1.0000
  F   F1        1.0  0.71353  0.37692  0.50305  1.0000
  F   F2        1.0  0.21090  0.12271  0.49690  1.0000
  F   F3        1.0  0.28647  0.62308  0.49695  1.0000
  F   F4        1.0  0.78911  0.87728  0.50310  1.0000
