data_image0
_chemical_formula_structural       H16Pb4C8S4O12F4
_chemical_formula_sum              "H16 Pb4 C8 S4 O12 F4"
_cell_length_a       4.60981
_cell_length_b       8.79497
_cell_length_c       13.64
_cell_angle_alpha    97.4197
_cell_angle_beta     99.7409
_cell_angle_gamma    89.99

_space_group_name_H-M_alt    "P 1"
_space_group_IT_number       1

loop_
  _space_group_symop_operation_xyz
  'x, y, z'

loop_
  _atom_site_type_symbol
  _atom_site_label
  _atom_site_symmetry_multiplicity
  _atom_site_fract_x
  _atom_site_fract_y
  _atom_site_fract_z
  _atom_site_occupancy
  H   H1        1.0  0.83271  0.64098  0.13891  1.0000
  H   H2        1.0  0.69428  0.85923  0.86117  1.0000
  H   H3        1.0  0.16729  0.35902  0.86110  1.0000
  H   H4        1.0  0.30571  0.14077  0.13883  1.0000
  H   H5        1.0  0.83536  0.43933  0.14566  1.0000
  H   H6        1.0  0.68955  0.06091  0.85435  1.0000
  H   H7        1.0  0.16465  0.56067  0.85434  1.0000
  H   H8        1.0  0.31044  0.93908  0.14564  1.0000
  H   H9        1.0  0.30107  0.61495  0.05018  1.0000
  H   H10       1.0  0.25086  0.88514  0.94969  1.0000
  H   H11       1.0  0.69893  0.38505  0.94983  1.0000
  H   H12       1.0  0.74914  0.11486  0.05031  1.0000
  H   H13       1.0  0.30483  0.41615  0.05778  1.0000
  H   H14       1.0  0.24713  0.08396  0.94218  1.0000
  H   H15       1.0  0.69517  0.58386  0.94222  1.0000
  H   H16       1.0  0.75288  0.91604  0.05782  1.0000
  Pb  Pb1       1.0  0.21627  0.85678  0.40676  1.0000
  Pb  Pb2       1.0  0.80992  0.64312  0.59336  1.0000
  Pb  Pb3       1.0  0.78373  0.14322  0.59324  1.0000
  Pb  Pb4       1.0  0.19008  0.35688  0.40664  1.0000
  C   C1        1.0  0.69405  0.53945  0.13924  1.0000
  C   C2        1.0  0.55503  0.96070  0.86081  1.0000
  C   C3        1.0  0.30595  0.46055  0.86077  1.0000
  C   C4        1.0  0.44497  0.03930  0.13919  1.0000
  C   C5        1.0  0.44313  0.51430  0.04973  1.0000
  C   C6        1.0  0.39341  0.98576  0.95024  1.0000
  C   C7        1.0  0.55687  0.48570  0.95028  1.0000
  C   C8        1.0  0.60658  0.01424  0.04976  1.0000
  S   S1        1.0  0.55672  0.57109  0.25447  1.0000
  S   S2        1.0  0.30224  0.92892  0.74557  1.0000
  S   S3        1.0  0.44328  0.42891  0.74554  1.0000
  S   S4        1.0  0.69776  0.07109  0.25443  1.0000
  O   O1        1.0  0.37494  0.70887  0.24906  1.0000
  O   O2        1.0  0.12577  0.79134  0.75122  1.0000
  O   O3        1.0  0.62505  0.29114  0.75095  1.0000
  O   O4        1.0  0.87422  0.20865  0.24878  1.0000
  O   O5        1.0  0.37840  0.43224  0.25677  1.0000
  O   O6        1.0  0.12184  0.06785  0.74311  1.0000
  O   O7        1.0  0.62161  0.56776  0.74324  1.0000
  O   O8        1.0  0.87816  0.93214  0.25689  1.0000
  O   O9        1.0  0.81170  0.59237  0.33730  1.0000
  O   O10       1.0  0.47390  0.90724  0.66265  1.0000
  O   O11       1.0  0.18830  0.40763  0.66271  1.0000
  O   O12       1.0  0.52609  0.09276  0.33735  1.0000
  F   F1        1.0  0.22000  0.12467  0.50372  1.0000
  F   F2        1.0  0.71574  0.37551  0.49634  1.0000
  F   F3        1.0  0.78000  0.87533  0.49628  1.0000
  F   F4        1.0  0.28427  0.62449  0.50366  1.0000
