data_image0
_chemical_formula_structural       Cd2H24C32O12
_chemical_formula_sum              "Cd2 H24 C32 O12"
_cell_length_a       7.53404
_cell_length_b       7.81877
_cell_length_c       12.6957
_cell_angle_alpha    107.932
_cell_angle_beta     99.2795
_cell_angle_gamma    90.0161

_space_group_name_H-M_alt    "P 1"
_space_group_IT_number       1

loop_
  _space_group_symop_operation_xyz
  'x, y, z'

loop_
  _atom_site_type_symbol
  _atom_site_label
  _atom_site_symmetry_multiplicity
  _atom_site_fract_x
  _atom_site_fract_y
  _atom_site_fract_z
  _atom_site_occupancy
  Cd  Cd1       1.0  0.25007  0.01570  0.00008  1.0000
  Cd  Cd2       1.0  0.74993  0.98430  0.99992  1.0000
  H   H1        1.0  0.42307  0.52267  0.67508  1.0000
  H   H2        1.0  0.07712  0.84781  0.32490  1.0000
  H   H3        1.0  0.57694  0.47732  0.32491  1.0000
  H   H4        1.0  0.92288  0.15218  0.67509  1.0000
  H   H5        1.0  0.77353  0.56532  0.44538  1.0000
  H   H6        1.0  0.72632  0.11937  0.55456  1.0000
  H   H7        1.0  0.22648  0.43468  0.55462  1.0000
  H   H8        1.0  0.27368  0.88063  0.44544  1.0000
  H   H9        1.0  0.01794  0.68486  0.60567  1.0000
  H   H10       1.0  0.48204  0.07863  0.39420  1.0000
  H   H11       1.0  0.98207  0.31514  0.39433  1.0000
  H   H12       1.0  0.51796  0.92137  0.60580  1.0000
  H   H13       1.0  0.52220  0.40965  0.83179  1.0000
  H   H14       1.0  0.97775  0.57784  0.16830  1.0000
  H   H15       1.0  0.47780  0.59035  0.16821  1.0000
  H   H16       1.0  0.02224  0.42216  0.83170  1.0000
  H   H17       1.0  0.38846  0.60433  0.84235  1.0000
  H   H18       1.0  0.11149  0.76193  0.15763  1.0000
  H   H19       1.0  0.61154  0.39567  0.15766  1.0000
  H   H20       1.0  0.88850  0.23807  0.84236  1.0000
  H   H21       1.0  0.53170  0.58555  0.96415  1.0000
  H   H22       1.0  0.96831  0.62115  0.03586  1.0000
  H   H23       1.0  0.46831  0.41445  0.03585  1.0000
  H   H24       1.0  0.03169  0.37884  0.96413  1.0000
  C   C1        1.0  0.01639  0.76089  0.82132  1.0000
  C   C2        1.0  0.48374  0.93913  0.17856  1.0000
  C   C3        1.0  0.98361  0.23911  0.17868  1.0000
  C   C4        1.0  0.51626  0.06087  0.82144  1.0000
  C   C5        1.0  0.86339  0.67370  0.73067  1.0000
  C   C6        1.0  0.63669  0.94271  0.26926  1.0000
  C   C7        1.0  0.13661  0.32630  0.26933  1.0000
  C   C8        1.0  0.36331  0.05729  0.73074  1.0000
  C   C9        1.0  0.69277  0.62479  0.74860  1.0000
  C   C10       1.0  0.80734  0.87605  0.25136  1.0000
  C   C11       1.0  0.30723  0.37521  0.25140  1.0000
  C   C12       1.0  0.19266  0.12395  0.74864  1.0000
  C   C13       1.0  0.55360  0.55445  0.65794  1.0000
  C   C14       1.0  0.94652  0.89654  0.34203  1.0000
  C   C15       1.0  0.44641  0.44555  0.34206  1.0000
  C   C16       1.0  0.05347  0.10346  0.65797  1.0000
  C   C17       1.0  0.57647  0.53330  0.54704  1.0000
  C   C18       1.0  0.92354  0.98615  0.45295  1.0000
  C   C19       1.0  0.42353  0.46669  0.45296  1.0000
  C   C20       1.0  0.07645  0.01384  0.54705  1.0000
  C   C21       1.0  0.74746  0.57960  0.52938  1.0000
  C   C22       1.0  0.75249  0.04980  0.47058  1.0000
  C   C23       1.0  0.25254  0.42040  0.47063  1.0000
  C   C24       1.0  0.24751  0.95020  0.52942  1.0000
  C   C25       1.0  0.88647  0.64696  0.61937  1.0000
  C   C26       1.0  0.61353  0.02714  0.38055  1.0000
  C   C27       1.0  0.11354  0.35304  0.38063  1.0000
  C   C28       1.0  0.38647  0.97286  0.61945  1.0000
  C   C29       1.0  0.51639  0.55478  0.87329  1.0000
  C   C30       1.0  0.98355  0.68138  0.12671  1.0000
  C   C31       1.0  0.48361  0.44522  0.12671  1.0000
  C   C32       1.0  0.01645  0.31862  0.87329  1.0000
  O   O1        1.0  0.98742  0.83628  0.92377  1.0000
  O   O2        1.0  0.51263  0.91185  0.07607  1.0000
  O   O3        1.0  0.01258  0.16371  0.07623  1.0000
  O   O4        1.0  0.48737  0.08815  0.92393  1.0000
  O   O5        1.0  0.17270  0.76723  0.79930  1.0000
  O   O6        1.0  0.32749  0.96775  0.20065  1.0000
  O   O7        1.0  0.82730  0.23277  0.20070  1.0000
  O   O8        1.0  0.67251  0.03226  0.79934  1.0000
  O   O9        1.0  0.66891  0.64944  0.85713  1.0000
  O   O10       1.0  0.83109  0.79217  0.14282  1.0000
  O   O11       1.0  0.33109  0.35056  0.14287  1.0000
  O   O12       1.0  0.16891  0.20783  0.85718  1.0000
