data_image0
_chemical_formula_structural       Zn2H24C32O12
_chemical_formula_sum              "Zn2 H24 C32 O12"
_cell_length_a       7.92293
_cell_length_b       7.96564
_cell_length_c       11.6549
_cell_angle_alpha    82.6734
_cell_angle_beta     78.6407
_cell_angle_gamma    72.5674

_space_group_name_H-M_alt    "P 1"
_space_group_IT_number       1

loop_
  _space_group_symop_operation_xyz
  'x, y, z'

loop_
  _atom_site_type_symbol
  _atom_site_label
  _atom_site_symmetry_multiplicity
  _atom_site_fract_x
  _atom_site_fract_y
  _atom_site_fract_z
  _atom_site_occupancy
  Zn  Zn1       1.0  0.02313  0.74401  0.50690  1.0000
  Zn  Zn2       1.0  0.97687  0.25599  0.49310  1.0000
  H   H1        1.0  0.20138  0.69061  0.16129  1.0000
  H   H2        1.0  0.79861  0.30939  0.83871  1.0000
  H   H3        1.0  0.36381  0.57447  0.97127  1.0000
  H   H4        1.0  0.63619  0.42554  0.02873  1.0000
  H   H5        1.0  0.10932  0.15614  0.04046  1.0000
  H   H6        1.0  0.89068  0.84387  0.95954  1.0000
  H   H7        1.0  0.37501  0.52199  0.79397  1.0000
  H   H8        1.0  0.62498  0.47801  0.20603  1.0000
  H   H9        1.0  0.58152  0.87427  0.77652  1.0000
  H   H10       1.0  0.41849  0.12573  0.22348  1.0000
  H   H11       1.0  0.36957  0.00306  0.94967  1.0000
  H   H12       1.0  0.63043  0.99694  0.05034  1.0000
  H   H13       1.0  0.62666  0.65026  0.53572  1.0000
  H   H14       1.0  0.37333  0.34974  0.46428  1.0000
  H   H15       1.0  0.59648  0.62527  0.69225  1.0000
  H   H16       1.0  0.40351  0.37474  0.30774  1.0000
  H   H17       1.0  0.40850  0.65435  0.61737  1.0000
  H   H18       1.0  0.59149  0.34565  0.38263  1.0000
  H   H19       1.0  0.80705  0.06221  0.28793  1.0000
  H   H20       1.0  0.19295  0.93779  0.71207  1.0000
  H   H21       1.0  0.03014  0.99979  0.20870  1.0000
  H   H22       1.0  0.96986  0.00022  0.79130  1.0000
  H   H23       1.0  0.84755  0.11994  0.13267  1.0000
  H   H24       1.0  0.15245  0.88006  0.86733  1.0000
  C   C1        1.0  0.06188  0.49383  0.20975  1.0000
  C   C2        1.0  0.93812  0.50618  0.79025  1.0000
  C   C3        1.0  0.17912  0.57523  0.13268  1.0000
  C   C4        1.0  0.82087  0.42477  0.86732  1.0000
  C   C5        1.0  0.27032  0.50955  0.02634  1.0000
  C   C6        1.0  0.72968  0.49045  0.97365  1.0000
  C   C7        1.0  0.24974  0.35400  0.99286  1.0000
  C   C8        1.0  0.75025  0.64600  0.00714  1.0000
  C   C9        1.0  0.13030  0.27311  0.06719  1.0000
  C   C10       1.0  0.86970  0.72689  0.93281  1.0000
  C   C11       1.0  0.03525  0.34099  0.17383  1.0000
  C   C12       1.0  0.96475  0.65901  0.82617  1.0000
  C   C13       1.0  0.35951  0.27363  0.88510  1.0000
  C   C14       1.0  0.64049  0.72637  0.11490  1.0000
  C   C15       1.0  0.42218  0.37960  0.79122  1.0000
  C   C16       1.0  0.57781  0.62040  0.20878  1.0000
  C   C17       1.0  0.54198  0.30723  0.69259  1.0000
  C   C18       1.0  0.45802  0.69277  0.30741  1.0000
  C   C19       1.0  0.60258  0.12074  0.68696  1.0000
  C   C20       1.0  0.39742  0.87926  0.31305  1.0000
  C   C21       1.0  0.53306  0.01693  0.78047  1.0000
  C   C22       1.0  0.46695  0.98307  0.21953  1.0000
  C   C23       1.0  0.41333  0.08953  0.87722  1.0000
  C   C24       1.0  0.58668  0.91047  0.12279  1.0000
  C   C25       1.0  0.55349  0.59753  0.61436  1.0000
  C   C26       1.0  0.44650  0.40247  0.38564  1.0000
  C   C27       1.0  0.90065  0.10222  0.21522  1.0000
  C   C28       1.0  0.09935  0.89778  0.78478  1.0000
  C   C29       1.0  0.74160  0.02868  0.59230  1.0000
  C   C30       1.0  0.25840  0.97132  0.40770  1.0000
  C   C31       1.0  0.98537  0.56625  0.32642  1.0000
  C   C32       1.0  0.01463  0.43374  0.67358  1.0000
  O   O1        1.0  0.91641  0.26553  0.24502  1.0000
  O   O2        1.0  0.08359  0.73447  0.75498  1.0000
  O   O3        1.0  0.01614  0.71047  0.34210  1.0000
  O   O4        1.0  0.98387  0.28952  0.65790  1.0000
  O   O5        1.0  0.60518  0.40994  0.60350  1.0000
  O   O6        1.0  0.39482  0.59006  0.39649  1.0000
  O   O7        1.0  0.81005  0.11224  0.50303  1.0000
  O   O8        1.0  0.18995  0.88776  0.49697  1.0000
  O   O9        1.0  0.79057  0.85944  0.60422  1.0000
  O   O10       1.0  0.20943  0.14055  0.39578  1.0000
  O   O11       1.0  0.89670  0.48855  0.40815  1.0000
  O   O12       1.0  0.10330  0.51145  0.59185  1.0000
