data_image0
_chemical_formula_structural       Li8H12C28N4O16
_chemical_formula_sum              "Li8 H12 C28 N4 O16"
_cell_length_a       8.39515
_cell_length_b       8.39513
_cell_length_c       11.2084
_cell_angle_alpha    77.7153
_cell_angle_beta     77.7154
_cell_angle_gamma    81.6899

_space_group_name_H-M_alt    "P 1"
_space_group_IT_number       1

loop_
  _space_group_symop_operation_xyz
  'x, y, z'

loop_
  _atom_site_type_symbol
  _atom_site_label
  _atom_site_symmetry_multiplicity
  _atom_site_fract_x
  _atom_site_fract_y
  _atom_site_fract_z
  _atom_site_occupancy
  Li  Li1       1.0  0.45134  0.58951  0.12436  1.0000
  Li  Li2       1.0  0.41049  0.54866  0.37564  1.0000
  Li  Li3       1.0  0.54866  0.41049  0.87564  1.0000
  Li  Li4       1.0  0.58951  0.45134  0.62436  1.0000
  Li  Li5       1.0  0.95534  0.34671  0.52681  1.0000
  Li  Li6       1.0  0.65329  0.04467  0.97319  1.0000
  Li  Li7       1.0  0.04466  0.65329  0.47319  1.0000
  Li  Li8       1.0  0.34671  0.95534  0.02681  1.0000
  H   H1        1.0  0.84596  0.47317  0.20984  1.0000
  H   H2        1.0  0.52683  0.15404  0.29016  1.0000
  H   H3        1.0  0.15404  0.52683  0.79016  1.0000
  H   H4        1.0  0.47317  0.84596  0.70984  1.0000
  H   H5        1.0  0.33145  0.21187  0.16419  1.0000
  H   H6        1.0  0.78813  0.66855  0.33581  1.0000
  H   H7        1.0  0.66855  0.78813  0.83581  1.0000
  H   H8        1.0  0.21187  0.33145  0.66419  1.0000
  H   H9        1.0  0.99854  0.12774  0.96485  1.0000
  H   H10       1.0  0.87226  0.00146  0.53514  1.0000
  H   H11       1.0  0.00146  0.87226  0.03515  1.0000
  H   H12       1.0  0.12774  0.99854  0.46485  1.0000
  C   C1        1.0  0.14737  0.44771  0.28234  1.0000
  C   C2        1.0  0.55229  0.85263  0.21766  1.0000
  C   C3        1.0  0.85263  0.55229  0.71766  1.0000
  C   C4        1.0  0.44771  0.14737  0.78234  1.0000
  C   C5        1.0  0.74041  0.34280  0.04144  1.0000
  C   C6        1.0  0.65720  0.25959  0.45856  1.0000
  C   C7        1.0  0.25959  0.65720  0.95856  1.0000
  C   C8        1.0  0.34280  0.74041  0.54144  1.0000
  C   C9        1.0  0.93924  0.38537  0.16910  1.0000
  C   C10       1.0  0.61463  0.06076  0.33090  1.0000
  C   C11       1.0  0.06076  0.61463  0.83090  1.0000
  C   C12       1.0  0.38537  0.93924  0.66910  1.0000
  C   C13       1.0  0.09610  0.35604  0.19756  1.0000
  C   C14       1.0  0.64396  0.90390  0.30244  1.0000
  C   C15       1.0  0.90390  0.64396  0.80244  1.0000
  C   C16       1.0  0.35604  0.09609  0.69756  1.0000
  C   C17       1.0  0.20825  0.23916  0.14325  1.0000
  C   C18       1.0  0.76084  0.79175  0.35675  1.0000
  C   C19       1.0  0.79175  0.76084  0.85675  1.0000
  C   C20       1.0  0.23916  0.20825  0.64325  1.0000
  C   C21       1.0  0.02368  0.19009  0.03383  1.0000
  C   C22       1.0  0.80991  0.97632  0.46617  1.0000
  C   C23       1.0  0.97632  0.80991  0.96617  1.0000
  C   C24       1.0  0.19009  0.02368  0.53383  1.0000
  C   C25       1.0  0.90290  0.30363  0.08332  1.0000
  C   C26       1.0  0.69636  0.09710  0.41668  1.0000
  C   C27       1.0  0.09710  0.69637  0.91668  1.0000
  C   C28       1.0  0.30364  0.90290  0.58332  1.0000
  N   N1        1.0  0.17255  0.15359  0.06537  1.0000
  N   N2        1.0  0.84641  0.82745  0.43463  1.0000
  N   N3        1.0  0.82745  0.84641  0.93463  1.0000
  N   N4        1.0  0.15359  0.17255  0.56537  1.0000
  O   O1        1.0  0.03786  0.49190  0.37040  1.0000
  O   O2        1.0  0.50810  0.96215  0.12960  1.0000
  O   O3        1.0  0.96214  0.50810  0.62960  1.0000
  O   O4        1.0  0.49190  0.03785  0.87040  1.0000
  O   O5        1.0  0.64818  0.46341  0.07494  1.0000
  O   O6        1.0  0.53660  0.35182  0.42506  1.0000
  O   O7        1.0  0.35182  0.53660  0.92506  1.0000
  O   O8        1.0  0.46340  0.64818  0.57494  1.0000
  O   O9        1.0  0.29597  0.47478  0.26152  1.0000
  O   O10       1.0  0.52522  0.70403  0.23848  1.0000
  O   O11       1.0  0.70403  0.52522  0.73848  1.0000
  O   O12       1.0  0.47478  0.29597  0.76152  1.0000
  O   O13       1.0  0.70808  0.25516  0.97059  1.0000
  O   O14       1.0  0.74484  0.29192  0.52941  1.0000
  O   O15       1.0  0.29192  0.74484  0.02940  1.0000
  O   O16       1.0  0.25516  0.70808  0.47060  1.0000
