data_image0
_chemical_formula_structural       Li12H28C52N8O24
_chemical_formula_sum              "Li12 H28 C52 N8 O24"
_cell_length_a       10.1328
_cell_length_b       10.4075
_cell_length_c       13.2469
_cell_angle_alpha    90
_cell_angle_beta     89.9994
_cell_angle_gamma    106.259

_space_group_name_H-M_alt    "P 1"
_space_group_IT_number       1

loop_
  _space_group_symop_operation_xyz
  'x, y, z'

loop_
  _atom_site_type_symbol
  _atom_site_label
  _atom_site_symmetry_multiplicity
  _atom_site_fract_x
  _atom_site_fract_y
  _atom_site_fract_z
  _atom_site_occupancy
  Li  Li1       1.0  0.89096  0.93065  0.88778  1.0000
  Li  Li2       1.0  0.10904  0.56935  0.38779  1.0000
  Li  Li3       1.0  0.10904  0.06934  0.11222  1.0000
  Li  Li4       1.0  0.89096  0.43065  0.61222  1.0000
  Li  Li5       1.0  0.94590  0.67397  0.80351  1.0000
  Li  Li6       1.0  0.05409  0.82603  0.30351  1.0000
  Li  Li7       1.0  0.05410  0.32603  0.19649  1.0000
  Li  Li8       1.0  0.94590  0.17397  0.69649  1.0000
  Li  Li9       1.0  0.69305  0.52456  0.66889  1.0000
  Li  Li10      1.0  0.30694  0.97543  0.16889  1.0000
  Li  Li11      1.0  0.30695  0.47544  0.33110  1.0000
  Li  Li12      1.0  0.69306  0.02456  0.83111  1.0000
  H   H1        1.0  0.70589  0.26560  0.89759  1.0000
  H   H2        1.0  0.29411  0.23440  0.39759  1.0000
  H   H3        1.0  0.29411  0.73439  0.10241  1.0000
  H   H4        1.0  0.70589  0.76561  0.60241  1.0000
  H   H5        1.0  0.77769  0.62788  0.07440  1.0000
  H   H6        1.0  0.22231  0.87212  0.57440  1.0000
  H   H7        1.0  0.22231  0.37212  0.92560  1.0000
  H   H8        1.0  0.77768  0.12788  0.42560  1.0000
  H   H9        1.0  0.44370  0.82308  0.82386  1.0000
  H   H10       1.0  0.55629  0.67693  0.32385  1.0000
  H   H11       1.0  0.55631  0.17692  0.17614  1.0000
  H   H12       1.0  0.44371  0.32307  0.67614  1.0000
  H   H13       1.0  0.65164  0.48270  0.93239  1.0000
  H   H14       1.0  0.34837  0.01731  0.43239  1.0000
  H   H15       1.0  0.34837  0.51730  0.06761  1.0000
  H   H16       1.0  0.65163  0.98269  0.56762  1.0000
  H   H17       1.0  0.38828  0.47986  0.56068  1.0000
  H   H18       1.0  0.61170  0.02016  0.06069  1.0000
  H   H19       1.0  0.61172  0.52014  0.43932  1.0000
  H   H20       1.0  0.38828  0.97986  0.93932  1.0000
  H   H21       1.0  0.19717  0.58329  0.58924  1.0000
  H   H22       1.0  0.80282  0.91674  0.08924  1.0000
  H   H23       1.0  0.80282  0.41671  0.41076  1.0000
  H   H24       1.0  0.19718  0.08328  0.91076  1.0000
  H   H25       1.0  0.22161  0.75610  0.72448  1.0000
  H   H26       1.0  0.77839  0.74392  0.22447  1.0000
  H   H27       1.0  0.77840  0.24390  0.27552  1.0000
  H   H28       1.0  0.22161  0.25609  0.77552  1.0000
  C   C1        1.0  0.96627  0.56368  0.20309  1.0000
  C   C2        1.0  0.03374  0.93631  0.70308  1.0000
  C   C3        1.0  0.03373  0.43632  0.79692  1.0000
  C   C4        1.0  0.96627  0.06367  0.29692  1.0000
  C   C5        1.0  0.66737  0.72739  0.79657  1.0000
  C   C6        1.0  0.33262  0.77261  0.29658  1.0000
  C   C7        1.0  0.33264  0.27258  0.20342  1.0000
  C   C8        1.0  0.66737  0.22740  0.70342  1.0000
  C   C9        1.0  0.90175  0.17167  0.99499  1.0000
  C   C10       1.0  0.09826  0.32833  0.49499  1.0000
  C   C11       1.0  0.09825  0.82833  0.00501  1.0000
  C   C12       1.0  0.90175  0.67167  0.50501  1.0000
  C   C13       1.0  0.85668  0.29629  0.01572  1.0000
  C   C14       1.0  0.14332  0.20371  0.51572  1.0000
  C   C15       1.0  0.14332  0.70370  0.98428  1.0000
  C   C16       1.0  0.85668  0.79630  0.48428  1.0000
  C   C17       1.0  0.75657  0.33124  0.95805  1.0000
  C   C18       1.0  0.24343  0.16876  0.45805  1.0000
  C   C19       1.0  0.24343  0.66876  0.04195  1.0000
  C   C20       1.0  0.75657  0.83124  0.54196  1.0000
  C   C21       1.0  0.79472  0.53166  0.05706  1.0000
  C   C22       1.0  0.20529  0.96834  0.55706  1.0000
  C   C23       1.0  0.20529  0.46834  0.94294  1.0000
  C   C24       1.0  0.79471  0.03166  0.44294  1.0000
  C   C25       1.0  0.88979  0.48687  0.11361  1.0000
  C   C26       1.0  0.11022  0.01314  0.61361  1.0000
  C   C27       1.0  0.11022  0.51313  0.88639  1.0000
  C   C28       1.0  0.88978  0.98687  0.38639  1.0000
  C   C29       1.0  0.52905  0.68532  0.74413  1.0000
  C   C30       1.0  0.47094  0.81468  0.24413  1.0000
  C   C31       1.0  0.47095  0.31468  0.25587  1.0000
  C   C32       1.0  0.52906  0.18531  0.75587  1.0000
  C   C33       1.0  0.42654  0.74706  0.76526  1.0000
  C   C34       1.0  0.57345  0.75294  0.26525  1.0000
  C   C35       1.0  0.57346  0.25293  0.23474  1.0000
  C   C36       1.0  0.42655  0.24706  0.73474  1.0000
  C   C37       1.0  0.72592  0.45117  0.97862  1.0000
  C   C38       1.0  0.27409  0.04883  0.47862  1.0000
  C   C39       1.0  0.27409  0.54883  0.02138  1.0000
  C   C40       1.0  0.72591  0.95117  0.52138  1.0000
  C   C41       1.0  0.39698  0.55574  0.61921  1.0000
  C   C42       1.0  0.60300  0.94427  0.11921  1.0000
  C   C43       1.0  0.60301  0.44425  0.38078  1.0000
  C   C44       1.0  0.39699  0.05574  0.88079  1.0000
  C   C45       1.0  0.29005  0.61370  0.63491  1.0000
  C   C46       1.0  0.70995  0.88631  0.13491  1.0000
  C   C47       1.0  0.70995  0.38630  0.36509  1.0000
  C   C48       1.0  0.29005  0.11369  0.86509  1.0000
  C   C49       1.0  0.30447  0.71025  0.71020  1.0000
  C   C50       1.0  0.69552  0.78976  0.21019  1.0000
  C   C51       1.0  0.69554  0.28974  0.28981  1.0000
  C   C52       1.0  0.30447  0.21025  0.78981  1.0000
  N   N1        1.0  0.92047  0.37250  0.09262  1.0000
  N   N2        1.0  0.07954  0.12750  0.59261  1.0000
  N   N3        1.0  0.07954  0.62750  0.90739  1.0000
  N   N4        1.0  0.92046  0.87250  0.40739  1.0000
  N   N5        1.0  0.51405  0.58904  0.67297  1.0000
  N   N6        1.0  0.48594  0.91097  0.17298  1.0000
  N   N7        1.0  0.48596  0.41096  0.32702  1.0000
  N   N8        1.0  0.51405  0.08903  0.82703  1.0000
  O   O1        1.0  0.74492  0.65108  0.78539  1.0000
  O   O2        1.0  0.25507  0.84892  0.28540  1.0000
  O   O3        1.0  0.25507  0.34893  0.21461  1.0000
  O   O4        1.0  0.74494  0.15107  0.71461  1.0000
  O   O5        1.0  0.82703  0.08361  0.93617  1.0000
  O   O6        1.0  0.17298  0.41639  0.43617  1.0000
  O   O7        1.0  0.17296  0.91638  0.06383  1.0000
  O   O8        1.0  0.82704  0.58362  0.56383  1.0000
  O   O9        1.0  0.03609  0.50297  0.25545  1.0000
  O   O10       1.0  0.96391  0.99703  0.75545  1.0000
  O   O11       1.0  0.96391  0.49702  0.74456  1.0000
  O   O12       1.0  0.03608  0.00298  0.24455  1.0000
  O   O13       1.0  0.95545  0.67976  0.21904  1.0000
  O   O14       1.0  0.04455  0.82025  0.71904  1.0000
  O   O15       1.0  0.04455  0.32023  0.78096  1.0000
  O   O16       1.0  0.95545  0.17978  0.28096  1.0000
  O   O17       1.0  0.69751  0.83669  0.84547  1.0000
  O   O18       1.0  0.30248  0.66331  0.34547  1.0000
  O   O19       1.0  0.30249  0.16331  0.15454  1.0000
  O   O20       1.0  0.69751  0.33668  0.65453  1.0000
  O   O21       1.0  0.00927  0.16268  0.03848  1.0000
  O   O22       1.0  0.99073  0.33732  0.53848  1.0000
  O   O23       1.0  0.99072  0.83731  0.96152  1.0000
  O   O24       1.0  0.00929  0.66270  0.46152  1.0000
