data_image0
_chemical_formula_structural       Cu4H64C40S8N8Cl4
_chemical_formula_sum              "Cu4 H64 C40 S8 N8 Cl4"
_cell_length_a       9.8431
_cell_length_b       10.6434
_cell_length_c       14.147
_cell_angle_alpha    77.9628
_cell_angle_beta     69.6289
_cell_angle_gamma    62.4542

_space_group_name_H-M_alt    "P 1"
_space_group_IT_number       1

loop_
  _space_group_symop_operation_xyz
  'x, y, z'

loop_
  _atom_site_type_symbol
  _atom_site_label
  _atom_site_symmetry_multiplicity
  _atom_site_fract_x
  _atom_site_fract_y
  _atom_site_fract_z
  _atom_site_occupancy
  Cu  Cu1       1.0  0.14563  0.39668  0.96057  1.0000
  Cu  Cu2       1.0  0.50272  0.10333  0.53948  1.0000
  Cu  Cu3       1.0  0.85437  0.60332  0.03943  1.0000
  Cu  Cu4       1.0  0.49728  0.89667  0.46052  1.0000
  H   H1        1.0  0.49314  0.19043  0.87527  1.0000
  H   H2        1.0  0.55850  0.30933  0.62492  1.0000
  H   H3        1.0  0.50686  0.80958  0.12472  1.0000
  H   H4        1.0  0.44150  0.69067  0.37508  1.0000
  H   H5        1.0  0.49964  0.13672  0.76282  1.0000
  H   H6        1.0  0.39853  0.36333  0.73726  1.0000
  H   H7        1.0  0.50035  0.86328  0.23718  1.0000
  H   H8        1.0  0.60147  0.63667  0.26274  1.0000
  H   H9        1.0  0.74593  0.95120  0.77252  1.0000
  H   H10       1.0  0.46948  0.54860  0.72753  1.0000
  H   H11       1.0  0.25407  0.04880  0.22748  1.0000
  H   H12       1.0  0.53052  0.45140  0.27247  1.0000
  H   H13       1.0  0.69710  0.95397  0.90588  1.0000
  H   H14       1.0  0.55704  0.54561  0.59417  1.0000
  H   H15       1.0  0.30290  0.04603  0.09412  1.0000
  H   H16       1.0  0.44296  0.45439  0.40582  1.0000
  H   H17       1.0  0.61372  0.80620  0.78794  1.0000
  H   H18       1.0  0.20777  0.69377  0.71192  1.0000
  H   H19       1.0  0.38628  0.19380  0.21206  1.0000
  H   H20       1.0  0.79223  0.30623  0.28808  1.0000
  H   H21       1.0  0.63690  0.75893  0.91258  1.0000
  H   H22       1.0  0.30870  0.74092  0.58732  1.0000
  H   H23       1.0  0.36310  0.24107  0.08742  1.0000
  H   H24       1.0  0.69130  0.25908  0.41268  1.0000
  H   H25       1.0  0.19982  0.91484  0.98287  1.0000
  H   H26       1.0  0.09762  0.58541  0.51692  1.0000
  H   H27       1.0  0.80018  0.08515  0.01714  1.0000
  H   H28       1.0  0.90238  0.41459  0.48308  1.0000
  H   H29       1.0  0.37590  0.75320  0.98523  1.0000
  H   H30       1.0  0.11444  0.74701  0.51470  1.0000
  H   H31       1.0  0.62411  0.24680  0.01477  1.0000
  H   H32       1.0  0.88556  0.25300  0.48530  1.0000
  H   H33       1.0  0.42706  0.73538  0.79892  1.0000
  H   H34       1.0  0.96162  0.76450  0.70102  1.0000
  H   H35       1.0  0.57294  0.26462  0.20109  1.0000
  H   H36       1.0  0.03838  0.23550  0.29898  1.0000
  H   H37       1.0  0.25534  0.71353  0.88071  1.0000
  H   H38       1.0  0.84968  0.78643  0.61933  1.0000
  H   H39       1.0  0.74466  0.28647  0.11929  1.0000
  H   H40       1.0  0.15032  0.21357  0.38067  1.0000
  H   H41       1.0  0.99986  0.04044  0.88653  1.0000
  H   H42       1.0  0.92700  0.45938  0.61349  1.0000
  H   H43       1.0  0.00014  0.95955  0.11347  1.0000
  H   H44       1.0  0.07299  0.54062  0.38651  1.0000
  H   H45       1.0  0.99357  0.88494  0.86307  1.0000
  H   H46       1.0  0.74186  0.61508  0.63686  1.0000
  H   H47       1.0  0.00643  0.11506  0.13693  1.0000
  H   H48       1.0  0.25813  0.38492  0.36315  1.0000
  H   H49       1.0  0.87269  0.14179  0.75235  1.0000
  H   H50       1.0  0.76663  0.35840  0.74773  1.0000
  H   H51       1.0  0.12731  0.85821  0.24765  1.0000
  H   H52       1.0  0.23337  0.64160  0.25227  1.0000
  H   H53       1.0  0.96706  0.97858  0.69509  1.0000
  H   H54       1.0  0.64066  0.52171  0.80487  1.0000
  H   H55       1.0  0.03294  0.02142  0.30491  1.0000
  H   H56       1.0  0.35935  0.47828  0.19513  1.0000
  H   H57       1.0  0.14908  0.07401  0.58592  1.0000
  H   H58       1.0  0.80867  0.42634  0.91412  1.0000
  H   H59       1.0  0.85092  0.92599  0.41408  1.0000
  H   H60       1.0  0.19134  0.57365  0.08588  1.0000
  H   H61       1.0  0.12038  0.17750  0.68102  1.0000
  H   H62       1.0  0.97858  0.32249  0.81918  1.0000
  H   H63       1.0  0.87962  0.82250  0.31899  1.0000
  H   H64       1.0  0.02143  0.67751  0.18081  1.0000
  C   C1        1.0  0.36308  0.06576  0.89336  1.0000
  C   C2        1.0  0.32207  0.43423  0.60655  1.0000
  C   C3        1.0  0.63692  0.93424  0.10664  1.0000
  C   C4        1.0  0.67793  0.56577  0.39345  1.0000
  C   C5        1.0  0.50292  0.10160  0.84137  1.0000
  C   C6        1.0  0.44555  0.39826  0.65870  1.0000
  C   C7        1.0  0.49708  0.89840  0.15863  1.0000
  C   C8        1.0  0.55445  0.60174  0.34129  1.0000
  C   C9        1.0  0.65096  0.96161  0.84364  1.0000
  C   C10       1.0  0.45617  0.53812  0.65640  1.0000
  C   C11       1.0  0.34904  0.03839  0.15636  1.0000
  C   C12       1.0  0.54383  0.46188  0.34360  1.0000
  C   C13       1.0  0.59028  0.84779  0.85972  1.0000
  C   C14       1.0  0.29788  0.65210  0.64017  1.0000
  C   C15       1.0  0.40972  0.15221  0.14028  1.0000
  C   C16       1.0  0.70212  0.34790  0.35983  1.0000
  C   C17       1.0  0.31888  0.84559  0.93752  1.0000
  C   C18       1.0  0.10215  0.65454  0.56232  1.0000
  C   C19       1.0  0.68112  0.15441  0.06248  1.0000
  C   C20       1.0  0.89785  0.34546  0.43769  1.0000
  C   C21       1.0  0.30700  0.79087  0.84983  1.0000
  C   C22       1.0  0.94788  0.70907  0.65013  1.0000
  C   C23       1.0  0.69300  0.20912  0.15017  1.0000
  C   C24       1.0  0.05211  0.29093  0.34987  1.0000
  C   C25       1.0  0.03631  0.96737  0.82824  1.0000
  C   C26       1.0  0.83212  0.53261  0.67172  1.0000
  C   C27       1.0  0.96369  0.03263  0.17176  1.0000
  C   C28       1.0  0.16788  0.46739  0.32829  1.0000
  C   C29       1.0  0.98520  0.04600  0.73418  1.0000
  C   C30       1.0  0.76531  0.45417  0.76582  1.0000
  C   C31       1.0  0.01480  0.95400  0.26582  1.0000
  C   C32       1.0  0.23469  0.54583  0.23418  1.0000
  C   C33       1.0  0.12881  0.07555  0.66714  1.0000
  C   C34       1.0  0.87129  0.42454  0.83291  1.0000
  C   C35       1.0  0.87119  0.92444  0.33286  1.0000
  C   C36       1.0  0.12871  0.57545  0.16709  1.0000
  C   C37       1.0  0.26779  0.95955  0.69997  1.0000
  C   C38       1.0  0.92752  0.54031  0.79998  1.0000
  C   C39       1.0  0.73221  0.04045  0.30003  1.0000
  C   C40       1.0  0.07249  0.45968  0.20002  1.0000
  S   S1        1.0  0.16958  0.18288  0.93154  1.0000
  S   S2        1.0  0.28382  0.31717  0.56836  1.0000
  S   S3        1.0  0.83042  0.81711  0.06846  1.0000
  S   S4        1.0  0.71617  0.68283  0.43164  1.0000
  S   S5        1.0  0.00686  0.59138  0.86482  1.0000
  S   S6        1.0  0.46307  0.90847  0.63510  1.0000
  S   S7        1.0  0.99314  0.40862  0.13518  1.0000
  S   S8        1.0  0.53693  0.09153  0.36490  1.0000
  N   N1        1.0  0.41579  0.92466  0.90234  1.0000
  N   N2        1.0  0.24295  0.57535  0.59744  1.0000
  N   N3        1.0  0.58421  0.07534  0.09766  1.0000
  N   N4        1.0  0.75705  0.42466  0.40256  1.0000
  N   N5        1.0  0.21209  0.90174  0.78989  1.0000
  N   N6        1.0  0.90400  0.59814  0.71005  1.0000
  N   N7        1.0  0.78792  0.09825  0.21011  1.0000
  N   N8        1.0  0.09600  0.40186  0.28995  1.0000
  Cl  Cl1       1.0  0.36883  0.43441  0.93374  1.0000
  Cl  Cl2       1.0  0.73685  0.06566  0.56627  1.0000
  Cl  Cl3       1.0  0.63117  0.56559  0.06626  1.0000
  Cl  Cl4       1.0  0.26315  0.93434  0.43373  1.0000
