data_image0
_chemical_formula_structural       Ag2H18C20S2N6O6F6
_chemical_formula_sum              "Ag2 H18 C20 S2 N6 O6 F6"
_cell_length_a       7.74869
_cell_length_b       8.01466
_cell_length_c       12.0013
_cell_angle_alpha    90.283
_cell_angle_beta     95.3322
_cell_angle_gamma    111.735

_space_group_name_H-M_alt    "P 1"
_space_group_IT_number       1

loop_
  _space_group_symop_operation_xyz
  'x, y, z'

loop_
  _atom_site_type_symbol
  _atom_site_label
  _atom_site_symmetry_multiplicity
  _atom_site_fract_x
  _atom_site_fract_y
  _atom_site_fract_z
  _atom_site_occupancy
  Ag  Ag1       1.0  0.14913  0.42280  0.21692  1.0000
  Ag  Ag2       1.0  0.85087  0.57720  0.78308  1.0000
  H   H1        1.0  0.59346  0.37250  0.42437  1.0000
  H   H2        1.0  0.40654  0.62749  0.57563  1.0000
  H   H3        1.0  0.70937  0.30815  0.54266  1.0000
  H   H4        1.0  0.29063  0.69185  0.45734  1.0000
  H   H5        1.0  0.59655  0.14973  0.42786  1.0000
  H   H6        1.0  0.40345  0.85027  0.57214  1.0000
  H   H7        1.0  0.18877  0.79046  0.23795  1.0000
  H   H8        1.0  0.81123  0.20954  0.76205  1.0000
  H   H9        1.0  0.96994  0.73788  0.15650  1.0000
  H   H10       1.0  0.03006  0.26212  0.84350  1.0000
  H   H11       1.0  0.24705  0.99964  0.96678  1.0000
  H   H12       1.0  0.75295  0.00036  0.03322  1.0000
  H   H13       1.0  0.38004  0.89289  0.81488  1.0000
  H   H14       1.0  0.61997  0.10711  0.18512  1.0000
  H   H15       1.0  0.40648  0.58686  0.82807  1.0000
  H   H16       1.0  0.59353  0.41314  0.17193  1.0000
  H   H17       1.0  0.30050  0.40969  0.99518  1.0000
  H   H18       1.0  0.69950  0.59031  0.00483  1.0000
  C   C1        1.0  0.79424  0.82968  0.39754  1.0000
  C   C2        1.0  0.20576  0.17032  0.60246  1.0000
  C   C3        1.0  0.84575  0.35186  0.39669  1.0000
  C   C4        1.0  0.15425  0.64814  0.60331  1.0000
  C   C5        1.0  0.67698  0.29224  0.45134  1.0000
  C   C6        1.0  0.32302  0.70776  0.54866  1.0000
  C   C7        1.0  0.20331  0.76123  0.06217  1.0000
  C   C8        1.0  0.79669  0.23877  0.93783  1.0000
  C   C9        1.0  0.12110  0.81701  0.15878  1.0000
  C   C10       1.0  0.87890  0.18299  0.84122  1.0000
  C   C11       1.0  0.14754  0.00558  0.16254  1.0000
  C   C12       1.0  0.85245  0.99443  0.83746  1.0000
  C   C13       1.0  0.25933  0.86873  0.97126  1.0000
  C   C14       1.0  0.74066  0.13127  0.02874  1.0000
  C   C15       1.0  0.33400  0.80815  0.88551  1.0000
  C   C16       1.0  0.66600  0.19185  0.11449  1.0000
  C   C17       1.0  0.34941  0.64070  0.89273  1.0000
  C   C18       1.0  0.65059  0.35929  0.10728  1.0000
  C   C19       1.0  0.28998  0.54098  0.98595  1.0000
  C   C20       1.0  0.71002  0.45903  0.01405  1.0000
  S   S1        1.0  0.59613  0.75074  0.28480  1.0000
  S   S2        1.0  0.40387  0.24926  0.71521  1.0000
  N   N1        1.0  0.97989  0.39886  0.35038  1.0000
  N   N2        1.0  0.02011  0.60114  0.64963  1.0000
  N   N3        1.0  0.21889  0.59919  0.06952  1.0000
  N   N4        1.0  0.78111  0.40081  0.93048  1.0000
  N   N5        1.0  0.17076  0.15748  0.16642  1.0000
  N   N6        1.0  0.82923  0.84251  0.83357  1.0000
  O   O1        1.0  0.49861  0.56155  0.30938  1.0000
  O   O2        1.0  0.50139  0.43845  0.69062  1.0000
  O   O3        1.0  0.68786  0.77965  0.18196  1.0000
  O   O4        1.0  0.31213  0.22035  0.81804  1.0000
  O   O5        1.0  0.49355  0.86720  0.30430  1.0000
  O   O6        1.0  0.50645  0.13280  0.69570  1.0000
  F   F1        1.0  0.89357  0.00764  0.38924  1.0000
  F   F2        1.0  0.10643  0.99236  0.61076  1.0000
  F   F3        1.0  0.91255  0.74121  0.38934  1.0000
  F   F4        1.0  0.08745  0.25879  0.61066  1.0000
  F   F5        1.0  0.73242  0.80363  0.50058  1.0000
  F   F6        1.0  0.26758  0.19637  0.49942  1.0000
