data_image0
_chemical_formula_structural       Cu3P2H26C30N6O10
_chemical_formula_sum              "Cu3 P2 H26 C30 N6 O10"
_cell_length_a       8.05341
_cell_length_b       9.76831
_cell_length_c       11.1673
_cell_angle_alpha    106.4
_cell_angle_beta     107.186
_cell_angle_gamma    92.1544

_space_group_name_H-M_alt    "P 1"
_space_group_IT_number       1

loop_
  _space_group_symop_operation_xyz
  'x, y, z'

loop_
  _atom_site_type_symbol
  _atom_site_label
  _atom_site_symmetry_multiplicity
  _atom_site_fract_x
  _atom_site_fract_y
  _atom_site_fract_z
  _atom_site_occupancy
  Cu  Cu1       1.0  0.49987  0.00020  0.50013  1.0000
  Cu  Cu2       1.0  0.31554  0.06273  0.01659  1.0000
  Cu  Cu3       1.0  0.68429  0.93751  0.98372  1.0000
  P   P1        1.0  0.56913  0.05215  0.26453  1.0000
  P   P2        1.0  0.43028  0.94758  0.73566  1.0000
  H   H1        1.0  0.82579  0.32170  0.41544  1.0000
  H   H2        1.0  0.17411  0.67777  0.58479  1.0000
  H   H3        1.0  0.83385  0.56284  0.37115  1.0000
  H   H4        1.0  0.16668  0.43658  0.62902  1.0000
  H   H5        1.0  0.60117  0.59329  0.17803  1.0000
  H   H6        1.0  0.39957  0.40630  0.82208  1.0000
  H   H7        1.0  0.30688  0.77967  0.05482  1.0000
  H   H8        1.0  0.69331  0.22042  0.94484  1.0000
  H   H9        1.0  0.12950  0.54246  0.95263  1.0000
  H   H10       1.0  0.87056  0.45770  0.04709  1.0000
  H   H11       1.0  0.76209  0.73503  0.69631  1.0000
  H   H12       1.0  0.23808  0.26519  0.30341  1.0000
  H   H13       1.0  0.95713  0.96319  0.81282  1.0000
  H   H14       1.0  0.04324  0.03696  0.18680  1.0000
  H   H15       1.0  0.43571  0.29582  0.50943  1.0000
  H   H16       1.0  0.56417  0.70441  0.49053  1.0000
  H   H17       1.0  0.59366  0.54224  0.62635  1.0000
  H   H18       1.0  0.40630  0.45796  0.37352  1.0000
  H   H19       1.0  0.02153  0.34780  0.82601  1.0000
  H   H20       1.0  0.97845  0.65238  0.17378  1.0000
  H   H21       1.0  0.84166  0.11265  0.70550  1.0000
  H   H22       1.0  0.15815  0.88754  0.29448  1.0000
  H   H23       1.0  0.24240  0.25613  0.93379  1.0000
  H   H24       1.0  0.75750  0.74425  0.06665  1.0000
  H   H25       1.0  0.20526  0.10464  0.80424  1.0000
  H   H26       1.0  0.79413  0.89561  0.19627  1.0000
  C   C1        1.0  0.59612  0.23150  0.24813  1.0000
  C   C2        1.0  0.40401  0.76804  0.75196  1.0000
  C   C3        1.0  0.72730  0.34140  0.33345  1.0000
  C   C4        1.0  0.27286  0.65808  0.66664  1.0000
  C   C5        1.0  0.73030  0.47438  0.30785  1.0000
  C   C6        1.0  0.27013  0.52514  0.69230  1.0000
  C   C7        1.0  0.60251  0.49305  0.20237  1.0000
  C   C8        1.0  0.39801  0.50660  0.79783  1.0000
  C   C9        1.0  0.46680  0.37799  0.11703  1.0000
  C   C10       1.0  0.53353  0.62177  0.88314  1.0000
  C   C11       1.0  0.18395  0.76358  0.97560  1.0000
  C   C12       1.0  0.81627  0.23652  0.02406  1.0000
  C   C13       1.0  0.08186  0.63062  0.91607  1.0000
  C   C14       1.0  0.91826  0.36953  0.08362  1.0000
  C   C15       1.0  0.92802  0.61273  0.81011  1.0000
  C   C16       1.0  0.07207  0.38744  0.18962  1.0000
  C   C17       1.0  0.88133  0.73635  0.77458  1.0000
  C   C18       1.0  0.11885  0.26383  0.22511  1.0000
  C   C19       1.0  0.98983  0.86654  0.83950  1.0000
  C   C20       1.0  0.01047  0.13360  0.16013  1.0000
  C   C21       1.0  0.56621  0.31373  0.58090  1.0000
  C   C22       1.0  0.43366  0.68649  0.41906  1.0000
  C   C23       1.0  0.65717  0.45103  0.64626  1.0000
  C   C24       1.0  0.34277  0.54917  0.35363  1.0000
  C   C25       1.0  0.82496  0.46957  0.73799  1.0000
  C   C26       1.0  0.17501  0.53062  0.26184  1.0000
  C   C27       1.0  0.89221  0.34410  0.75777  1.0000
  C   C28       1.0  0.10773  0.65609  0.24209  1.0000
  C   C29       1.0  0.79302  0.21061  0.68991  1.0000
  C   C30       1.0  0.20683  0.78959  0.31006  1.0000
  N   N1        1.0  0.47063  0.24758  0.14209  1.0000
  N   N2        1.0  0.52958  0.75208  0.85790  1.0000
  N   N3        1.0  0.14182  0.88014  0.93678  1.0000
  N   N4        1.0  0.85847  0.11995  0.06284  1.0000
  N   N5        1.0  0.63201  0.19527  0.60223  1.0000
  N   N6        1.0  0.36782  0.80494  0.39777  1.0000
  O   O1        1.0  0.74027  0.00132  0.32436  1.0000
  O   O2        1.0  0.25881  0.99811  0.67616  1.0000
  O   O3        1.0  0.43489  0.05947  0.34102  1.0000
  O   O4        1.0  0.56413  0.94047  0.65889  1.0000
  O   O5        1.0  0.48072  0.96299  0.11701  1.0000
  O   O6        1.0  0.51892  0.03677  0.88317  1.0000
  O   O7        1.0  0.34342  0.39414  0.02062  1.0000
  O   O8        1.0  0.65701  0.60589  0.97966  1.0000
  O   O9        1.0  0.17422  0.15166  0.88657  1.0000
  O   O10       1.0  0.82525  0.84883  0.11390  1.0000
