data_image0
_chemical_formula_structural       Zn2H46C48N10O12
_chemical_formula_sum              "Zn2 H46 C48 N10 O12"
_cell_length_a       10.0546
_cell_length_b       11.9044
_cell_length_c       12.0021
_cell_angle_alpha    119.517
_cell_angle_beta     95.5757
_cell_angle_gamma    103.509

_space_group_name_H-M_alt    "P 1"
_space_group_IT_number       1

loop_
  _space_group_symop_operation_xyz
  'x, y, z'

loop_
  _atom_site_type_symbol
  _atom_site_label
  _atom_site_symmetry_multiplicity
  _atom_site_fract_x
  _atom_site_fract_y
  _atom_site_fract_z
  _atom_site_occupancy
  Zn  Zn1       1.0  0.40234  0.29812  0.51999  1.0000
  Zn  Zn2       1.0  0.59766  0.70188  0.48001  1.0000
  H   H1        1.0  0.99085  0.50380  0.29197  1.0000
  H   H2        1.0  0.00915  0.49620  0.70804  1.0000
  H   H3        1.0  0.09645  0.31968  0.24278  1.0000
  H   H4        1.0  0.90356  0.68032  0.75722  1.0000
  H   H5        1.0  0.99279  0.14571  0.29960  1.0000
  H   H6        1.0  0.00722  0.85430  0.70040  1.0000
  H   H7        1.0  0.31260  0.13264  0.22340  1.0000
  H   H8        1.0  0.68740  0.86735  0.77660  1.0000
  H   H9        1.0  0.12534  0.91504  0.04467  1.0000
  H   H10       1.0  0.87466  0.08496  0.95533  1.0000
  H   H11       1.0  0.98476  0.86589  0.35093  1.0000
  H   H12       1.0  0.01525  0.13411  0.64908  1.0000
  H   H13       1.0  0.17473  0.08662  0.51719  1.0000
  H   H14       1.0  0.82527  0.91338  0.48281  1.0000
  H   H15       1.0  0.84289  0.71716  0.12644  1.0000
  H   H16       1.0  0.15710  0.28283  0.87355  1.0000
  H   H17       1.0  0.88195  0.74502  0.99843  1.0000
  H   H18       1.0  0.11805  0.25498  0.00157  1.0000
  H   H19       1.0  0.96649  0.58779  0.17973  1.0000
  H   H20       1.0  0.03352  0.41221  0.82026  1.0000
  H   H21       1.0  0.13288  0.70506  0.21120  1.0000
  H   H22       1.0  0.86712  0.29494  0.78879  1.0000
  H   H23       1.0  0.84441  0.51672  0.84406  1.0000
  H   H24       1.0  0.15559  0.48328  0.15594  1.0000
  H   H25       1.0  0.79580  0.47382  0.96067  1.0000
  H   H26       1.0  0.20421  0.52618  0.03933  1.0000
  H   H27       1.0  0.34388  0.39863  0.78569  1.0000
  H   H28       1.0  0.65611  0.60136  0.21431  1.0000
  H   H29       1.0  0.42365  0.39005  0.98562  1.0000
  H   H30       1.0  0.57635  0.60995  0.01438  1.0000
  H   H31       1.0  0.62644  0.10316  0.75441  1.0000
  H   H32       1.0  0.37357  0.89685  0.24559  1.0000
  H   H33       1.0  0.54349  0.12668  0.56586  1.0000
  H   H34       1.0  0.45651  0.87332  0.43415  1.0000
  H   H35       1.0  0.70827  0.29116  0.03589  1.0000
  H   H36       1.0  0.29172  0.70884  0.96412  1.0000
  H   H37       1.0  0.55214  0.31096  0.09060  1.0000
  H   H38       1.0  0.44785  0.68904  0.90940  1.0000
  H   H39       1.0  0.59086  0.16362  0.17829  1.0000
  H   H40       1.0  0.40914  0.83638  0.82171  1.0000
  H   H41       1.0  0.74095  0.15352  0.11081  1.0000
  H   H42       1.0  0.25905  0.84647  0.88919  1.0000
  H   H43       1.0  0.35281  0.03956  0.85856  1.0000
  H   H44       1.0  0.64718  0.96044  0.14143  1.0000
  H   H45       1.0  0.35998  0.09879  0.02831  1.0000
  H   H46       1.0  0.64001  0.90121  0.97169  1.0000
  C   C1        1.0  0.67246  0.36368  0.49593  1.0000
  C   C2        1.0  0.32753  0.63630  0.50404  1.0000
  C   C3        1.0  0.78821  0.35128  0.42234  1.0000
  C   C4        1.0  0.21179  0.64873  0.57766  1.0000
  C   C5        1.0  0.83953  0.44113  0.37999  1.0000
  C   C6        1.0  0.16047  0.55887  0.62001  1.0000
  C   C7        1.0  0.94973  0.42819  0.31671  1.0000
  C   C8        1.0  0.05028  0.57181  0.68329  1.0000
  C   C9        1.0  0.00714  0.32377  0.28739  1.0000
  C   C10       1.0  0.99287  0.67623  0.71261  1.0000
  C   C11       1.0  0.95285  0.22971  0.32120  1.0000
  C   C12       1.0  0.04716  0.77029  0.67881  1.0000
  C   C13       1.0  0.84692  0.24610  0.38944  1.0000
  C   C14       1.0  0.15308  0.75391  0.61056  1.0000
  C   C15       1.0  0.78000  0.55311  0.39926  1.0000
  C   C16       1.0  0.22000  0.44689  0.60074  1.0000
  C   C17       1.0  0.23514  0.07167  0.24663  1.0000
  C   C18       1.0  0.76486  0.92832  0.75337  1.0000
  C   C19       1.0  0.13150  0.95093  0.14853  1.0000
  C   C20       1.0  0.86849  0.04907  0.85147  1.0000
  C   C21       1.0  0.03777  0.87471  0.18435  1.0000
  C   C22       1.0  0.96222  0.12529  0.81565  1.0000
  C   C23       1.0  0.05318  0.92395  0.31895  1.0000
  C   C24       1.0  0.94682  0.07605  0.68105  1.0000
  C   C25       1.0  0.15851  0.04582  0.41162  1.0000
  C   C26       1.0  0.84149  0.95418  0.58838  1.0000
  C   C27       1.0  0.92913  0.73982  0.08183  1.0000
  C   C28       1.0  0.07087  0.26018  0.91817  1.0000
  C   C29       1.0  0.05018  0.61103  0.13300  1.0000
  C   C30       1.0  0.94982  0.38897  0.86699  1.0000
  C   C31       1.0  0.88644  0.50334  0.92326  1.0000
  C   C32       1.0  0.11356  0.49666  0.07673  1.0000
  C   C33       1.0  0.40950  0.33723  0.78491  1.0000
  C   C34       1.0  0.59050  0.66276  0.21509  1.0000
  C   C35       1.0  0.45366  0.33100  0.89450  1.0000
  C   C36       1.0  0.54634  0.66900  0.10549  1.0000
  C   C37       1.0  0.53637  0.24949  0.88745  1.0000
  C   C38       1.0  0.46363  0.75051  0.11255  1.0000
  C   C39       1.0  0.56631  0.17168  0.76589  1.0000
  C   C40       1.0  0.43369  0.82833  0.23411  1.0000
  C   C41       1.0  0.51853  0.18267  0.66049  1.0000
  C   C42       1.0  0.48148  0.81733  0.33951  1.0000
  C   C43       1.0  0.59193  0.24577  0.00611  1.0000
  C   C44       1.0  0.40806  0.75423  0.99389  1.0000
  C   C45       1.0  0.62653  0.10467  0.08838  1.0000
  C   C46       1.0  0.37346  0.89533  0.91162  1.0000
  C   C47       1.0  0.40466  0.04080  0.94423  1.0000
  C   C48       1.0  0.59534  0.95920  0.05577  1.0000
  N   N1        1.0  0.44321  0.26574  0.67008  1.0000
  N   N2        1.0  0.55679  0.73426  0.32993  1.0000
  N   N3        1.0  0.55712  0.10671  0.97687  1.0000
  N   N4        1.0  0.44288  0.89329  0.02313  1.0000
  N   N5        1.0  0.24772  0.11868  0.37618  1.0000
  N   N6        1.0  0.75228  0.88132  0.62383  1.0000
  N   N7        1.0  0.99257  0.63105  0.02938  1.0000
  N   N8        1.0  0.00744  0.36895  0.97061  1.0000
  N   N9        1.0  0.79843  0.14568  0.42550  1.0000
  N   N10       1.0  0.20156  0.85433  0.57451  1.0000
  O   O1        1.0  0.54964  0.27502  0.42133  1.0000
  O   O2        1.0  0.45036  0.72497  0.57866  1.0000
  O   O3        1.0  0.70025  0.44921  0.61618  1.0000
  O   O4        1.0  0.29975  0.55080  0.38383  1.0000
  O   O5        1.0  0.66012  0.54410  0.43123  1.0000
  O   O6        1.0  0.33989  0.45590  0.56877  1.0000
  O   O7        1.0  0.84499  0.64399  0.38134  1.0000
  O   O8        1.0  0.15502  0.35602  0.61866  1.0000
  O   O9        1.0  0.76113  0.18265  0.53027  1.0000
  O   O10       1.0  0.23887  0.81736  0.46973  1.0000
  O   O11       1.0  0.79849  0.02713  0.34907  1.0000
  O   O12       1.0  0.20151  0.97287  0.65093  1.0000
