data_image0
_chemical_formula_structural       Zn6P4H44C56N8O20
_chemical_formula_sum              "Zn6 P4 H44 C56 N8 O20"
_cell_length_a       10.3342
_cell_length_b       12.3384
_cell_length_c       12.8895
_cell_angle_alpha    72.2004
_cell_angle_beta     77.3599
_cell_angle_gamma    82.658

_space_group_name_H-M_alt    "P 1"
_space_group_IT_number       1

loop_
  _space_group_symop_operation_xyz
  'x, y, z'

loop_
  _atom_site_type_symbol
  _atom_site_label
  _atom_site_symmetry_multiplicity
  _atom_site_fract_x
  _atom_site_fract_y
  _atom_site_fract_z
  _atom_site_occupancy
  Zn  Zn1       1.0  0.02196  0.84000  0.98713  1.0000
  Zn  Zn2       1.0  0.97804  0.16000  0.01287  1.0000
  Zn  Zn3       1.0  0.94719  0.04853  0.34772  1.0000
  Zn  Zn4       1.0  0.05281  0.95147  0.65229  1.0000
  Zn  Zn5       1.0  0.86468  0.79150  0.36347  1.0000
  Zn  Zn6       1.0  0.13532  0.20850  0.63653  1.0000
  P   P1        1.0  0.82503  0.87909  0.57666  1.0000
  P   P2        1.0  0.17497  0.12090  0.42334  1.0000
  P   P3        1.0  0.08842  0.91630  0.17361  1.0000
  P   P4        1.0  0.91158  0.08370  0.82639  1.0000
  H   H1        1.0  0.58259  0.88330  0.49730  1.0000
  H   H2        1.0  0.41741  0.11670  0.50270  1.0000
  H   H3        1.0  0.34503  0.87736  0.58964  1.0000
  H   H4        1.0  0.65497  0.12264  0.41036  1.0000
  H   H5        1.0  0.45526  0.84222  0.90183  1.0000
  H   H6        1.0  0.54475  0.15778  0.09817  1.0000
  H   H7        1.0  0.69265  0.85767  0.80844  1.0000
  H   H8        1.0  0.30735  0.14233  0.19156  1.0000
  H   H9        1.0  0.57449  0.87773  0.05914  1.0000
  H   H10       1.0  0.42551  0.12227  0.94086  1.0000
  H   H11       1.0  0.33900  0.91455  0.02816  1.0000
  H   H12       1.0  0.66100  0.08544  0.97184  1.0000
  H   H13       1.0  0.20021  0.86432  0.37917  1.0000
  H   H14       1.0  0.79979  0.13569  0.62083  1.0000
  H   H15       1.0  0.43434  0.83124  0.40740  1.0000
  H   H16       1.0  0.56566  0.16876  0.59260  1.0000
  H   H17       1.0  0.95017  0.59872  0.15996  1.0000
  H   H18       1.0  0.04984  0.40128  0.84004  1.0000
  H   H19       1.0  0.87242  0.74809  0.83646  1.0000
  H   H20       1.0  0.12758  0.25191  0.16354  1.0000
  H   H21       1.0  0.75876  0.53758  0.92604  1.0000
  H   H22       1.0  0.24124  0.46242  0.07396  1.0000
  H   H23       1.0  0.89422  0.38568  0.17933  1.0000
  H   H24       1.0  0.10578  0.61432  0.82067  1.0000
  H   H25       1.0  0.79695  0.37145  0.08939  1.0000
  H   H26       1.0  0.20306  0.62855  0.91061  1.0000
  H   H27       1.0  0.55920  0.48112  0.10445  1.0000
  H   H28       1.0  0.44080  0.51888  0.89555  1.0000
  H   H29       1.0  0.34751  0.47626  0.24032  1.0000
  H   H30       1.0  0.65249  0.52374  0.75969  1.0000
  H   H31       1.0  0.35065  0.41416  0.44285  1.0000
  H   H32       1.0  0.64935  0.58584  0.55715  1.0000
  H   H33       1.0  0.56566  0.36407  0.50703  1.0000
  H   H34       1.0  0.43434  0.63593  0.49297  1.0000
  H   H35       1.0  0.87850  0.29859  0.34578  1.0000
  H   H36       1.0  0.12150  0.70141  0.65422  1.0000
  H   H37       1.0  0.79037  0.31168  0.47574  1.0000
  H   H38       1.0  0.20963  0.68833  0.52426  1.0000
  H   H39       1.0  0.72661  0.58677  0.37075  1.0000
  H   H40       1.0  0.27339  0.41324  0.62924  1.0000
  H   H41       1.0  0.08752  0.38092  0.36872  1.0000
  H   H42       1.0  0.91248  0.61908  0.63128  1.0000
  H   H43       1.0  0.13756  0.60781  0.34109  1.0000
  H   H44       1.0  0.86244  0.39219  0.65891  1.0000
  C   C1        1.0  0.65340  0.87017  0.64707  1.0000
  C   C2        1.0  0.34660  0.12983  0.35293  1.0000
  C   C3        1.0  0.55480  0.87589  0.58569  1.0000
  C   C4        1.0  0.44520  0.12411  0.41431  1.0000
  C   C5        1.0  0.42187  0.87064  0.63760  1.0000
  C   C6        1.0  0.57813  0.12936  0.36240  1.0000
  C   C7        1.0  0.38562  0.85783  0.75190  1.0000
  C   C8        1.0  0.61438  0.14217  0.24810  1.0000
  C   C9        1.0  0.48417  0.85213  0.81321  1.0000
  C   C10       1.0  0.51582  0.14787  0.18679  1.0000
  C   C11       1.0  0.61699  0.85909  0.76105  1.0000
  C   C12       1.0  0.38301  0.14091  0.23895  1.0000
  C   C13       1.0  0.24397  0.84780  0.80842  1.0000
  C   C14       1.0  0.75603  0.15220  0.19158  1.0000
  C   C15       1.0  0.65989  0.83280  0.25033  1.0000
  C   C16       1.0  0.34011  0.16720  0.74967  1.0000
  C   C17       1.0  0.51793  0.85001  0.23529  1.0000
  C   C18       1.0  0.48207  0.14999  0.76471  1.0000
  C   C19       1.0  0.49089  0.87375  0.12822  1.0000
  C   C20       1.0  0.50911  0.12625  0.87178  1.0000
  C   C21       1.0  0.36052  0.89379  0.11145  1.0000
  C   C22       1.0  0.63948  0.10621  0.88855  1.0000
  C   C23       1.0  0.25456  0.88867  0.20208  1.0000
  C   C24       1.0  0.74544  0.11133  0.79793  1.0000
  C   C25       1.0  0.28136  0.86434  0.30904  1.0000
  C   C26       1.0  0.71864  0.13566  0.69096  1.0000
  C   C27       1.0  0.41249  0.84598  0.32518  1.0000
  C   C28       1.0  0.58751  0.15402  0.67482  1.0000
  C   C29       1.0  0.91331  0.61147  0.08435  1.0000
  C   C30       1.0  0.08670  0.38853  0.91565  1.0000
  C   C31       1.0  0.86966  0.68614  0.91752  1.0000
  C   C32       1.0  0.13034  0.31386  0.08248  1.0000
  C   C33       1.0  0.81361  0.58275  0.96055  1.0000
  C   C34       1.0  0.18640  0.41725  0.03945  1.0000
  C   C35       1.0  0.80796  0.42388  0.14165  1.0000
  C   C36       1.0  0.19204  0.57612  0.85835  1.0000
  C   C37       1.0  0.68282  0.42520  0.22805  1.0000
  C   C38       1.0  0.31718  0.57480  0.77195  1.0000
  C   C39       1.0  0.56074  0.45598  0.19312  1.0000
  C   C40       1.0  0.43926  0.54401  0.80688  1.0000
  C   C41       1.0  0.44163  0.45352  0.26928  1.0000
  C   C42       1.0  0.55837  0.54647  0.73073  1.0000
  C   C43       1.0  0.44337  0.42004  0.38252  1.0000
  C   C44       1.0  0.55663  0.57995  0.61748  1.0000
  C   C45       1.0  0.56444  0.39066  0.41833  1.0000
  C   C46       1.0  0.43556  0.60934  0.58167  1.0000
  C   C47       1.0  0.68481  0.39178  0.34255  1.0000
  C   C48       1.0  0.31519  0.60822  0.65745  1.0000
  C   C49       1.0  0.81261  0.35663  0.38660  1.0000
  C   C50       1.0  0.18739  0.64337  0.61340  1.0000
  C   C51       1.0  0.83150  0.56249  0.36804  1.0000
  C   C52       1.0  0.16850  0.43751  0.63196  1.0000
  C   C53       1.0  0.02306  0.45865  0.36135  1.0000
  C   C54       1.0  0.97694  0.54135  0.63865  1.0000
  C   C55       1.0  0.04500  0.56936  0.35194  1.0000
  C   C56       1.0  0.95500  0.43064  0.64806  1.0000
  N   N1        1.0  0.93162  0.70237  0.99594  1.0000
  N   N2        1.0  0.06839  0.29763  0.00405  1.0000
  N   N3        1.0  0.84229  0.53643  0.06599  1.0000
  N   N4        1.0  0.15771  0.46357  0.93401  1.0000
  N   N5        1.0  0.92478  0.63274  0.35644  1.0000
  N   N6        1.0  0.07522  0.36726  0.64356  1.0000
  N   N7        1.0  0.88721  0.45637  0.37115  1.0000
  N   N8        1.0  0.11279  0.54363  0.62885  1.0000
  O   O1        1.0  0.83642  0.99940  0.49300  1.0000
  O   O2        1.0  0.16358  0.00060  0.50700  1.0000
  O   O3        1.0  0.90733  0.86090  0.66808  1.0000
  O   O4        1.0  0.09267  0.13910  0.33193  1.0000
  O   O5        1.0  0.86164  0.78311  0.52017  1.0000
  O   O6        1.0  0.13836  0.21689  0.47983  1.0000
  O   O7        1.0  0.15651  0.84046  0.75435  1.0000
  O   O8        1.0  0.84349  0.15954  0.24565  1.0000
  O   O9        1.0  0.21510  0.84060  0.91158  1.0000
  O   O10       1.0  0.78490  0.15941  0.08842  1.0000
  O   O11       1.0  0.08415  0.03411  0.09090  1.0000
  O   O12       1.0  0.91584  0.96589  0.90910  1.0000
  O   O13       1.0  0.05839  0.81858  0.13484  1.0000
  O   O14       1.0  0.94161  0.18142  0.86516  1.0000
  O   O15       1.0  0.99153  0.91368  0.28797  1.0000
  O   O16       1.0  0.00847  0.08632  0.71203  1.0000
  O   O17       1.0  0.67638  0.81362  0.35265  1.0000
  O   O18       1.0  0.32362  0.18638  0.64735  1.0000
  O   O19       1.0  0.75295  0.83633  0.16987  1.0000
  O   O20       1.0  0.24705  0.16367  0.83013  1.0000
