data_image0
_chemical_formula_structural       Mn2H22C18N18O4
_chemical_formula_sum              "Mn2 H22 C18 N18 O4"
_cell_length_a       6.45624
_cell_length_b       10.4719
_cell_length_c       10.4718
_cell_angle_alpha    68.4295
_cell_angle_beta     76.8255
_cell_angle_gamma    76.8257

_space_group_name_H-M_alt    "P 1"
_space_group_IT_number       1

loop_
  _space_group_symop_operation_xyz
  'x, y, z'

loop_
  _atom_site_type_symbol
  _atom_site_label
  _atom_site_symmetry_multiplicity
  _atom_site_fract_x
  _atom_site_fract_y
  _atom_site_fract_z
  _atom_site_occupancy
  Mn  Mn1       1.0  0.75000  0.42958  0.57042  1.0000
  Mn  Mn2       1.0  0.25000  0.57042  0.42958  1.0000
  H   H1        1.0  0.66732  0.34807  0.35031  1.0000
  H   H2        1.0  0.83268  0.64969  0.65193  1.0000
  H   H3        1.0  0.33268  0.65193  0.64969  1.0000
  H   H4        1.0  0.16732  0.35031  0.34807  1.0000
  H   H5        1.0  0.76177  0.88878  0.86052  1.0000
  H   H6        1.0  0.73823  0.13948  0.11122  1.0000
  H   H7        1.0  0.23823  0.11122  0.13948  1.0000
  H   H8        1.0  0.26177  0.86052  0.88878  1.0000
  H   H9        1.0  0.75000  0.90777  0.09222  1.0000
  H   H10       1.0  0.25000  0.09222  0.90777  1.0000
  H   H11       1.0  0.74692  0.99694  0.48075  1.0000
  H   H12       1.0  0.75308  0.51924  0.00306  1.0000
  H   H13       1.0  0.25308  0.00306  0.51924  1.0000
  H   H14       1.0  0.24692  0.48075  0.99694  1.0000
  H   H15       1.0  0.60331  0.93258  0.65144  1.0000
  H   H16       1.0  0.89668  0.34855  0.06742  1.0000
  H   H17       1.0  0.39669  0.06742  0.34856  1.0000
  H   H18       1.0  0.10332  0.65144  0.93258  1.0000
  H   H19       1.0  0.88954  0.90327  0.62419  1.0000
  H   H20       1.0  0.61046  0.37581  0.09674  1.0000
  H   H21       1.0  0.11046  0.09673  0.37581  1.0000
  H   H22       1.0  0.38954  0.62419  0.90327  1.0000
  C   C1        1.0  0.75267  0.11082  0.75418  1.0000
  C   C2        1.0  0.74733  0.24582  0.88918  1.0000
  C   C3        1.0  0.24733  0.88919  0.24582  1.0000
  C   C4        1.0  0.25267  0.75418  0.11082  1.0000
  C   C5        1.0  0.75708  0.98938  0.87032  1.0000
  C   C6        1.0  0.74291  0.12968  0.01063  1.0000
  C   C7        1.0  0.24292  0.01063  0.12968  1.0000
  C   C8        1.0  0.25708  0.87032  0.98937  1.0000
  C   C9        1.0  0.75000  0.00018  0.99982  1.0000
  C   C10       1.0  0.25000  0.99982  0.00018  1.0000
  C   C11       1.0  0.74371  0.11064  0.61476  1.0000
  C   C12       1.0  0.75629  0.38524  0.88937  1.0000
  C   C13       1.0  0.25629  0.88937  0.38524  1.0000
  C   C14       1.0  0.24371  0.61476  0.11063  1.0000
  C   C15       1.0  0.74691  0.97876  0.59042  1.0000
  C   C16       1.0  0.75309  0.40958  0.02124  1.0000
  C   C17       1.0  0.25309  0.02124  0.40958  1.0000
  C   C18       1.0  0.24692  0.59042  0.97876  1.0000
  N   N1        1.0  0.38677  0.48360  0.63944  1.0000
  N   N2        1.0  0.11323  0.36056  0.51640  1.0000
  N   N3        1.0  0.61323  0.51640  0.36056  1.0000
  N   N4        1.0  0.88677  0.63944  0.48360  1.0000
  N   N5        1.0  0.31066  0.40747  0.75133  1.0000
  N   N6        1.0  0.18934  0.24865  0.59254  1.0000
  N   N7        1.0  0.68934  0.59254  0.24865  1.0000
  N   N8        1.0  0.81066  0.75134  0.40747  1.0000
  N   N9        1.0  0.24264  0.33455  0.85944  1.0000
  N   N10       1.0  0.25736  0.14056  0.66545  1.0000
  N   N11       1.0  0.75736  0.66545  0.14056  1.0000
  N   N12       1.0  0.74264  0.85944  0.33455  1.0000
  N   N13       1.0  0.75000  0.23549  0.76451  1.0000
  N   N14       1.0  0.25000  0.76451  0.23549  1.0000
  N   N15       1.0  0.72316  0.23399  0.52314  1.0000
  N   N16       1.0  0.77684  0.47686  0.76601  1.0000
  N   N17       1.0  0.27684  0.76601  0.47686  1.0000
  N   N18       1.0  0.22316  0.52314  0.23399  1.0000
  O   O1        1.0  0.70150  0.24347  0.39180  1.0000
  O   O2        1.0  0.79850  0.60819  0.75654  1.0000
  O   O3        1.0  0.29850  0.75654  0.60819  1.0000
  O   O4        1.0  0.20150  0.39180  0.24347  1.0000
