data_image0
_chemical_formula_structural       Cd2H20C24N8O18
_chemical_formula_sum              "Cd2 H20 C24 N8 O18"
_cell_length_a       7.94475
_cell_length_b       10.1466
_cell_length_c       10.281
_cell_angle_alpha    107.46
_cell_angle_beta     90.6548
_cell_angle_gamma    114.013

_space_group_name_H-M_alt    "P 1"
_space_group_IT_number       1

loop_
  _space_group_symop_operation_xyz
  'x, y, z'

loop_
  _atom_site_type_symbol
  _atom_site_label
  _atom_site_symmetry_multiplicity
  _atom_site_fract_x
  _atom_site_fract_y
  _atom_site_fract_z
  _atom_site_occupancy
  Cd  Cd1       1.0  0.32364  0.06161  0.43683  1.0000
  Cd  Cd2       1.0  0.67636  0.93839  0.56317  1.0000
  H   H1        1.0  0.52691  0.17983  0.14628  1.0000
  H   H2        1.0  0.47309  0.82017  0.85372  1.0000
  H   H3        1.0  0.35725  0.21054  0.73054  1.0000
  H   H4        1.0  0.64275  0.78946  0.26946  1.0000
  H   H5        1.0  0.17360  0.04579  0.69197  1.0000
  H   H6        1.0  0.82640  0.95421  0.30803  1.0000
  H   H7        1.0  0.52857  0.94352  0.25854  1.0000
  H   H8        1.0  0.47143  0.05648  0.74146  1.0000
  H   H9        1.0  0.33030  0.88520  0.16963  1.0000
  H   H10       1.0  0.66970  0.11481  0.83037  1.0000
  H   H11       1.0  0.99142  0.08146  0.91016  1.0000
  H   H12       1.0  0.00858  0.91854  0.08984  1.0000
  H   H13       1.0  0.14975  0.54568  0.05159  1.0000
  H   H14       1.0  0.85025  0.45432  0.94841  1.0000
  H   H15       1.0  0.30406  0.51337  0.43125  1.0000
  H   H16       1.0  0.69595  0.48663  0.56875  1.0000
  H   H17       1.0  0.84721  0.58979  0.29722  1.0000
  H   H18       1.0  0.15279  0.41021  0.70277  1.0000
  H   H19       1.0  0.78867  0.12844  0.21071  1.0000
  H   H20       1.0  0.21133  0.87156  0.78929  1.0000
  C   C1        1.0  0.20391  0.73884  0.41943  1.0000
  C   C2        1.0  0.79609  0.26117  0.58057  1.0000
  C   C3        1.0  0.08827  0.56868  0.36678  1.0000
  C   C4        1.0  0.91173  0.43131  0.63321  1.0000
  C   C5        1.0  0.13091  0.20471  0.34523  1.0000
  C   C6        1.0  0.86908  0.79529  0.65478  1.0000
  C   C7        1.0  0.05275  0.31021  0.32551  1.0000
  C   C8        1.0  0.94725  0.68979  0.67449  1.0000
  C   C9        1.0  0.16200  0.46869  0.37978  1.0000
  C   C10       1.0  0.83800  0.53131  0.62022  1.0000
  C   C11       1.0  0.90518  0.51128  0.30356  1.0000
  C   C12       1.0  0.09482  0.48872  0.69643  1.0000
  C   C13       1.0  0.79700  0.35304  0.24889  1.0000
  C   C14       1.0  0.20300  0.64696  0.75110  1.0000
  C   C15       1.0  0.38769  0.35742  0.10918  1.0000
  C   C16       1.0  0.61231  0.64258  0.89082  1.0000
  C   C17       1.0  0.25013  0.20231  0.03485  1.0000
  C   C18       1.0  0.74987  0.79769  0.96515  1.0000
  C   C19       1.0  0.04190  0.30827  0.97808  1.0000
  C   C20       1.0  0.95810  0.69173  0.02192  1.0000
  C   C21       1.0  0.35314  0.48819  0.10835  1.0000
  C   C22       1.0  0.64686  0.51182  0.89166  1.0000
  C   C23       1.0  0.87067  0.25146  0.25731  1.0000
  C   C24       1.0  0.12933  0.74854  0.74269  1.0000
  N   N1        1.0  0.61285  0.29627  0.18282  1.0000
  N   N2        1.0  0.38715  0.70373  0.81718  1.0000
  N   N3        1.0  0.55453  0.39465  0.17201  1.0000
  N   N4        1.0  0.44546  0.60535  0.82799  1.0000
  N   N5        1.0  0.08672  0.18918  0.96973  1.0000
  N   N6        1.0  0.91328  0.81082  0.03027  1.0000
  N   N7        1.0  0.17821  0.45243  0.04457  1.0000
  N   N8        1.0  0.82178  0.54756  0.95543  1.0000
  O   O1        1.0  0.12373  0.82087  0.40363  1.0000
  O   O2        1.0  0.87627  0.17913  0.59637  1.0000
  O   O3        1.0  0.37124  0.78880  0.47314  1.0000
  O   O4        1.0  0.62876  0.21120  0.52686  1.0000
  O   O5        1.0  0.03949  0.05966  0.28864  1.0000
  O   O6        1.0  0.96051  0.94035  0.71136  1.0000
  O   O7        1.0  0.88596  0.28763  0.92733  1.0000
  O   O8        1.0  0.11404  0.71237  0.07267  1.0000
  O   O9        1.0  0.46563  0.62458  0.15824  1.0000
  O   O10       1.0  0.53436  0.37542  0.84176  1.0000
  O   O11       1.0  0.30385  0.10074  0.67432  1.0000
  O   O12       1.0  0.69616  0.89926  0.32568  1.0000
  O   O13       1.0  0.43595  0.97740  0.23143  1.0000
  O   O14       1.0  0.56406  0.02260  0.76858  1.0000
  O   O15       1.0  0.29008  0.26543  0.41974  1.0000
  O   O16       1.0  0.70992  0.73457  0.58026  1.0000
  O   O17       1.0  0.27422  0.08650  0.02664  1.0000
  O   O18       1.0  0.72577  0.91349  0.97335  1.0000
