data_image0
_chemical_formula_structural       Zn2H20C24N8O18
_chemical_formula_sum              "Zn2 H20 C24 N8 O18"
_cell_length_a       7.68346
_cell_length_b       9.72705
_cell_length_c       10.9094
_cell_angle_alpha    67.8641
_cell_angle_beta     85.0319
_cell_angle_gamma    67.2139

_space_group_name_H-M_alt    "P 1"
_space_group_IT_number       1

loop_
  _space_group_symop_operation_xyz
  'x, y, z'

loop_
  _atom_site_type_symbol
  _atom_site_label
  _atom_site_symmetry_multiplicity
  _atom_site_fract_x
  _atom_site_fract_y
  _atom_site_fract_z
  _atom_site_occupancy
  Zn  Zn1       1.0  0.34221  0.42133  0.43849  1.0000
  Zn  Zn2       1.0  0.65779  0.57867  0.56151  1.0000
  H   H1        1.0  0.88344  0.86497  0.32341  1.0000
  H   H2        1.0  0.11656  0.13503  0.67659  1.0000
  H   H3        1.0  0.43369  0.63488  0.21748  1.0000
  H   H4        1.0  0.56631  0.36512  0.78252  1.0000
  H   H5        1.0  0.29256  0.57973  0.17732  1.0000
  H   H6        1.0  0.70744  0.42028  0.82268  1.0000
  H   H7        1.0  0.14891  0.93446  0.06475  1.0000
  H   H8        1.0  0.85109  0.06554  0.93525  1.0000
  H   H9        1.0  0.15013  0.40517  0.66189  1.0000
  H   H10       1.0  0.84988  0.59483  0.33811  1.0000
  H   H11       1.0  0.34882  0.25638  0.69985  1.0000
  H   H12       1.0  0.65118  0.74362  0.30015  1.0000
  H   H13       1.0  0.30095  0.00561  0.42503  1.0000
  H   H14       1.0  0.69905  0.99439  0.57498  1.0000
  H   H15       1.0  0.55533  0.29083  0.14401  1.0000
  H   H16       1.0  0.44467  0.70917  0.85599  1.0000
  H   H17       1.0  0.78115  0.36948  0.20373  1.0000
  H   H18       1.0  0.21885  0.63052  0.79627  1.0000
  H   H19       1.0  0.06636  0.41036  0.90293  1.0000
  H   H20       1.0  0.93364  0.58964  0.09707  1.0000
  C   C1        1.0  0.23758  0.74586  0.44012  1.0000
  C   C2        1.0  0.76241  0.25414  0.55988  1.0000
  C   C3        1.0  0.10582  0.91862  0.37898  1.0000
  C   C4        1.0  0.89418  0.08138  0.62102  1.0000
  C   C5        1.0  0.92990  0.95914  0.31949  1.0000
  C   C6        1.0  0.07010  0.04086  0.68051  1.0000
  C   C7        1.0  0.16442  0.03844  0.37735  1.0000
  C   C8        1.0  0.83558  0.96156  0.62265  1.0000
  C   C9        1.0  0.81526  0.12201  0.25621  1.0000
  C   C10       1.0  0.18474  0.87799  0.74379  1.0000
  C   C11       1.0  0.11105  0.32721  0.31833  1.0000
  C   C12       1.0  0.88896  0.67279  0.68167  1.0000
  C   C13       1.0  0.04809  0.20065  0.31487  1.0000
  C   C14       1.0  0.95191  0.79935  0.68513  1.0000
  C   C15       1.0  0.87280  0.24340  0.25314  1.0000
  C   C16       1.0  0.12720  0.75660  0.74686  1.0000
  C   C17       1.0  0.41766  0.10870  0.12142  1.0000
  C   C18       1.0  0.58234  0.89130  0.87858  1.0000
  C   C19       1.0  0.29862  0.27513  0.04362  1.0000
  C   C20       1.0  0.70138  0.72487  0.95638  1.0000
  C   C21       1.0  0.07744  0.18018  0.98689  1.0000
  C   C22       1.0  0.92257  0.81981  0.01311  1.0000
  C   C23       1.0  0.36514  0.97847  0.12512  1.0000
  C   C24       1.0  0.63487  0.02153  0.87488  1.0000
  N   N1        1.0  0.19442  0.02490  0.05958  1.0000
  N   N2        1.0  0.80558  0.97510  0.94042  1.0000
  N   N3        1.0  0.63959  0.16962  0.19118  1.0000
  N   N4        1.0  0.36041  0.83038  0.80882  1.0000
  N   N5        1.0  0.58121  0.06363  0.18662  1.0000
  N   N6        1.0  0.41879  0.93636  0.81338  1.0000
  N   N7        1.0  0.13679  0.29903  0.97800  1.0000
  N   N8        1.0  0.86321  0.70097  0.02200  1.0000
  O   O1        1.0  0.18487  0.64316  0.42664  1.0000
  O   O2        1.0  0.81512  0.35684  0.57336  1.0000
  O   O3        1.0  0.39046  0.71801  0.49818  1.0000
  O   O4        1.0  0.60954  0.28198  0.50182  1.0000
  O   O5        1.0  0.41076  0.53701  0.23187  1.0000
  O   O6        1.0  0.58924  0.46299  0.76813  1.0000
  O   O7        1.0  0.26949  0.27683  0.38166  1.0000
  O   O8        1.0  0.73051  0.72317  0.61834  1.0000
  O   O9        1.0  0.00547  0.47436  0.26084  1.0000
  O   O10       1.0  0.99452  0.52564  0.73916  1.0000
  O   O11       1.0  0.33747  0.39191  0.03333  1.0000
  O   O12       1.0  0.66253  0.60809  0.96667  1.0000
  O   O13       1.0  0.46191  0.83161  0.18239  1.0000
  O   O14       1.0  0.53809  0.16838  0.81762  1.0000
  O   O15       1.0  0.92423  0.21091  0.93154  1.0000
  O   O16       1.0  0.07577  0.78909  0.06846  1.0000
  O   O17       1.0  0.24653  0.32717  0.62836  1.0000
  O   O18       1.0  0.75347  0.67283  0.37164  1.0000
