data_image0
_chemical_formula_structural       Ba2P4H24C10Cl4O22
_chemical_formula_sum              "Ba2 P4 H24 C10 Cl4 O22"
_cell_length_a       7.56045
_cell_length_b       8.74612
_cell_length_c       13.3334
_cell_angle_alpha    79.1397
_cell_angle_beta     73.5505
_cell_angle_gamma    64.4028

_space_group_name_H-M_alt    "P 1"
_space_group_IT_number       1

loop_
  _space_group_symop_operation_xyz
  'x, y, z'

loop_
  _atom_site_type_symbol
  _atom_site_label
  _atom_site_symmetry_multiplicity
  _atom_site_fract_x
  _atom_site_fract_y
  _atom_site_fract_z
  _atom_site_occupancy
  Ba  Ba1       1.0  0.29144  0.47385  0.94328  1.0000
  Ba  Ba2       1.0  0.70856  0.52615  0.05672  1.0000
  P   P1        1.0  0.06627  0.08944  0.77780  1.0000
  P   P2        1.0  0.93372  0.91056  0.22220  1.0000
  P   P3        1.0  0.86821  0.47887  0.78464  1.0000
  P   P4        1.0  0.13178  0.52113  0.21536  1.0000
  H   H1        1.0  0.62318  0.15356  0.80882  1.0000
  H   H2        1.0  0.58553  0.84655  0.19117  1.0000
  H   H3        1.0  0.37683  0.84644  0.19118  1.0000
  H   H4        1.0  0.41447  0.15345  0.80883  1.0000
  H   H5        1.0  0.87846  0.85048  0.92260  1.0000
  H   H6        1.0  0.65151  0.14949  0.07738  1.0000
  H   H7        1.0  0.12154  0.14952  0.07740  1.0000
  H   H8        1.0  0.34849  0.85051  0.92262  1.0000
  H   H9        1.0  0.86546  0.82609  0.04387  1.0000
  H   H10       1.0  0.73538  0.17391  0.95612  1.0000
  H   H11       1.0  0.13454  0.17391  0.95613  1.0000
  H   H12       1.0  0.26462  0.82609  0.04388  1.0000
  H   H13       1.0  0.34133  0.79420  0.52292  1.0000
  H   H14       1.0  0.65867  0.20580  0.47708  1.0000
  H   H15       1.0  0.27508  0.62237  0.59352  1.0000
  H   H16       1.0  0.49123  0.37754  0.40640  1.0000
  H   H17       1.0  0.72492  0.37763  0.40648  1.0000
  H   H18       1.0  0.50877  0.62246  0.59360  1.0000
  H   H19       1.0  0.79825  0.85845  0.54502  1.0000
  H   H20       1.0  0.20175  0.14155  0.45497  1.0000
  H   H21       1.0  0.80332  0.00520  0.62135  1.0000
  H   H22       1.0  0.42990  0.99460  0.37881  1.0000
  H   H23       1.0  0.19668  0.99480  0.37865  1.0000
  H   H24       1.0  0.57010  0.00539  0.62119  1.0000
  C   C1        1.0  0.00207  0.29847  0.69721  1.0000
  C   C2        1.0  0.99793  0.70153  0.30279  1.0000
  C   C3        1.0  0.25663  0.79458  0.69182  1.0000
  C   C4        1.0  0.74337  0.20542  0.30818  1.0000
  C   C5        1.0  0.35078  0.70542  0.59280  1.0000
  C   C6        1.0  0.64922  0.29458  0.40721  1.0000
  C   C7        1.0  0.74285  0.80047  0.71332  1.0000
  C   C8        1.0  0.25715  0.19953  0.28668  1.0000
  C   C9        1.0  0.72967  0.92273  0.61776  1.0000
  C   C10       1.0  0.27033  0.07727  0.38224  1.0000
  Cl  Cl1       1.0  0.84174  0.31203  0.61692  1.0000
  Cl  Cl2       1.0  0.77098  0.68793  0.38304  1.0000
  Cl  Cl3       1.0  0.15826  0.68797  0.38308  1.0000
  Cl  Cl4       1.0  0.22902  0.31206  0.61696  1.0000
  O   O1        1.0  0.48307  0.22804  0.80574  1.0000
  O   O2        1.0  0.51693  0.77196  0.19426  1.0000
  O   O3        1.0  0.89698  0.76412  0.98201  1.0000
  O   O4        1.0  0.64319  0.23586  0.01798  1.0000
  O   O5        1.0  0.10302  0.23588  0.01799  1.0000
  O   O6        1.0  0.35681  0.76414  0.98202  1.0000
  O   O7        1.0  0.87625  0.06754  0.83608  1.0000
  O   O8        1.0  0.77992  0.93260  0.16395  1.0000
  O   O9        1.0  0.12375  0.93246  0.16392  1.0000
  O   O10       1.0  0.22008  0.06740  0.83605  1.0000
  O   O11       1.0  0.17805  0.96772  0.67549  1.0000
  O   O12       1.0  0.82195  0.03228  0.32451  1.0000
  O   O13       1.0  0.24836  0.72337  0.77987  1.0000
  O   O14       1.0  0.75164  0.27663  0.22013  1.0000
  O   O15       1.0  0.00963  0.47773  0.84403  1.0000
  O   O16       1.0  0.33128  0.52237  0.15587  1.0000
  O   O17       1.0  0.99037  0.52228  0.15597  1.0000
  O   O18       1.0  0.66872  0.47763  0.84413  1.0000
  O   O19       1.0  0.83878  0.63385  0.68830  1.0000
  O   O20       1.0  0.16121  0.36615  0.31170  1.0000
  O   O21       1.0  0.67810  0.83926  0.80364  1.0000
  O   O22       1.0  0.32190  0.16074  0.19636  1.0000
