data_image0
_chemical_formula_structural       K4P4H20C30Cl4O18
_chemical_formula_sum              "K4 P4 H20 C30 Cl4 O18"
_cell_length_a       6.88285
_cell_length_b       10.433
_cell_length_c       15.5706
_cell_angle_alpha    73.1649
_cell_angle_beta     83.2193
_cell_angle_gamma    70.112

_space_group_name_H-M_alt    "P 1"
_space_group_IT_number       1

loop_
  _space_group_symop_operation_xyz
  'x, y, z'

loop_
  _atom_site_type_symbol
  _atom_site_label
  _atom_site_symmetry_multiplicity
  _atom_site_fract_x
  _atom_site_fract_y
  _atom_site_fract_z
  _atom_site_occupancy
  K   K1        1.0  0.67973  0.63491  0.48903  1.0000
  K   K2        1.0  0.32022  0.36507  0.51097  1.0000
  K   K3        1.0  0.26456  0.96040  0.55801  1.0000
  K   K4        1.0  0.73543  0.03958  0.44199  1.0000
  P   P1        1.0  0.92637  0.73559  0.65161  1.0000
  P   P2        1.0  0.07359  0.26441  0.34840  1.0000
  P   P3        1.0  0.68564  0.03851  0.65881  1.0000
  P   P4        1.0  0.31432  0.96150  0.34119  1.0000
  H   H1        1.0  0.94434  0.44053  0.87324  1.0000
  H   H2        1.0  0.05571  0.55949  0.12675  1.0000
  H   H3        1.0  0.03299  0.21649  0.99603  1.0000
  H   H4        1.0  0.96709  0.78351  0.00396  1.0000
  H   H5        1.0  0.14675  0.98536  0.95873  1.0000
  H   H6        1.0  0.85330  0.01464  0.04126  1.0000
  H   H7        1.0  0.15365  0.97716  0.80053  1.0000
  H   H8        1.0  0.84634  0.02285  0.19946  1.0000
  H   H9        1.0  0.05857  0.20052  0.67844  1.0000
  H   H10       1.0  0.94138  0.79949  0.32155  1.0000
  H   H11       1.0  0.39361  0.51855  0.74805  1.0000
  H   H12       1.0  0.60642  0.48144  0.25197  1.0000
  H   H13       1.0  0.29578  0.59419  0.88911  1.0000
  H   H14       1.0  0.70430  0.40583  0.11091  1.0000
  H   H15       1.0  0.35549  0.41257  0.03732  1.0000
  H   H16       1.0  0.64456  0.58742  0.96268  1.0000
  H   H17       1.0  0.51263  0.15870  0.04380  1.0000
  H   H18       1.0  0.48739  0.84129  0.95620  1.0000
  H   H19       1.0  0.61277  0.08334  0.90183  1.0000
  H   H20       1.0  0.38721  0.91667  0.09817  1.0000
  C   C1        1.0  0.74563  0.84711  0.72564  1.0000
  C   C2        1.0  0.25433  0.15291  0.27436  1.0000
  C   C3        1.0  0.96417  0.46216  0.69347  1.0000
  C   C4        1.0  0.03581  0.53785  0.30652  1.0000
  C   C5        1.0  0.00096  0.33342  0.76857  1.0000
  C   C6        1.0  0.99904  0.66659  0.23142  1.0000
  C   C7        1.0  0.98914  0.33865  0.85823  1.0000
  C   C8        1.0  0.01091  0.66136  0.14176  1.0000
  C   C9        1.0  0.03949  0.21328  0.92639  1.0000
  C   C10       1.0  0.96058  0.78673  0.07361  1.0000
  C   C11       1.0  0.10253  0.08338  0.90536  1.0000
  C   C12       1.0  0.89749  0.91663  0.09463  1.0000
  C   C13       1.0  0.10859  0.07826  0.81648  1.0000
  C   C14       1.0  0.89142  0.92175  0.18351  1.0000
  C   C15       1.0  0.05711  0.20308  0.74792  1.0000
  C   C16       1.0  0.94287  0.79693  0.25207  1.0000
  C   C17       1.0  0.55808  0.25636  0.73104  1.0000
  C   C18       1.0  0.44189  0.74364  0.26896  1.0000
  C   C19       1.0  0.50969  0.29669  0.81666  1.0000
  C   C20       1.0  0.49031  0.70331  0.18335  1.0000
  C   C21       1.0  0.42180  0.44081  0.81315  1.0000
  C   C22       1.0  0.57822  0.55918  0.18686  1.0000
  C   C23       1.0  0.36664  0.48230  0.89231  1.0000
  C   C24       1.0  0.63340  0.51770  0.10769  1.0000
  C   C25       1.0  0.39963  0.38057  0.97519  1.0000
  C   C26       1.0  0.60043  0.61941  0.02482  1.0000
  C   C27       1.0  0.48923  0.23719  0.97889  1.0000
  C   C28       1.0  0.51080  0.76280  0.02112  1.0000
  C   C29       1.0  0.54423  0.19481  0.89995  1.0000
  C   C30       1.0  0.45577  0.80519  0.10005  1.0000
  Cl  Cl1       1.0  0.51480  0.79964  0.75182  1.0000
  Cl  Cl2       1.0  0.48519  0.20035  0.24819  1.0000
  Cl  Cl3       1.0  0.86831  0.81588  0.82885  1.0000
  Cl  Cl4       1.0  0.13167  0.18412  0.17114  1.0000
  O   O1        1.0  0.79284  0.79320  0.57026  1.0000
  O   O2        1.0  0.20713  0.20679  0.42975  1.0000
  O   O3        1.0  0.13420  0.75626  0.67946  1.0000
  O   O4        1.0  0.86577  0.24372  0.32053  1.0000
  O   O5        1.0  0.91416  0.58216  0.72058  1.0000
  O   O6        1.0  0.08581  0.41784  0.27942  1.0000
  O   O7        1.0  0.97850  0.46293  0.61364  1.0000
  O   O8        1.0  0.02147  0.53706  0.38636  1.0000
  O   O9        1.0  0.49853  0.08553  0.60242  1.0000
  O   O10       1.0  0.50141  0.91447  0.39759  1.0000
  O   O11       1.0  0.88364  0.05667  0.61531  1.0000
  O   O12       1.0  0.11633  0.94331  0.38468  1.0000
  O   O13       1.0  0.62054  0.11354  0.74384  1.0000
  O   O14       1.0  0.37945  0.88645  0.25616  1.0000
  O   O15       1.0  0.54139  0.34075  0.65623  1.0000
  O   O16       1.0  0.45858  0.65926  0.34377  1.0000
  O   O17       1.0  0.82963  0.33047  0.39089  1.0000
  O   O18       1.0  0.17034  0.66953  0.60910  1.0000
