data_image0
_chemical_formula_structural       Cu4H44C44N4O20
_chemical_formula_sum              "Cu4 H44 C44 N4 O20"
_cell_length_a       7.70518
_cell_length_b       11.449
_cell_length_c       14.5479
_cell_angle_alpha    89.9994
_cell_angle_beta     90.0006
_cell_angle_gamma    107.867

_space_group_name_H-M_alt    "P 1"
_space_group_IT_number       1

loop_
  _space_group_symop_operation_xyz
  'x, y, z'

loop_
  _atom_site_type_symbol
  _atom_site_label
  _atom_site_symmetry_multiplicity
  _atom_site_fract_x
  _atom_site_fract_y
  _atom_site_fract_z
  _atom_site_occupancy
  Cu  Cu1       1.0  0.42481  0.08617  0.99745  1.0000
  Cu  Cu2       1.0  0.57519  0.41384  0.49745  1.0000
  Cu  Cu3       1.0  0.57520  0.91384  0.00254  1.0000
  Cu  Cu4       1.0  0.42481  0.58617  0.50254  1.0000
  H   H1        1.0  0.05807  0.08553  0.84659  1.0000
  H   H2        1.0  0.94195  0.41448  0.34659  1.0000
  H   H3        1.0  0.94195  0.91447  0.15340  1.0000
  H   H4        1.0  0.05806  0.58553  0.65341  1.0000
  H   H5        1.0  0.29272  0.20310  0.73544  1.0000
  H   H6        1.0  0.70729  0.29691  0.23544  1.0000
  H   H7        1.0  0.70730  0.79691  0.26455  1.0000
  H   H8        1.0  0.29272  0.70310  0.76456  1.0000
  H   H9        1.0  0.91616  0.38243  0.63161  1.0000
  H   H10       1.0  0.08384  0.11756  0.13161  1.0000
  H   H11       1.0  0.08385  0.61758  0.36840  1.0000
  H   H12       1.0  0.91615  0.88243  0.86838  1.0000
  H   H13       1.0  0.68279  0.26705  0.74303  1.0000
  H   H14       1.0  0.31721  0.23294  0.24304  1.0000
  H   H15       1.0  0.31722  0.73295  0.25697  1.0000
  H   H16       1.0  0.68278  0.76705  0.75696  1.0000
  H   H17       1.0  0.51685  0.33056  0.89686  1.0000
  H   H18       1.0  0.48312  0.16943  0.39686  1.0000
  H   H19       1.0  0.48313  0.66942  0.10314  1.0000
  H   H20       1.0  0.51687  0.83057  0.60314  1.0000
  H   H21       1.0  0.55356  0.49850  0.82583  1.0000
  H   H22       1.0  0.44643  0.00150  0.32583  1.0000
  H   H23       1.0  0.44644  0.50148  0.17417  1.0000
  H   H24       1.0  0.55356  0.99849  0.67417  1.0000
  H   H25       1.0  0.46474  0.61001  0.87720  1.0000
  H   H26       1.0  0.53525  0.88999  0.37721  1.0000
  H   H27       1.0  0.53527  0.38998  0.12280  1.0000
  H   H28       1.0  0.46475  0.11000  0.62280  1.0000
  H   H29       1.0  0.34231  0.51405  0.78635  1.0000
  H   H30       1.0  0.65769  0.98596  0.28635  1.0000
  H   H31       1.0  0.65770  0.48595  0.21365  1.0000
  H   H32       1.0  0.34231  0.01404  0.71365  1.0000
  H   H33       1.0  0.11551  0.36434  0.00524  1.0000
  H   H34       1.0  0.88447  0.13567  0.50525  1.0000
  H   H35       1.0  0.88449  0.63565  0.99476  1.0000
  H   H36       1.0  0.11551  0.86433  0.49476  1.0000
  H   H37       1.0  0.06189  0.42756  0.90008  1.0000
  H   H38       1.0  0.93810  0.07245  0.40009  1.0000
  H   H39       1.0  0.93810  0.57243  0.09993  1.0000
  H   H40       1.0  0.06189  0.92755  0.59993  1.0000
  H   H41       1.0  0.19212  0.52767  0.98652  1.0000
  H   H42       1.0  0.80787  0.97234  0.48653  1.0000
  H   H43       1.0  0.80787  0.47232  0.01349  1.0000
  H   H44       1.0  0.19212  0.02766  0.51348  1.0000
  C   C1        1.0  0.85543  0.16851  0.80119  1.0000
  C   C2        1.0  0.14457  0.33149  0.30119  1.0000
  C   C3        1.0  0.14459  0.83150  0.19881  1.0000
  C   C4        1.0  0.85543  0.66850  0.69881  1.0000
  C   C5        1.0  0.02662  0.14925  0.79871  1.0000
  C   C6        1.0  0.97339  0.35075  0.29870  1.0000
  C   C7        1.0  0.97341  0.85076  0.20129  1.0000
  C   C8        1.0  0.02662  0.64925  0.70130  1.0000
  C   C9        1.0  0.15791  0.21514  0.73689  1.0000
  C   C10       1.0  0.84209  0.28487  0.23688  1.0000
  C   C11       1.0  0.84210  0.78487  0.26312  1.0000
  C   C12       1.0  0.15791  0.71515  0.76312  1.0000
  C   C13       1.0  0.11921  0.29998  0.67721  1.0000
  C   C14       1.0  0.88079  0.20002  0.17721  1.0000
  C   C15       1.0  0.88081  0.70003  0.32279  1.0000
  C   C16       1.0  0.11920  0.79998  0.82279  1.0000
  C   C17       1.0  0.94731  0.31807  0.67890  1.0000
  C   C18       1.0  0.05268  0.18192  0.17890  1.0000
  C   C19       1.0  0.05271  0.68194  0.32111  1.0000
  C   C20       1.0  0.94730  0.81807  0.82110  1.0000
  C   C21       1.0  0.81627  0.25280  0.74103  1.0000
  C   C22       1.0  0.18372  0.24719  0.24103  1.0000
  C   C23       1.0  0.18375  0.74721  0.25897  1.0000
  C   C24       1.0  0.81627  0.75280  0.75896  1.0000
  C   C25       1.0  0.71773  0.10193  0.87050  1.0000
  C   C26       1.0  0.28228  0.39807  0.37051  1.0000
  C   C27       1.0  0.28228  0.89807  0.12950  1.0000
  C   C28       1.0  0.71773  0.60192  0.62949  1.0000
  C   C29       1.0  0.26213  0.37317  0.61266  1.0000
  C   C30       1.0  0.73787  0.12684  0.11266  1.0000
  C   C31       1.0  0.73788  0.62684  0.38734  1.0000
  C   C32       1.0  0.26211  0.87317  0.88734  1.0000
  C   C33       1.0  0.39081  0.32951  0.93358  1.0000
  C   C34       1.0  0.60916  0.17049  0.43359  1.0000
  C   C35       1.0  0.60916  0.67048  0.06642  1.0000
  C   C36       1.0  0.39084  0.82951  0.56641  1.0000
  C   C37       1.0  0.42839  0.51749  0.84728  1.0000
  C   C38       1.0  0.57160  0.98252  0.34728  1.0000
  C   C39       1.0  0.57161  0.48250  0.15272  1.0000
  C   C40       1.0  0.42839  0.01748  0.65272  1.0000
  C   C41       1.0  0.16555  0.43713  0.95404  1.0000
  C   C42       1.0  0.83443  0.06288  0.45404  1.0000
  C   C43       1.0  0.83444  0.56287  0.04597  1.0000
  C   C44       1.0  0.16555  0.93712  0.54596  1.0000
  N   N1        1.0  0.33295  0.42606  0.91431  1.0000
  N   N2        1.0  0.66703  0.07394  0.41431  1.0000
  N   N3        1.0  0.66704  0.57393  0.08569  1.0000
  N   N4        1.0  0.33296  0.92606  0.58569  1.0000
  O   O1        1.0  0.59867  0.15275  0.89451  1.0000
  O   O2        1.0  0.40134  0.34725  0.39451  1.0000
  O   O3        1.0  0.40134  0.84725  0.10548  1.0000
  O   O4        1.0  0.59867  0.65275  0.60548  1.0000
  O   O5        1.0  0.73184  0.00074  0.90079  1.0000
  O   O6        1.0  0.26816  0.49926  0.40079  1.0000
  O   O7        1.0  0.26818  0.99926  0.09921  1.0000
  O   O8        1.0  0.73185  0.50073  0.59921  1.0000
  O   O9        1.0  0.25078  0.47826  0.58987  1.0000
  O   O10       1.0  0.74921  0.02175  0.08987  1.0000
  O   O11       1.0  0.74922  0.52175  0.41013  1.0000
  O   O12       1.0  0.25076  0.97825  0.91014  1.0000
  O   O13       1.0  0.38299  0.32511  0.58658  1.0000
  O   O14       1.0  0.61701  0.17490  0.08658  1.0000
  O   O15       1.0  0.61700  0.67490  0.41341  1.0000
  O   O16       1.0  0.38299  0.82513  0.91341  1.0000
  O   O17       1.0  0.31313  0.24451  0.98744  1.0000
  O   O18       1.0  0.68682  0.25548  0.48744  1.0000
  O   O19       1.0  0.68684  0.75548  0.01256  1.0000
  O   O20       1.0  0.31318  0.74452  0.51255  1.0000
