data_image0
_chemical_formula_structural       Mg6H28C24S4O28
_chemical_formula_sum              "Mg6 H28 C24 S4 O28"
_cell_length_a       6.42558
_cell_length_b       7.93184
_cell_length_c       19.311
_cell_angle_alpha    89.9992
_cell_angle_beta     90
_cell_angle_gamma    96.9566

_space_group_name_H-M_alt    "P 1"
_space_group_IT_number       1

loop_
  _space_group_symop_operation_xyz
  'x, y, z'

loop_
  _atom_site_type_symbol
  _atom_site_label
  _atom_site_symmetry_multiplicity
  _atom_site_fract_x
  _atom_site_fract_y
  _atom_site_fract_z
  _atom_site_occupancy
  Mg  Mg1       1.0  0.99999  1.00000  0.50000  1.0000
  Mg  Mg2       1.0  0.00000  0.50000  0.00000  1.0000
  Mg  Mg3       1.0  0.47291  0.81020  0.48279  1.0000
  Mg  Mg4       1.0  0.52709  0.68980  0.98279  1.0000
  Mg  Mg5       1.0  0.52708  0.18979  0.51721  1.0000
  Mg  Mg6       1.0  0.47292  0.31021  0.01721  1.0000
  H   H1        1.0  0.70691  0.04605  0.42204  1.0000
  H   H2        1.0  0.29310  0.45395  0.92204  1.0000
  H   H3        1.0  0.29308  0.95393  0.57796  1.0000
  H   H4        1.0  0.70691  0.54606  0.07796  1.0000
  H   H5        1.0  0.80342  0.73376  0.40994  1.0000
  H   H6        1.0  0.19657  0.76625  0.90995  1.0000
  H   H7        1.0  0.19656  0.26623  0.59005  1.0000
  H   H8        1.0  0.80343  0.23375  0.09005  1.0000
  H   H9        1.0  0.59399  0.63400  0.37903  1.0000
  H   H10       1.0  0.40600  0.86602  0.87903  1.0000
  H   H11       1.0  0.40599  0.36599  0.62098  1.0000
  H   H12       1.0  0.59400  0.13397  0.12097  1.0000
  H   H13       1.0  0.27277  0.51420  0.52596  1.0000
  H   H14       1.0  0.72723  0.98579  0.02596  1.0000
  H   H15       1.0  0.72721  0.48578  0.47404  1.0000
  H   H16       1.0  0.27278  0.01422  0.97405  1.0000
  H   H17       1.0  0.11440  0.64993  0.51542  1.0000
  H   H18       1.0  0.88560  0.85007  0.01542  1.0000
  H   H19       1.0  0.88559  0.35007  0.48458  1.0000
  H   H20       1.0  0.11441  0.14994  0.98458  1.0000
  H   H21       1.0  0.17219  0.64171  0.64630  1.0000
  H   H22       1.0  0.82784  0.85832  0.14630  1.0000
  H   H23       1.0  0.82781  0.35828  0.35370  1.0000
  H   H24       1.0  0.17219  0.14172  0.85370  1.0000
  H   H25       1.0  0.19387  0.59766  0.78233  1.0000
  H   H26       1.0  0.80615  0.90237  0.28233  1.0000
  H   H27       1.0  0.80613  0.40233  0.21767  1.0000
  H   H28       1.0  0.19386  0.09765  0.71766  1.0000
  C   C1        1.0  0.82334  0.64072  0.86278  1.0000
  C   C2        1.0  0.17664  0.85928  0.36278  1.0000
  C   C3        1.0  0.17666  0.35926  0.13722  1.0000
  C   C4        1.0  0.82335  0.14072  0.63722  1.0000
  C   C5        1.0  0.86801  0.64592  0.78777  1.0000
  C   C6        1.0  0.13201  0.85409  0.28777  1.0000
  C   C7        1.0  0.13197  0.35407  0.21223  1.0000
  C   C8        1.0  0.86802  0.14592  0.71223  1.0000
  C   C9        1.0  0.84492  0.68049  0.66100  1.0000
  C   C10       1.0  0.15509  0.81951  0.16100  1.0000
  C   C11       1.0  0.15507  0.31951  0.33901  1.0000
  C   C12       1.0  0.84492  0.18051  0.83900  1.0000
  C   C13       1.0  0.77886  0.72609  0.59082  1.0000
  C   C14       1.0  0.22116  0.77390  0.09082  1.0000
  C   C15       1.0  0.22113  0.27390  0.40918  1.0000
  C   C16       1.0  0.77886  0.22610  0.90918  1.0000
  C   C17       1.0  0.04257  0.64752  0.68221  1.0000
  C   C18       1.0  0.95743  0.85248  0.18221  1.0000
  C   C19       1.0  0.95742  0.35243  0.31779  1.0000
  C   C20       1.0  0.04259  0.14756  0.81779  1.0000
  C   C21       1.0  0.05497  0.62608  0.75449  1.0000
  C   C22       1.0  0.94504  0.87395  0.25449  1.0000
  C   C23       1.0  0.94504  0.37394  0.24551  1.0000
  C   C24       1.0  0.05497  0.12604  0.74551  1.0000
  S   S1        1.0  0.67602  0.68507  0.72992  1.0000
  S   S2        1.0  0.32398  0.81492  0.22992  1.0000
  S   S3        1.0  0.32397  0.31492  0.27008  1.0000
  S   S4        1.0  0.67603  0.18508  0.77008  1.0000
  O   O1        1.0  0.92445  0.76304  0.54608  1.0000
  O   O2        1.0  0.07556  0.73696  0.04609  1.0000
  O   O3        1.0  0.07554  0.23696  0.45392  1.0000
  O   O4        1.0  0.92447  0.26306  0.95391  1.0000
  O   O5        1.0  0.69705  0.01723  0.47098  1.0000
  O   O6        1.0  0.30295  0.48278  0.97098  1.0000
  O   O7        1.0  0.30294  0.98276  0.52902  1.0000
  O   O8        1.0  0.69706  0.51724  0.02902  1.0000
  O   O9        1.0  0.58610  0.73417  0.57922  1.0000
  O   O10       1.0  0.41392  0.76584  0.07922  1.0000
  O   O11       1.0  0.41389  0.26583  0.42078  1.0000
  O   O12       1.0  0.58611  0.23418  0.92078  1.0000
  O   O13       1.0  0.67170  0.65777  0.42200  1.0000
  O   O14       1.0  0.32830  0.84224  0.92200  1.0000
  O   O15       1.0  0.32829  0.34222  0.57801  1.0000
  O   O16       1.0  0.67170  0.15776  0.07800  1.0000
  O   O17       1.0  0.24042  0.60731  0.49514  1.0000
  O   O18       1.0  0.75959  0.89269  0.99514  1.0000
  O   O19       1.0  0.75957  0.39269  0.50486  1.0000
  O   O20       1.0  0.24042  0.10732  0.00486  1.0000
  O   O21       1.0  0.63706  0.65216  0.88207  1.0000
  O   O22       1.0  0.36291  0.84784  0.38207  1.0000
  O   O23       1.0  0.36294  0.34784  0.11794  1.0000
  O   O24       1.0  0.63707  0.15216  0.61793  1.0000
  O   O25       1.0  0.97751  0.62464  0.90364  1.0000
  O   O26       1.0  0.02250  0.87540  0.40364  1.0000
  O   O27       1.0  0.02249  0.37537  0.09636  1.0000
  O   O28       1.0  0.97750  0.12460  0.59636  1.0000
