data_image0
_chemical_formula_structural       Cd4H52C60N12O16
_chemical_formula_sum              "Cd4 H52 C60 N12 O16"
_cell_length_a       9.59965
_cell_length_b       9.59972
_cell_length_c       17.6237
_cell_angle_alpha    94.5982
_cell_angle_beta     94.5985
_cell_angle_gamma    102.928

_space_group_name_H-M_alt    "P 1"
_space_group_IT_number       1

loop_
  _space_group_symop_operation_xyz
  'x, y, z'

loop_
  _atom_site_type_symbol
  _atom_site_label
  _atom_site_symmetry_multiplicity
  _atom_site_fract_x
  _atom_site_fract_y
  _atom_site_fract_z
  _atom_site_occupancy
  Cd  Cd1       1.0  0.84636  0.15364  0.25000  1.0000
  Cd  Cd2       1.0  0.15365  0.84636  0.75000  1.0000
  Cd  Cd3       1.0  0.52141  0.47859  0.75000  1.0000
  Cd  Cd4       1.0  0.47859  0.52141  0.25000  1.0000
  H   H1        1.0  0.63441  0.38871  0.44854  1.0000
  H   H2        1.0  0.61130  0.36561  0.05146  1.0000
  H   H3        1.0  0.36560  0.61129  0.55146  1.0000
  H   H4        1.0  0.38870  0.63440  0.94854  1.0000
  H   H5        1.0  0.74861  0.00614  0.51801  1.0000
  H   H6        1.0  0.99386  0.25137  0.98199  1.0000
  H   H7        1.0  0.25139  0.99386  0.48199  1.0000
  H   H8        1.0  0.00613  0.74862  0.01801  1.0000
  H   H9        1.0  0.26883  0.37633  0.90548  1.0000
  H   H10       1.0  0.62367  0.73117  0.59451  1.0000
  H   H11       1.0  0.73117  0.62367  0.09451  1.0000
  H   H12       1.0  0.37634  0.26884  0.40549  1.0000
  H   H13       1.0  0.12109  0.08800  0.89215  1.0000
  H   H14       1.0  0.91200  0.87890  0.60785  1.0000
  H   H15       1.0  0.87890  0.91200  0.10785  1.0000
  H   H16       1.0  0.08801  0.12110  0.39215  1.0000
  H   H17       1.0  0.40987  0.03469  0.68197  1.0000
  H   H18       1.0  0.96532  0.59012  0.81803  1.0000
  H   H19       1.0  0.59013  0.96531  0.31803  1.0000
  H   H20       1.0  0.03468  0.40988  0.18197  1.0000
  H   H21       1.0  0.52903  0.42116  0.57115  1.0000
  H   H22       1.0  0.57885  0.47099  0.92885  1.0000
  H   H23       1.0  0.47098  0.57884  0.42885  1.0000
  H   H24       1.0  0.42115  0.52901  0.07115  1.0000
  H   H25       1.0  0.64128  0.03724  0.64099  1.0000
  H   H26       1.0  0.96275  0.35870  0.85901  1.0000
  H   H27       1.0  0.35872  0.96276  0.35901  1.0000
  H   H28       1.0  0.03723  0.64129  0.14099  1.0000
  H   H29       1.0  0.25946  0.43215  0.64634  1.0000
  H   H30       1.0  0.56786  0.74054  0.85366  1.0000
  H   H31       1.0  0.74054  0.56785  0.35366  1.0000
  H   H32       1.0  0.43215  0.25947  0.14634  1.0000
  H   H33       1.0  0.31206  0.60404  0.65894  1.0000
  H   H34       1.0  0.39596  0.68794  0.84106  1.0000
  H   H35       1.0  0.68794  0.39596  0.34106  1.0000
  H   H36       1.0  0.60404  0.31207  0.15894  1.0000
  H   H37       1.0  0.92931  0.61835  0.49584  1.0000
  H   H38       1.0  0.38165  0.07071  0.00417  1.0000
  H   H39       1.0  0.07069  0.38164  0.50416  1.0000
  H   H40       1.0  0.61836  0.92930  0.99583  1.0000
  H   H41       1.0  0.06838  0.49366  0.38641  1.0000
  H   H42       1.0  0.50634  0.93164  0.11359  1.0000
  H   H43       1.0  0.93164  0.50634  0.61359  1.0000
  H   H44       1.0  0.49367  0.06837  0.88641  1.0000
  H   H45       1.0  0.85709  0.84683  0.42870  1.0000
  H   H46       1.0  0.15316  0.14291  0.07132  1.0000
  H   H47       1.0  0.14290  0.15316  0.57130  1.0000
  H   H48       1.0  0.84685  0.85710  0.92869  1.0000
  H   H49       1.0  0.95538  0.83224  0.28699  1.0000
  H   H50       1.0  0.16776  0.04459  0.21302  1.0000
  H   H51       1.0  0.04461  0.16777  0.71301  1.0000
  H   H52       1.0  0.83225  0.95541  0.78698  1.0000
  C   C1        1.0  0.75542  0.16755  0.40042  1.0000
  C   C2        1.0  0.83244  0.24458  0.09958  1.0000
  C   C3        1.0  0.24458  0.83244  0.59958  1.0000
  C   C4        1.0  0.16756  0.75542  0.90042  1.0000
  C   C5        1.0  0.69571  0.19275  0.47456  1.0000
  C   C6        1.0  0.80725  0.30428  0.02544  1.0000
  C   C7        1.0  0.30429  0.80724  0.52544  1.0000
  C   C8        1.0  0.19275  0.69571  0.97456  1.0000
  C   C9        1.0  0.63505  0.31081  0.49009  1.0000
  C   C10       1.0  0.68920  0.36495  0.00991  1.0000
  C   C11       1.0  0.36495  0.68919  0.50991  1.0000
  C   C12       1.0  0.31080  0.63504  0.99009  1.0000
  C   C13       1.0  0.69840  0.09563  0.52986  1.0000
  C   C14       1.0  0.90436  0.30159  0.97014  1.0000
  C   C15       1.0  0.30160  0.90436  0.47014  1.0000
  C   C16       1.0  0.09563  0.69840  0.02986  1.0000
  C   C17       1.0  0.35048  0.17293  0.77143  1.0000
  C   C18       1.0  0.82707  0.64951  0.72857  1.0000
  C   C19       1.0  0.64952  0.82707  0.22857  1.0000
  C   C20       1.0  0.17293  0.35049  0.27143  1.0000
  C   C21       1.0  0.27708  0.28769  0.86502  1.0000
  C   C22       1.0  0.71232  0.72292  0.63497  1.0000
  C   C23       1.0  0.72292  0.71232  0.13497  1.0000
  C   C24       1.0  0.28769  0.27709  0.36503  1.0000
  C   C25       1.0  0.20249  0.14374  0.85882  1.0000
  C   C26       1.0  0.85626  0.79751  0.64118  1.0000
  C   C27       1.0  0.79751  0.85626  0.14117  1.0000
  C   C28       1.0  0.14374  0.20249  0.35882  1.0000
  C   C29       1.0  0.42628  0.14591  0.70703  1.0000
  C   C30       1.0  0.85410  0.57372  0.79297  1.0000
  C   C31       1.0  0.57372  0.85409  0.29297  1.0000
  C   C32       1.0  0.14590  0.42629  0.20703  1.0000
  C   C33       1.0  0.57417  0.22933  0.61234  1.0000
  C   C34       1.0  0.77067  0.42582  0.88766  1.0000
  C   C35       1.0  0.42583  0.77067  0.38766  1.0000
  C   C36       1.0  0.22932  0.57418  0.11234  1.0000
  C   C37       1.0  0.57676  0.33012  0.55859  1.0000
  C   C38       1.0  0.66989  0.42325  0.94141  1.0000
  C   C39       1.0  0.42325  0.66988  0.44140  1.0000
  C   C40       1.0  0.33011  0.57675  0.05859  1.0000
  C   C41       1.0  0.63795  0.11262  0.59809  1.0000
  C   C42       1.0  0.88737  0.36203  0.90191  1.0000
  C   C43       1.0  0.36204  0.88737  0.40191  1.0000
  C   C44       1.0  0.11262  0.63796  0.09809  1.0000
  C   C45       1.0  0.95103  0.65036  0.43954  1.0000
  C   C46       1.0  0.34964  0.04898  0.06047  1.0000
  C   C47       1.0  0.04897  0.34964  0.56046  1.0000
  C   C48       1.0  0.65037  0.95102  0.93953  1.0000
  C   C49       1.0  0.02020  0.58546  0.38735  1.0000
  C   C50       1.0  0.41454  0.97980  0.11266  1.0000
  C   C51       1.0  0.97981  0.41454  0.61265  1.0000
  C   C52       1.0  0.58547  0.02020  0.88734  1.0000
  C   C53       1.0  0.91187  0.76856  0.40489  1.0000
  C   C54       1.0  0.23143  0.08813  0.09512  1.0000
  C   C55       1.0  0.08812  0.23143  0.59511  1.0000
  C   C56       1.0  0.76858  0.91188  0.90488  1.0000
  C   C57       1.0  0.96020  0.76678  0.33400  1.0000
  C   C58       1.0  0.23321  0.03978  0.16601  1.0000
  C   C59       1.0  0.03979  0.23322  0.66600  1.0000
  C   C60       1.0  0.76680  0.96022  0.83399  1.0000
  N   N1        1.0  0.36926  0.30481  0.80990  1.0000
  N   N2        1.0  0.69519  0.63074  0.69010  1.0000
  N   N3        1.0  0.63074  0.69519  0.19009  1.0000
  N   N4        1.0  0.30481  0.36927  0.30991  1.0000
  N   N5        1.0  0.50574  0.25194  0.67796  1.0000
  N   N6        1.0  0.74806  0.49426  0.82203  1.0000
  N   N7        1.0  0.49426  0.74806  0.32203  1.0000
  N   N8        1.0  0.25194  0.50575  0.17797  1.0000
  N   N9        1.0  0.24946  0.07213  0.79949  1.0000
  N   N10       1.0  0.92787  0.75054  0.70051  1.0000
  N   N11       1.0  0.75054  0.92787  0.20051  1.0000
  N   N12       1.0  0.07213  0.24946  0.29949  1.0000
  O   O1        1.0  0.82472  0.07156  0.39115  1.0000
  O   O2        1.0  0.92844  0.17529  0.10885  1.0000
  O   O3        1.0  0.17528  0.92844  0.60885  1.0000
  O   O4        1.0  0.07156  0.82471  0.89115  1.0000
  O   O5        1.0  0.72882  0.24297  0.34494  1.0000
  O   O6        1.0  0.75702  0.27118  0.15506  1.0000
  O   O7        1.0  0.27118  0.75703  0.65506  1.0000
  O   O8        1.0  0.24298  0.72882  0.84494  1.0000
  O   O9        1.0  0.34384  0.51104  0.66065  1.0000
  O   O10       1.0  0.48897  0.65616  0.83936  1.0000
  O   O11       1.0  0.65616  0.48896  0.33935  1.0000
  O   O12       1.0  0.51104  0.34384  0.16065  1.0000
  O   O13       1.0  0.02677  0.65535  0.32224  1.0000
  O   O14       1.0  0.34465  0.97322  0.17777  1.0000
  O   O15       1.0  0.97323  0.34465  0.67776  1.0000
  O   O16       1.0  0.65536  0.02678  0.82224  1.0000
