data_image0
_chemical_formula_structural       Cu2H28C28N20O12
_chemical_formula_sum              "Cu2 H28 C28 N20 O12"
_cell_length_a       6.82054
_cell_length_b       7.99241
_cell_length_c       16.8978
_cell_angle_alpha    90.0007
_cell_angle_beta     89.9992
_cell_angle_gamma    97.8866

_space_group_name_H-M_alt    "P 1"
_space_group_IT_number       1

loop_
  _space_group_symop_operation_xyz
  'x, y, z'

loop_
  _atom_site_type_symbol
  _atom_site_label
  _atom_site_symmetry_multiplicity
  _atom_site_fract_x
  _atom_site_fract_y
  _atom_site_fract_z
  _atom_site_occupancy
  Cu  Cu1       1.0  0.50000  0.50000  0.50000  1.0000
  Cu  Cu2       1.0  0.50000  0.00000  0.00000  1.0000
  H   H1        1.0  0.13681  0.65041  0.46222  1.0000
  H   H2        1.0  0.86319  0.84958  0.96222  1.0000
  H   H3        1.0  0.86319  0.34959  0.53778  1.0000
  H   H4        1.0  0.13681  0.15042  0.03778  1.0000
  H   H5        1.0  0.15261  0.88301  0.55224  1.0000
  H   H6        1.0  0.84739  0.61700  0.05224  1.0000
  H   H7        1.0  0.84738  0.11700  0.44777  1.0000
  H   H8        1.0  0.15261  0.38300  0.94776  1.0000
  H   H9        1.0  0.10828  0.63479  0.32350  1.0000
  H   H10       1.0  0.89173  0.86520  0.82350  1.0000
  H   H11       1.0  0.89173  0.36522  0.67650  1.0000
  H   H12       1.0  0.10826  0.13480  0.17651  1.0000
  H   H13       1.0  0.53650  0.80935  0.62427  1.0000
  H   H14       1.0  0.46349  0.69066  0.12427  1.0000
  H   H15       1.0  0.46349  0.19065  0.37572  1.0000
  H   H16       1.0  0.53651  0.30935  0.87573  1.0000
  H   H17       1.0  0.48044  0.45123  0.30934  1.0000
  H   H18       1.0  0.51957  0.04876  0.80933  1.0000
  H   H19       1.0  0.51957  0.54876  0.69066  1.0000
  H   H20       1.0  0.48043  0.95124  0.19067  1.0000
  H   H21       1.0  0.88089  0.02300  0.64477  1.0000
  H   H22       1.0  0.11910  0.47701  0.14478  1.0000
  H   H23       1.0  0.11909  0.97700  0.35523  1.0000
  H   H24       1.0  0.88090  0.52299  0.85523  1.0000
  H   H25       1.0  0.79836  0.54134  0.21627  1.0000
  H   H26       1.0  0.20165  0.95865  0.71627  1.0000
  H   H27       1.0  0.20165  0.45867  0.78373  1.0000
  H   H28       1.0  0.79834  0.04135  0.28373  1.0000
  C   C1        1.0  0.98938  0.58485  0.47916  1.0000
  C   C2        1.0  0.01062  0.91515  0.97916  1.0000
  C   C3        1.0  0.01062  0.41515  0.52084  1.0000
  C   C4        1.0  0.98938  0.08485  0.02084  1.0000
  C   C5        1.0  0.99752  0.84021  0.56449  1.0000
  C   C6        1.0  0.00248  0.65980  0.06449  1.0000
  C   C7        1.0  0.00247  0.15979  0.43551  1.0000
  C   C8        1.0  0.99752  0.34020  0.93551  1.0000
  C   C9        1.0  0.95296  0.58433  0.33218  1.0000
  C   C10       1.0  0.04705  0.91566  0.83218  1.0000
  C   C11       1.0  0.04705  0.41568  0.66783  1.0000
  C   C12       1.0  0.95295  0.08433  0.16783  1.0000
  C   C13       1.0  0.68184  0.79822  0.60078  1.0000
  C   C14       1.0  0.31816  0.70179  0.10078  1.0000
  C   C15       1.0  0.31815  0.20178  0.39922  1.0000
  C   C16       1.0  0.68184  0.29821  0.89922  1.0000
  C   C17       1.0  0.63127  0.49160  0.32801  1.0000
  C   C18       1.0  0.36874  0.00839  0.82801  1.0000
  C   C19       1.0  0.36874  0.50840  0.67199  1.0000
  C   C20       1.0  0.63126  0.99161  0.17199  1.0000
  C   C21       1.0  0.85925  0.90803  0.61013  1.0000
  C   C22       1.0  0.14075  0.59198  0.11014  1.0000
  C   C23       1.0  0.14074  0.09197  0.38986  1.0000
  C   C24       1.0  0.85926  0.40802  0.88986  1.0000
  C   C25       1.0  0.79723  0.54093  0.28031  1.0000
  C   C26       1.0  0.20278  0.95906  0.78031  1.0000
  C   C27       1.0  0.20278  0.45907  0.71969  1.0000
  C   C28       1.0  0.79722  0.04094  0.21969  1.0000
  N   N1        1.0  0.70928  0.66734  0.55401  1.0000
  N   N2        1.0  0.29072  0.83267  0.05401  1.0000
  N   N3        1.0  0.29072  0.33266  0.44599  1.0000
  N   N4        1.0  0.70928  0.16734  0.94599  1.0000
  N   N5        1.0  0.87851  0.55874  0.40659  1.0000
  N   N6        1.0  0.12149  0.94125  0.90659  1.0000
  N   N7        1.0  0.12150  0.44125  0.59341  1.0000
  N   N8        1.0  0.87850  0.05875  0.09341  1.0000
  N   N9        1.0  0.68099  0.50049  0.40515  1.0000
  N   N10       1.0  0.31902  0.99951  0.90514  1.0000
  N   N11       1.0  0.31902  0.49951  0.59486  1.0000
  N   N12       1.0  0.68098  0.00050  0.09486  1.0000
  N   N13       1.0  0.90280  0.69668  0.53148  1.0000
  N   N14       1.0  0.09720  0.80332  0.03148  1.0000
  N   N15       1.0  0.09720  0.30332  0.46853  1.0000
  N   N16       1.0  0.90280  0.19668  0.96853  1.0000
  N   N17       1.0  0.52576  0.17330  0.61466  1.0000
  N   N18       1.0  0.47423  0.32669  0.11467  1.0000
  N   N19       1.0  0.47424  0.82669  0.38533  1.0000
  N   N20       1.0  0.52576  0.67331  0.88533  1.0000
  O   O1        1.0  0.61156  0.24197  0.55263  1.0000
  O   O2        1.0  0.38844  0.25800  0.05265  1.0000
  O   O3        1.0  0.38845  0.75800  0.44736  1.0000
  O   O4        1.0  0.61156  0.74201  0.94735  1.0000
  O   O5        1.0  0.35450  0.09328  0.60851  1.0000
  O   O6        1.0  0.64550  0.40671  0.10852  1.0000
  O   O7        1.0  0.64551  0.90669  0.39148  1.0000
  O   O8        1.0  0.35450  0.59329  0.89148  1.0000
  O   O9        1.0  0.61526  0.18829  0.68036  1.0000
  O   O10       1.0  0.38474  0.31174  0.18037  1.0000
  O   O11       1.0  0.38474  0.81174  0.31963  1.0000
  O   O12       1.0  0.61526  0.68826  0.81963  1.0000
