data_image0
_chemical_formula_structural       Ca2Cd4H36C48O30
_chemical_formula_sum              "Ca2 Cd4 H36 C48 O30"
_cell_length_a       13.1117
_cell_length_b       14.185
_cell_length_c       14.7894
_cell_angle_alpha    86.9664
_cell_angle_beta     63.6646
_cell_angle_gamma    62.4876

_space_group_name_H-M_alt    "P 1"
_space_group_IT_number       1

loop_
  _space_group_symop_operation_xyz
  'x, y, z'

loop_
  _atom_site_type_symbol
  _atom_site_label
  _atom_site_symmetry_multiplicity
  _atom_site_fract_x
  _atom_site_fract_y
  _atom_site_fract_z
  _atom_site_occupancy
  Ca  Ca1       1.0  0.53754  0.75008  0.75000  1.0000
  Ca  Ca2       1.0  0.46246  0.24992  0.25000  1.0000
  Cd  Cd1       1.0  0.40956  0.96215  0.61631  1.0000
  Cd  Cd2       1.0  0.48800  0.53780  0.88368  1.0000
  Cd  Cd3       1.0  0.59044  0.03785  0.38369  1.0000
  Cd  Cd4       1.0  0.51200  0.46220  0.11632  1.0000
  H   H1        1.0  0.81336  0.58712  0.50846  1.0000
  H   H2        1.0  0.40956  0.91279  0.99146  1.0000
  H   H3        1.0  0.18663  0.41288  0.49154  1.0000
  H   H4        1.0  0.59044  0.08721  0.00855  1.0000
  H   H5        1.0  0.05416  0.46555  0.40322  1.0000
  H   H6        1.0  0.42356  0.03429  0.09677  1.0000
  H   H7        1.0  0.94584  0.53445  0.59678  1.0000
  H   H8        1.0  0.57644  0.96571  0.90323  1.0000
  H   H9        1.0  0.08248  0.71279  0.22950  1.0000
  H   H10       1.0  0.52454  0.78712  0.27067  1.0000
  H   H11       1.0  0.91752  0.28721  0.77050  1.0000
  H   H12       1.0  0.47547  0.21288  0.72932  1.0000
  H   H13       1.0  0.84396  0.83345  0.33183  1.0000
  H   H14       1.0  0.50899  0.66651  0.16828  1.0000
  H   H15       1.0  0.15604  0.16655  0.66817  1.0000
  H   H16       1.0  0.49101  0.33348  0.83172  1.0000
  H   H17       1.0  0.21207  0.82939  0.94157  1.0000
  H   H18       1.0  0.48273  0.67078  0.55845  1.0000
  H   H19       1.0  0.78793  0.17061  0.05843  1.0000
  H   H20       1.0  0.51727  0.32922  0.44155  1.0000
  H   H21       1.0  0.98192  0.13604  0.88663  1.0000
  H   H22       1.0  0.50503  0.36382  0.61326  1.0000
  H   H23       1.0  0.01808  0.86395  0.11337  1.0000
  H   H24       1.0  0.49497  0.63617  0.38674  1.0000
  H   H25       1.0  0.37250  0.83889  0.49163  1.0000
  H   H26       1.0  0.20301  0.66098  0.00847  1.0000
  H   H27       1.0  0.62749  0.16111  0.50837  1.0000
  H   H28       1.0  0.79699  0.33902  0.99153  1.0000
  H   H29       1.0  0.41183  0.92234  0.43022  1.0000
  H   H30       1.0  0.26437  0.57761  0.06988  1.0000
  H   H31       1.0  0.58817  0.07767  0.56978  1.0000
  H   H32       1.0  0.73563  0.42239  0.93012  1.0000
  H   H33       1.0  0.73044  0.81392  0.76545  1.0000
  H   H34       1.0  0.80938  0.68646  0.73465  1.0000
  H   H35       1.0  0.26955  0.18608  0.23456  1.0000
  H   H36       1.0  0.19061  0.31354  0.26536  1.0000
  C   C1        1.0  0.81344  0.71839  0.42748  1.0000
  C   C2        1.0  0.45954  0.78155  0.07251  1.0000
  C   C3        1.0  0.18656  0.28161  0.57252  1.0000
  C   C4        1.0  0.54046  0.21845  0.92749  1.0000
  C   C5        1.0  0.87260  0.61357  0.44622  1.0000
  C   C6        1.0  0.43290  0.88632  0.05370  1.0000
  C   C7        1.0  0.12740  0.38643  0.55378  1.0000
  C   C8        1.0  0.56709  0.11368  0.94630  1.0000
  C   C9        1.0  0.00640  0.54573  0.38723  1.0000
  C   C10       1.0  0.43986  0.95411  0.11271  1.0000
  C   C11       1.0  0.99361  0.45427  0.61277  1.0000
  C   C12       1.0  0.56014  0.04589  0.88729  1.0000
  C   C13       1.0  0.08293  0.58111  0.30918  1.0000
  C   C14       1.0  0.47349  0.91871  0.19082  1.0000
  C   C15       1.0  0.91707  0.41889  0.69082  1.0000
  C   C16       1.0  0.52651  0.08129  0.80918  1.0000
  C   C17       1.0  0.02276  0.68477  0.28919  1.0000
  C   C18       1.0  0.49672  0.81510  0.21090  1.0000
  C   C19       1.0  0.97724  0.31523  0.71081  1.0000
  C   C20       1.0  0.50329  0.18490  0.78910  1.0000
  C   C21       1.0  0.88906  0.75289  0.34758  1.0000
  C   C22       1.0  0.48951  0.74703  0.15248  1.0000
  C   C23       1.0  0.11094  0.24711  0.65242  1.0000
  C   C24       1.0  0.51049  0.25297  0.84752  1.0000
  C   C25       1.0  0.67200  0.79460  0.49477  1.0000
  C   C26       1.0  0.46147  0.70549  0.00519  1.0000
  C   C27       1.0  0.32800  0.20540  0.50523  1.0000
  C   C28       1.0  0.53853  0.29451  0.99481  1.0000
  C   C29       1.0  0.22841  0.51046  0.25189  1.0000
  C   C30       1.0  0.49094  0.98939  0.24815  1.0000
  C   C31       1.0  0.77158  0.48954  0.74812  1.0000
  C   C32       1.0  0.50906  0.01061  0.75185  1.0000
  C   C33       1.0  0.22089  0.96071  0.80317  1.0000
  C   C34       1.0  0.48481  0.53934  0.69672  1.0000
  C   C35       1.0  0.77911  0.03929  0.19683  1.0000
  C   C36       1.0  0.51519  0.46067  0.30328  1.0000
  C   C37       1.0  0.10698  0.98081  0.90483  1.0000
  C   C38       1.0  0.49268  0.51922  0.59509  1.0000
  C   C39       1.0  0.89303  0.01919  0.09517  1.0000
  C   C40       1.0  0.50732  0.48078  0.40491  1.0000
  C   C41       1.0  0.11835  0.90334  0.96800  1.0000
  C   C42       1.0  0.48952  0.59677  0.53199  1.0000
  C   C43       1.0  0.88165  0.09666  0.03200  1.0000
  C   C44       1.0  0.51048  0.40324  0.46801  1.0000
  C   C45       1.0  0.98811  0.07744  0.93744  1.0000
  C   C46       1.0  0.50326  0.42248  0.56250  1.0000
  C   C47       1.0  0.01189  0.92256  0.06256  1.0000
  C   C48       1.0  0.49674  0.57752  0.43750  1.0000
  O   O1        1.0  0.60722  0.76895  0.57591  1.0000
  O   O2        1.0  0.45224  0.73123  0.92409  1.0000
  O   O3        1.0  0.39278  0.23105  0.42409  1.0000
  O   O4        1.0  0.54776  0.26877  0.07591  1.0000
  O   O5        1.0  0.35645  0.91281  0.49929  1.0000
  O   O6        1.0  0.26850  0.58707  0.00083  1.0000
  O   O7        1.0  0.64355  0.08719  0.50071  1.0000
  O   O8        1.0  0.73150  0.41293  0.99917  1.0000
  O   O9        1.0  0.61718  0.88587  0.47067  1.0000
  O   O10       1.0  0.47358  0.61424  0.02928  1.0000
  O   O11       1.0  0.38282  0.11413  0.52933  1.0000
  O   O12       1.0  0.52642  0.38576  0.97072  1.0000
  O   O13       1.0  0.72689  0.75028  0.74966  1.0000
  O   O14       1.0  0.27311  0.24972  0.25034  1.0000
  O   O15       1.0  0.29157  0.53910  0.17104  1.0000
  O   O16       1.0  0.50149  0.96093  0.32914  1.0000
  O   O17       1.0  0.70843  0.46090  0.82897  1.0000
  O   O18       1.0  0.49851  0.03907  0.67086  1.0000
  O   O19       1.0  0.28140  0.42904  0.28646  1.0000
  O   O20       1.0  0.49740  0.07069  0.21343  1.0000
  O   O21       1.0  0.71860  0.57096  0.71353  1.0000
  O   O22       1.0  0.50260  0.92931  0.78657  1.0000
  O   O23       1.0  0.20836  0.03744  0.75208  1.0000
  O   O24       1.0  0.49806  0.46255  0.74776  1.0000
  O   O25       1.0  0.79163  0.96256  0.24792  1.0000
  O   O26       1.0  0.50194  0.53745  0.25224  1.0000
  O   O27       1.0  0.32516  0.86979  0.77018  1.0000
  O   O28       1.0  0.46509  0.63027  0.72977  1.0000
  O   O29       1.0  0.67484  0.13021  0.22982  1.0000
  O   O30       1.0  0.53491  0.36973  0.27023  1.0000
