data_image0
_chemical_formula_structural       Cu4H16C20N12
_chemical_formula_sum              "Cu4 H16 C20 N12"
_cell_length_a       6.45591
_cell_length_b       7.91608
_cell_length_c       12.0436
_cell_angle_alpha    90.0002
_cell_angle_beta     90.0003
_cell_angle_gamma    103.969

_space_group_name_H-M_alt    "P 1"
_space_group_IT_number       1

loop_
  _space_group_symop_operation_xyz
  'x, y, z'

loop_
  _atom_site_type_symbol
  _atom_site_label
  _atom_site_symmetry_multiplicity
  _atom_site_fract_x
  _atom_site_fract_y
  _atom_site_fract_z
  _atom_site_occupancy
  Cu  Cu1       1.0  0.69085  0.96472  0.25000  1.0000
  Cu  Cu2       1.0  0.30915  0.03528  0.75000  1.0000
  Cu  Cu3       1.0  0.93922  0.61068  0.25000  1.0000
  Cu  Cu4       1.0  0.06078  0.38933  0.75000  1.0000
  H   H1        1.0  0.72719  0.05215  0.48738  1.0000
  H   H2        1.0  0.27281  0.94785  0.98738  1.0000
  H   H3        1.0  0.27282  0.94785  0.51262  1.0000
  H   H4        1.0  0.72719  0.05215  0.01262  1.0000
  H   H5        1.0  0.78703  0.45547  0.46984  1.0000
  H   H6        1.0  0.21297  0.54453  0.96984  1.0000
  H   H7        1.0  0.21296  0.54453  0.53016  1.0000
  H   H8        1.0  0.78704  0.45547  0.03016  1.0000
  H   H9        1.0  0.71276  0.56718  0.65713  1.0000
  H   H10       1.0  0.28723  0.43282  0.15713  1.0000
  H   H11       1.0  0.28724  0.43281  0.34287  1.0000
  H   H12       1.0  0.71277  0.56719  0.84287  1.0000
  H   H13       1.0  0.68443  0.88733  0.66590  1.0000
  H   H14       1.0  0.31556  0.11267  0.16590  1.0000
  H   H15       1.0  0.31558  0.11267  0.33410  1.0000
  H   H16       1.0  0.68443  0.88733  0.83410  1.0000
  C   C1        1.0  0.71503  0.82372  0.58981  1.0000
  C   C2        1.0  0.28496  0.17628  0.08981  1.0000
  C   C3        1.0  0.28498  0.17627  0.41019  1.0000
  C   C4        1.0  0.71503  0.82372  0.91019  1.0000
  C   C5        1.0  0.22126  0.74081  0.25000  1.0000
  C   C6        1.0  0.77876  0.25918  0.75000  1.0000
  C   C7        1.0  0.78029  0.20746  0.25000  1.0000
  C   C8        1.0  0.21971  0.79254  0.75000  1.0000
  C   C9        1.0  0.73846  0.91701  0.49066  1.0000
  C   C10       1.0  0.26154  0.08299  0.99066  1.0000
  C   C11       1.0  0.26155  0.08298  0.50934  1.0000
  C   C12       1.0  0.73845  0.91702  0.00934  1.0000
  C   C13       1.0  0.77138  0.58846  0.48145  1.0000
  C   C14       1.0  0.22862  0.41154  0.98145  1.0000
  C   C15       1.0  0.22862  0.41153  0.51855  1.0000
  C   C16       1.0  0.77138  0.58846  0.01855  1.0000
  C   C17       1.0  0.72989  0.65190  0.58487  1.0000
  C   C18       1.0  0.27010  0.34810  0.08487  1.0000
  C   C19       1.0  0.27011  0.34809  0.41513  1.0000
  C   C20       1.0  0.72990  0.65190  0.91513  1.0000
  N   N1        1.0  0.39501  0.83230  0.25000  1.0000
  N   N2        1.0  0.60499  0.16769  0.75000  1.0000
  N   N3        1.0  0.83714  0.36055  0.25000  1.0000
  N   N4        1.0  0.16286  0.63945  0.75000  1.0000
  N   N5        1.0  0.77437  0.84923  0.39247  1.0000
  N   N6        1.0  0.22564  0.15078  0.89247  1.0000
  N   N7        1.0  0.22564  0.15077  0.60753  1.0000
  N   N8        1.0  0.77437  0.84923  0.10754  1.0000
  N   N9        1.0  0.79533  0.68441  0.38836  1.0000
  N   N10       1.0  0.20467  0.31559  0.88835  1.0000
  N   N11       1.0  0.20467  0.31558  0.61164  1.0000
  N   N12       1.0  0.79533  0.68442  0.11164  1.0000
