data_image0
_chemical_formula_structural       Cu4H28C28N4O24
_chemical_formula_sum              "Cu4 H28 C28 N4 O24"
_cell_length_a       6.50282
_cell_length_b       7.17364
_cell_length_c       18.7169
_cell_angle_alpha    89.9927
_cell_angle_beta     90.0055
_cell_angle_gamma    105.211

_space_group_name_H-M_alt    "P 1"
_space_group_IT_number       1

loop_
  _space_group_symop_operation_xyz
  'x, y, z'

loop_
  _atom_site_type_symbol
  _atom_site_label
  _atom_site_symmetry_multiplicity
  _atom_site_fract_x
  _atom_site_fract_y
  _atom_site_fract_z
  _atom_site_occupancy
  Cu  Cu1       1.0  0.63511  0.26491  0.31114  1.0000
  Cu  Cu2       1.0  0.86473  0.73510  0.81126  1.0000
  Cu  Cu3       1.0  0.36469  0.73510  0.68872  1.0000
  Cu  Cu4       1.0  0.13511  0.26496  0.18884  1.0000
  H   H1        1.0  0.12874  0.86485  0.48374  1.0000
  H   H2        1.0  0.37151  0.13497  0.98379  1.0000
  H   H3        1.0  0.87143  0.13505  0.51621  1.0000
  H   H4        1.0  0.62866  0.86506  0.01626  1.0000
  H   H5        1.0  0.31588  0.60084  0.48727  1.0000
  H   H6        1.0  0.18448  0.39916  0.98736  1.0000
  H   H7        1.0  0.68445  0.39922  0.51264  1.0000
  H   H8        1.0  0.81577  0.60102  0.01271  1.0000
  H   H9        1.0  0.64271  0.62821  0.41110  1.0000
  H   H10       1.0  0.85754  0.37184  0.91117  1.0000
  H   H11       1.0  0.35754  0.37191  0.58880  1.0000
  H   H12       1.0  0.14265  0.62830  0.08889  1.0000
  H   H13       1.0  0.78189  0.60632  0.26391  1.0000
  H   H14       1.0  0.71804  0.39379  0.76400  1.0000
  H   H15       1.0  0.21805  0.39381  0.73599  1.0000
  H   H16       1.0  0.28185  0.60628  0.23612  1.0000
  H   H17       1.0  0.76803  0.44566  0.20143  1.0000
  H   H18       1.0  0.73184  0.55441  0.70153  1.0000
  H   H19       1.0  0.23188  0.55440  0.79845  1.0000
  H   H20       1.0  0.26800  0.44564  0.29857  1.0000
  H   H21       1.0  0.97616  0.38540  0.40650  1.0000
  H   H22       1.0  0.52354  0.61414  0.90656  1.0000
  H   H23       1.0  0.02348  0.61415  0.59343  1.0000
  H   H24       1.0  0.47618  0.38556  0.09353  1.0000
  H   H25       1.0  0.95241  0.57438  0.36639  1.0000
  H   H26       1.0  0.54756  0.42519  0.86649  1.0000
  H   H27       1.0  0.04753  0.42517  0.63349  1.0000
  H   H28       1.0  0.45238  0.57451  0.13364  1.0000
  C   C1        1.0  0.26739  0.20594  0.40031  1.0000
  C   C2        1.0  0.23253  0.79395  0.90034  1.0000
  C   C3        1.0  0.73248  0.79397  0.59966  1.0000
  C   C4        1.0  0.76740  0.20609  0.09968  1.0000
  C   C5        1.0  0.35468  0.03286  0.40888  1.0000
  C   C6        1.0  0.14539  0.96708  0.90895  1.0000
  C   C7        1.0  0.64534  0.96712  0.59106  1.0000
  C   C8        1.0  0.85470  0.03302  0.09112  1.0000
  C   C9        1.0  0.27094  0.87244  0.45185  1.0000
  C   C10       1.0  0.22925  0.12747  0.95191  1.0000
  C   C11       1.0  0.72918  0.12751  0.54809  1.0000
  C   C12       1.0  0.77092  0.87264  0.04815  1.0000
  C   C13       1.0  0.37685  0.72626  0.45309  1.0000
  C   C14       1.0  0.12347  0.27376  0.95317  1.0000
  C   C15       1.0  0.62341  0.27380  0.54682  1.0000
  C   C16       1.0  0.87673  0.72639  0.04691  1.0000
  C   C17       1.0  0.55796  0.74033  0.41082  1.0000
  C   C18       1.0  0.94235  0.25976  0.91089  1.0000
  C   C19       1.0  0.44230  0.25977  0.58910  1.0000
  C   C20       1.0  0.05787  0.74043  0.08919  1.0000
  C   C21       1.0  0.62820  0.90227  0.36731  1.0000
  C   C22       1.0  0.87194  0.09781  0.86741  1.0000
  C   C23       1.0  0.37190  0.09781  0.63258  1.0000
  C   C24       1.0  0.12816  0.90233  0.13270  1.0000
  C   C25       1.0  0.80986  0.94235  0.31416  1.0000
  C   C26       1.0  0.69022  0.05773  0.81427  1.0000
  C   C27       1.0  0.19021  0.05773  0.68572  1.0000
  C   C28       1.0  0.30982  0.94236  0.18583  1.0000
  N   N1        1.0  0.52783  0.04285  0.36898  1.0000
  N   N2        1.0  0.97220  0.95716  0.86907  1.0000
  N   N3        1.0  0.47215  0.95715  0.63093  1.0000
  N   N4        1.0  0.02787  0.04298  0.13103  1.0000
  O   O1        1.0  0.37700  0.33742  0.35764  1.0000
  O   O2        1.0  0.12288  0.66265  0.85762  1.0000
  O   O3        1.0  0.62284  0.66263  0.64238  1.0000
  O   O4        1.0  0.87698  0.33755  0.14237  1.0000
  O   O5        1.0  0.10296  0.21626  0.43270  1.0000
  O   O6        1.0  0.39685  0.78338  0.93273  1.0000
  O   O7        1.0  0.89679  0.78342  0.56727  1.0000
  O   O8        1.0  0.60297  0.21648  0.06731  1.0000
  O   O9        1.0  0.84750  0.10890  0.28338  1.0000
  O   O10       1.0  0.65262  0.89124  0.78350  1.0000
  O   O11       1.0  0.15256  0.89122  0.71650  1.0000
  O   O12       1.0  0.34753  0.10889  0.21661  1.0000
  O   O13       1.0  0.91092  0.81827  0.30223  1.0000
  O   O14       1.0  0.58910  0.18177  0.80235  1.0000
  O   O15       1.0  0.08911  0.18176  0.69764  1.0000
  O   O16       1.0  0.41092  0.81834  0.19777  1.0000
  O   O17       1.0  0.69255  0.48229  0.24387  1.0000
  O   O18       1.0  0.80728  0.51776  0.74394  1.0000
  O   O19       1.0  0.30726  0.51771  0.75606  1.0000
  O   O20       1.0  0.19257  0.48235  0.25617  1.0000
  O   O21       1.0  0.87366  0.46222  0.39376  1.0000
  O   O22       1.0  0.62611  0.53736  0.89389  1.0000
  O   O23       1.0  0.12607  0.53736  0.60609  1.0000
  O   O24       1.0  0.37366  0.46234  0.10627  1.0000
