data_image0
_chemical_formula_structural       Cd2H20C20Br4N4
_chemical_formula_sum              "Cd2 H20 C20 Br4 N4"
_cell_length_a       3.91541
_cell_length_b       8.52521
_cell_length_c       18.3618
_cell_angle_alpha    90
_cell_angle_beta     90.0009
_cell_angle_gamma    90.0005

_space_group_name_H-M_alt    "P 1"
_space_group_IT_number       1

loop_
  _space_group_symop_operation_xyz
  'x, y, z'

loop_
  _atom_site_type_symbol
  _atom_site_label
  _atom_site_symmetry_multiplicity
  _atom_site_fract_x
  _atom_site_fract_y
  _atom_site_fract_z
  _atom_site_occupancy
  Cd  Cd1       1.0  0.00000  0.00000  0.00000  1.0000
  Cd  Cd2       1.0  0.49999  0.50001  0.50000  1.0000
  H   H1        1.0  1.00000  0.98442  0.82747  1.0000
  H   H2        1.0  0.50000  0.48442  0.67252  1.0000
  H   H3        1.0  0.50000  0.51559  0.32747  1.0000
  H   H4        1.0  1.00000  0.01557  0.17253  1.0000
  H   H5        1.0  0.00000  0.79214  0.72226  1.0000
  H   H6        1.0  0.50000  0.29213  0.77774  1.0000
  H   H7        1.0  0.50000  0.70786  0.22226  1.0000
  H   H8        1.0  0.00001  0.20785  0.27775  1.0000
  H   H9        1.0  0.00002  0.50611  0.75024  1.0000
  H   H10       1.0  0.49999  0.00610  0.74975  1.0000
  H   H11       1.0  0.49999  0.99390  0.25024  1.0000
  H   H12       1.0  0.00002  0.49388  0.24977  1.0000
  H   H13       1.0  0.00002  0.41914  0.88158  1.0000
  H   H14       1.0  0.50001  0.91913  0.61841  1.0000
  H   H15       1.0  0.49998  0.08087  0.38158  1.0000
  H   H16       1.0  0.00001  0.58086  0.11843  1.0000
  H   H17       1.0  0.00000  0.62699  0.97885  1.0000
  H   H18       1.0  0.50001  0.12699  0.52114  1.0000
  H   H19       1.0  0.49998  0.87302  0.47885  1.0000
  H   H20       1.0  0.00000  0.37302  0.02115  1.0000
  C   C1        1.0  1.00000  0.85787  0.83614  1.0000
  C   C2        1.0  0.50000  0.35786  0.66385  1.0000
  C   C3        1.0  0.49999  0.64214  0.33615  1.0000
  C   C4        1.0  0.00000  0.14212  0.16386  1.0000
  C   C5        1.0  0.00001  0.75164  0.77858  1.0000
  C   C6        1.0  0.49999  0.25163  0.72141  1.0000
  C   C7        1.0  0.49999  0.74838  0.27858  1.0000
  C   C8        1.0  0.00001  0.24836  0.22142  1.0000
  C   C9        1.0  0.00001  0.59156  0.79437  1.0000
  C   C10       1.0  0.50000  0.09156  0.70562  1.0000
  C   C11       1.0  0.49998  0.90845  0.29437  1.0000
  C   C12       1.0  0.00002  0.40843  0.20564  1.0000
  C   C13       1.0  0.00001  0.54303  0.86687  1.0000
  C   C14       1.0  0.50001  0.04302  0.63312  1.0000
  C   C15       1.0  0.49998  0.95698  0.36687  1.0000
  C   C16       1.0  0.00001  0.45697  0.13314  1.0000
  C   C17       1.0  1.00000  0.65728  0.92116  1.0000
  C   C18       1.0  0.50001  0.15727  0.57883  1.0000
  C   C19       1.0  0.49998  0.84273  0.42116  1.0000
  C   C20       1.0  0.00000  0.34272  0.07885  1.0000
  Br  Br1       1.0  0.50000  0.82715  0.07518  1.0000
  Br  Br2       1.0  0.99998  0.32717  0.42482  1.0000
  Br  Br3       1.0  0.00000  0.67284  0.57518  1.0000
  Br  Br4       1.0  0.50000  0.17284  0.92483  1.0000
  N   N1        1.0  1.00000  0.81136  0.90606  1.0000
  N   N2        1.0  0.50000  0.31135  0.59394  1.0000
  N   N3        1.0  0.49999  0.68865  0.40605  1.0000
  N   N4        1.0  0.00001  0.18864  0.09395  1.0000
