data_image0
_chemical_formula_structural       Hg4H32C40S8N8Cl8
_chemical_formula_sum              "Hg4 H32 C40 S8 N8 Cl8"
_cell_length_a       8.9403
_cell_length_b       11.5274
_cell_length_c       13.1236
_cell_angle_alpha    90
_cell_angle_beta     90
_cell_angle_gamma    103.281

_space_group_name_H-M_alt    "P 1"
_space_group_IT_number       1

loop_
  _space_group_symop_operation_xyz
  'x, y, z'

loop_
  _atom_site_type_symbol
  _atom_site_label
  _atom_site_symmetry_multiplicity
  _atom_site_fract_x
  _atom_site_fract_y
  _atom_site_fract_z
  _atom_site_occupancy
  Hg  Hg1       1.0  0.97463  0.87012  0.12398  1.0000
  Hg  Hg2       1.0  0.52537  0.62988  0.62398  1.0000
  Hg  Hg3       1.0  0.02537  0.12988  0.87602  1.0000
  Hg  Hg4       1.0  0.47463  0.37012  0.37602  1.0000
  H   H1        1.0  0.51494  0.00414  0.35948  1.0000
  H   H2        1.0  0.98506  0.49586  0.85948  1.0000
  H   H3        1.0  0.48506  0.99586  0.64052  1.0000
  H   H4        1.0  0.01494  0.50414  0.14052  1.0000
  H   H5        1.0  0.69591  0.12868  0.48164  1.0000
  H   H6        1.0  0.80409  0.37132  0.98164  1.0000
  H   H7        1.0  0.30409  0.87132  0.51836  1.0000
  H   H8        1.0  0.19591  0.62868  0.01836  1.0000
  H   H9        1.0  0.98013  0.13398  0.46820  1.0000
  H   H10       1.0  0.51987  0.36602  0.96820  1.0000
  H   H11       1.0  0.01987  0.86602  0.53180  1.0000
  H   H12       1.0  0.48013  0.63398  0.03180  1.0000
  H   H13       1.0  0.06778  0.01699  0.32956  1.0000
  H   H14       1.0  0.43222  0.48301  0.82956  1.0000
  H   H15       1.0  0.93221  0.98301  0.67044  1.0000
  H   H16       1.0  0.56778  0.51699  0.17044  1.0000
  H   H17       1.0  0.89822  0.72576  0.33284  1.0000
  H   H18       1.0  0.60178  0.77424  0.83284  1.0000
  H   H19       1.0  0.10178  0.27424  0.66716  1.0000
  H   H20       1.0  0.39822  0.22576  0.16716  1.0000
  H   H21       1.0  0.98073  0.59759  0.46411  1.0000
  H   H22       1.0  0.51927  0.90241  0.96411  1.0000
  H   H23       1.0  0.01927  0.40241  0.53589  1.0000
  H   H24       1.0  0.48073  0.09759  0.03589  1.0000
  H   H25       1.0  0.26099  0.58898  0.47057  1.0000
  H   H26       1.0  0.23901  0.91102  0.97057  1.0000
  H   H27       1.0  0.73901  0.41102  0.52943  1.0000
  H   H28       1.0  0.76099  0.08898  0.02943  1.0000
  H   H29       1.0  0.44619  0.71708  0.35162  1.0000
  H   H30       1.0  0.05381  0.78292  0.85162  1.0000
  H   H31       1.0  0.55381  0.28292  0.64838  1.0000
  H   H32       1.0  0.94619  0.21708  0.14838  1.0000
  C   C1        1.0  0.69753  0.94298  0.28251  1.0000
  C   C2        1.0  0.80247  0.55702  0.78251  1.0000
  C   C3        1.0  0.30247  0.05702  0.71749  1.0000
  C   C4        1.0  0.19753  0.44298  0.21749  1.0000
  C   C5        1.0  0.63746  0.00719  0.35595  1.0000
  C   C6        1.0  0.86254  0.49281  0.85595  1.0000
  C   C7        1.0  0.36254  0.99281  0.64405  1.0000
  C   C8        1.0  0.13746  0.50720  0.14405  1.0000
  C   C9        1.0  0.73956  0.07710  0.42381  1.0000
  C   C10       1.0  0.76044  0.42290  0.92381  1.0000
  C   C11       1.0  0.26044  0.92290  0.57619  1.0000
  C   C12       1.0  0.23956  0.57710  0.07619  1.0000
  C   C13       1.0  0.89644  0.08055  0.41671  1.0000
  C   C14       1.0  0.60356  0.41945  0.91671  1.0000
  C   C15       1.0  0.10356  0.91945  0.58329  1.0000
  C   C16       1.0  0.39644  0.58055  0.08329  1.0000
  C   C17       1.0  0.94612  0.01469  0.34033  1.0000
  C   C18       1.0  0.55388  0.48531  0.84033  1.0000
  C   C19       1.0  0.05388  0.98531  0.65967  1.0000
  C   C20       1.0  0.44612  0.51469  0.15967  1.0000
  C   C21       1.0  0.01880  0.72290  0.34062  1.0000
  C   C22       1.0  0.48120  0.77710  0.84062  1.0000
  C   C23       1.0  0.98120  0.27710  0.65938  1.0000
  C   C24       1.0  0.51880  0.22290  0.15938  1.0000
  C   C25       1.0  0.06556  0.65035  0.41291  1.0000
  C   C26       1.0  0.43444  0.84965  0.91291  1.0000
  C   C27       1.0  0.93444  0.34965  0.58710  1.0000
  C   C28       1.0  0.56556  0.15035  0.08710  1.0000
  C   C29       1.0  0.22076  0.64705  0.41656  1.0000
  C   C30       1.0  0.27924  0.85295  0.91656  1.0000
  C   C31       1.0  0.77924  0.35295  0.58344  1.0000
  C   C32       1.0  0.72076  0.14705  0.08344  1.0000
  C   C33       1.0  0.32461  0.71808  0.35028  1.0000
  C   C34       1.0  0.17539  0.78191  0.85028  1.0000
  C   C35       1.0  0.67538  0.28191  0.64972  1.0000
  C   C36       1.0  0.82462  0.21809  0.14972  1.0000
  C   C37       1.0  0.26683  0.78908  0.28114  1.0000
  C   C38       1.0  0.23317  0.71092  0.78114  1.0000
  C   C39       1.0  0.73317  0.21092  0.71886  1.0000
  C   C40       1.0  0.76683  0.28908  0.21886  1.0000
  S   S1        1.0  0.37923  0.88866  0.19202  1.0000
  S   S2        1.0  0.12077  0.61134  0.69202  1.0000
  S   S3        1.0  0.62077  0.11134  0.80798  1.0000
  S   S4        1.0  0.87923  0.38866  0.30798  1.0000
  S   S5        1.0  0.58689  0.84586  0.19095  1.0000
  S   S6        1.0  0.91311  0.65414  0.69095  1.0000
  S   S7        1.0  0.41311  0.15414  0.80905  1.0000
  S   S8        1.0  0.08689  0.34586  0.30905  1.0000
  N   N1        1.0  0.84834  0.94719  0.27430  1.0000
  N   N2        1.0  0.65167  0.55281  0.77430  1.0000
  N   N3        1.0  0.15166  0.05281  0.72570  1.0000
  N   N4        1.0  0.34833  0.44719  0.22570  1.0000
  N   N5        1.0  0.11757  0.79108  0.27567  1.0000
  N   N6        1.0  0.38243  0.70891  0.77567  1.0000
  N   N7        1.0  0.88243  0.20892  0.72433  1.0000
  N   N8        1.0  0.61757  0.29109  0.22433  1.0000
  Cl  Cl1       1.0  0.13924  0.06544  0.09994  1.0000
  Cl  Cl2       1.0  0.36076  0.43455  0.59994  1.0000
  Cl  Cl3       1.0  0.86076  0.93455  0.90006  1.0000
  Cl  Cl4       1.0  0.63924  0.56544  0.40006  1.0000
  Cl  Cl5       1.0  0.84405  0.67292  0.07913  1.0000
  Cl  Cl6       1.0  0.65595  0.82708  0.57913  1.0000
  Cl  Cl7       1.0  0.15595  0.32708  0.92087  1.0000
  Cl  Cl8       1.0  0.34405  0.17292  0.42087  1.0000
