data_image0
_chemical_formula_structural       Cu2H36C36N12Cl4
_chemical_formula_sum              "Cu2 H36 C36 N12 Cl4"
_cell_length_a       7.81067
_cell_length_b       9.91995
_cell_length_c       13.5331
_cell_angle_alpha    72.6332
_cell_angle_beta     77.6211
_cell_angle_gamma    83.9704

_space_group_name_H-M_alt    "P 1"
_space_group_IT_number       1

loop_
  _space_group_symop_operation_xyz
  'x, y, z'

loop_
  _atom_site_type_symbol
  _atom_site_label
  _atom_site_symmetry_multiplicity
  _atom_site_fract_x
  _atom_site_fract_y
  _atom_site_fract_z
  _atom_site_occupancy
  Cu  Cu1       1.0  0.17213  0.95669  0.27392  1.0000
  Cu  Cu2       1.0  0.82788  0.04332  0.72608  1.0000
  H   H1        1.0  0.64001  0.59412  0.43395  1.0000
  H   H2        1.0  0.36000  0.40587  0.56605  1.0000
  H   H3        1.0  0.82213  0.39655  0.37716  1.0000
  H   H4        1.0  0.17788  0.60345  0.62285  1.0000
  H   H5        1.0  0.14630  0.42058  0.31698  1.0000
  H   H6        1.0  0.85372  0.57941  0.68302  1.0000
  H   H7        1.0  0.27389  0.64910  0.30539  1.0000
  H   H8        1.0  0.72611  0.35089  0.69462  1.0000
  H   H9        1.0  0.82767  0.94389  0.38780  1.0000
  H   H10       1.0  0.17234  0.05610  0.61221  1.0000
  H   H11       1.0  0.78201  0.83244  0.51778  1.0000
  H   H12       1.0  0.21801  0.16757  0.48221  1.0000
  H   H13       1.0  0.58845  0.91326  0.26611  1.0000
  H   H14       1.0  0.41157  0.08673  0.73389  1.0000
  H   H15       1.0  0.15712  0.85001  0.52173  1.0000
  H   H16       1.0  0.84290  0.14999  0.47826  1.0000
  H   H17       1.0  0.46772  0.79760  0.60055  1.0000
  H   H18       1.0  0.53229  0.20240  0.39945  1.0000
  H   H19       1.0  0.73634  0.38661  0.90026  1.0000
  H   H20       1.0  0.26361  0.61340  0.09975  1.0000
  H   H21       1.0  0.84056  0.63527  0.85030  1.0000
  H   H22       1.0  0.15937  0.36474  0.14971  1.0000
  H   H23       1.0  0.82480  0.74948  0.99393  1.0000
  H   H24       1.0  0.17516  0.25054  0.00607  1.0000
  H   H25       1.0  0.70756  0.61367  0.18061  1.0000
  H   H26       1.0  0.29245  0.38632  0.81938  1.0000
  H   H27       1.0  0.56204  0.20094  0.03590  1.0000
  H   H28       1.0  0.43794  0.79907  0.96411  1.0000
  H   H29       1.0  0.50485  0.20788  0.16931  1.0000
  H   H30       1.0  0.49515  0.79211  0.83069  1.0000
  H   H31       1.0  0.87903  0.21050  0.21528  1.0000
  H   H32       1.0  0.12097  0.78951  0.78471  1.0000
  H   H33       1.0  0.00180  0.83045  0.13066  1.0000
  H   H34       1.0  0.99821  0.16957  0.86932  1.0000
  H   H35       1.0  0.71040  0.96966  0.04608  1.0000
  H   H36       1.0  0.28961  0.03035  0.95391  1.0000
  C   C1        1.0  0.86367  0.72357  0.39902  1.0000
  C   C2        1.0  0.13633  0.27642  0.60098  1.0000
  C   C3        1.0  0.78124  0.60197  0.40529  1.0000
  C   C4        1.0  0.21877  0.39802  0.59472  1.0000
  C   C5        1.0  0.88259  0.49203  0.37431  1.0000
  C   C6        1.0  0.11742  0.50797  0.62569  1.0000
  C   C7        1.0  0.06320  0.50562  0.34013  1.0000
  C   C8        1.0  0.93681  0.49437  0.65988  1.0000
  C   C9        1.0  0.13435  0.63082  0.33516  1.0000
  C   C10       1.0  0.86565  0.36917  0.66485  1.0000
  C   C11       1.0  0.76733  0.84437  0.43627  1.0000
  C   C12       1.0  0.23267  0.15562  0.56373  1.0000
  C   C13       1.0  0.51194  0.89208  0.34566  1.0000
  C   C14       1.0  0.48807  0.10792  0.65434  1.0000
  C   C15       1.0  0.29274  0.85441  0.48032  1.0000
  C   C16       1.0  0.70727  0.14559  0.51967  1.0000
  C   C17       1.0  0.44434  0.82958  0.52044  1.0000
  C   C18       1.0  0.55567  0.17042  0.47956  1.0000
  C   C19       1.0  0.67144  0.37271  0.06618  1.0000
  C   C20       1.0  0.32855  0.62728  0.93383  1.0000
  C   C21       1.0  0.73488  0.44072  0.95982  1.0000
  C   C22       1.0  0.26509  0.55928  0.04019  1.0000
  C   C23       1.0  0.79234  0.57778  0.93250  1.0000
  C   C24       1.0  0.20760  0.42223  0.06751  1.0000
  C   C25       1.0  0.78343  0.64176  0.01238  1.0000
  C   C26       1.0  0.21654  0.35825  0.98762  1.0000
  C   C27       1.0  0.71810  0.56582  0.11641  1.0000
  C   C28       1.0  0.28189  0.43417  0.88360  1.0000
  C   C29       1.0  0.61054  0.22351  0.09927  1.0000
  C   C30       1.0  0.38946  0.77648  0.90074  1.0000
  C   C31       1.0  0.87431  0.12513  0.18156  1.0000
  C   C32       1.0  0.12570  0.87487  0.81844  1.0000
  C   C33       1.0  0.93048  0.92808  0.13716  1.0000
  C   C34       1.0  0.06953  0.07194  0.86282  1.0000
  C   C35       1.0  0.78860  0.99496  0.09478  1.0000
  C   C36       1.0  0.21140  0.00505  0.90521  1.0000
  N   N1        1.0  0.03676  0.73874  0.36223  1.0000
  N   N2        1.0  0.96324  0.26126  0.63778  1.0000
  N   N3        1.0  0.58122  0.85481  0.43429  1.0000
  N   N4        1.0  0.41879  0.14519  0.56571  1.0000
  N   N5        1.0  0.33775  0.89270  0.37155  1.0000
  N   N6        1.0  0.66226  0.10730  0.62845  1.0000
  N   N7        1.0  0.66328  0.43344  0.14397  1.0000
  N   N8        1.0  0.33672  0.56656  0.85603  1.0000
  N   N9        1.0  0.75541  0.11913  0.12345  1.0000
  N   N10       1.0  0.24460  0.88087  0.87654  1.0000
  N   N11       1.0  0.98281  0.01030  0.19085  1.0000
  N   N12       1.0  0.01720  0.98970  0.80914  1.0000
  Cl  Cl1       1.0  0.11385  0.16149  0.32972  1.0000
  Cl  Cl2       1.0  0.88616  0.83851  0.67028  1.0000
  Cl  Cl3       1.0  0.36606  0.88149  0.14091  1.0000
  Cl  Cl4       1.0  0.63395  0.11850  0.85909  1.0000
