data_image0
_chemical_formula_structural       Ni4H40C40N8Cl8
_chemical_formula_sum              "Ni4 H40 C40 N8 Cl8"
_cell_length_a       3.60218
_cell_length_b       17.035
_cell_length_c       18.8719
_cell_angle_alpha    116.528
_cell_angle_beta     90.0003
_cell_angle_gamma    90.0003

_space_group_name_H-M_alt    "P 1"
_space_group_IT_number       1

loop_
  _space_group_symop_operation_xyz
  'x, y, z'

loop_
  _atom_site_type_symbol
  _atom_site_label
  _atom_site_symmetry_multiplicity
  _atom_site_fract_x
  _atom_site_fract_y
  _atom_site_fract_z
  _atom_site_occupancy
  Ni  Ni1       1.0  0.43202  0.75000  1.00000  1.0000
  Ni  Ni2       1.0  0.56798  0.25000  1.00000  1.0000
  Ni  Ni3       1.0  0.83557  0.25000  0.50000  1.0000
  Ni  Ni4       1.0  0.16445  0.75000  0.50000  1.0000
  H   H1        1.0  0.58306  0.85168  0.17211  1.0000
  H   H2        1.0  0.58306  0.64832  0.82789  1.0000
  H   H3        1.0  0.41693  0.14832  0.82789  1.0000
  H   H4        1.0  0.41694  0.35168  0.17211  1.0000
  H   H5        1.0  0.27446  0.92243  0.99823  1.0000
  H   H6        1.0  0.27445  0.57757  0.00177  1.0000
  H   H7        1.0  0.72555  0.07757  0.00177  1.0000
  H   H8        1.0  0.72556  0.42243  0.99823  1.0000
  H   H9        1.0  0.57484  0.00883  0.27711  1.0000
  H   H10       1.0  0.57485  0.49116  0.72289  1.0000
  H   H11       1.0  0.42515  0.99117  0.72289  1.0000
  H   H12       1.0  0.42516  0.50883  0.27710  1.0000
  H   H13       1.0  0.25169  0.08217  0.09471  1.0000
  H   H14       1.0  0.25168  0.41783  0.90530  1.0000
  H   H15       1.0  0.74833  0.91783  0.90529  1.0000
  H   H16       1.0  0.74832  0.58217  0.09471  1.0000
  H   H17       1.0  0.40623  0.12594  0.23740  1.0000
  H   H18       1.0  0.40624  0.37406  0.76261  1.0000
  H   H19       1.0  0.59377  0.87406  0.76260  1.0000
  H   H20       1.0  0.59377  0.62594  0.23739  1.0000
  H   H21       1.0  0.76111  0.07421  0.49758  1.0000
  H   H22       1.0  0.76111  0.42580  0.50242  1.0000
  H   H23       1.0  0.23890  0.92580  0.50243  1.0000
  H   H24       1.0  0.23891  0.57420  0.49757  1.0000
  H   H25       1.0  0.91098  0.32588  0.67364  1.0000
  H   H26       1.0  0.91098  0.17413  0.32636  1.0000
  H   H27       1.0  0.08903  0.67413  0.32637  1.0000
  H   H28       1.0  0.08903  0.82587  0.67363  1.0000
  H   H29       1.0  0.80236  0.01027  0.59433  1.0000
  H   H30       1.0  0.80234  0.48973  0.40567  1.0000
  H   H31       1.0  0.19764  0.98974  0.40568  1.0000
  H   H32       1.0  0.19764  0.51026  0.59432  1.0000
  H   H33       1.0  0.95899  0.27322  0.77906  1.0000
  H   H34       1.0  0.95898  0.22678  0.22095  1.0000
  H   H35       1.0  0.04100  0.72679  0.22095  1.0000
  H   H36       1.0  0.04097  0.77321  0.77905  1.0000
  H   H37       1.0  0.91676  0.11244  0.73768  1.0000
  H   H38       1.0  0.91674  0.38757  0.26232  1.0000
  H   H39       1.0  0.08322  0.88757  0.26233  1.0000
  H   H40       1.0  0.08320  0.61243  0.73767  1.0000
  C   C1        1.0  0.51183  0.90529  0.15815  1.0000
  C   C2        1.0  0.51183  0.59471  0.84185  1.0000
  C   C3        1.0  0.48818  0.09471  0.84185  1.0000
  C   C4        1.0  0.48818  0.40529  0.15815  1.0000
  C   C5        1.0  0.34119  0.94481  0.06050  1.0000
  C   C6        1.0  0.34118  0.55519  0.93950  1.0000
  C   C7        1.0  0.65883  0.05519  0.93949  1.0000
  C   C8        1.0  0.65883  0.44481  0.06050  1.0000
  C   C9        1.0  0.50876  0.99225  0.21565  1.0000
  C   C10       1.0  0.50876  0.50774  0.78435  1.0000
  C   C11       1.0  0.49124  0.00775  0.78434  1.0000
  C   C12       1.0  0.49124  0.49225  0.21565  1.0000
  C   C13       1.0  0.32825  0.03321  0.11451  1.0000
  C   C14       1.0  0.32824  0.46679  0.88549  1.0000
  C   C15       1.0  0.67175  0.96679  0.88549  1.0000
  C   C16       1.0  0.67175  0.53321  0.11451  1.0000
  C   C17       1.0  0.41358  0.05745  0.19354  1.0000
  C   C18       1.0  0.41358  0.44255  0.80646  1.0000
  C   C19       1.0  0.58642  0.94255  0.80646  1.0000
  C   C20       1.0  0.58642  0.55745  0.19354  1.0000
  C   C21       1.0  0.80824  0.11551  0.56042  1.0000
  C   C22       1.0  0.80823  0.38449  0.43958  1.0000
  C   C23       1.0  0.19177  0.88449  0.43959  1.0000
  C   C24       1.0  0.19177  0.61551  0.56041  1.0000
  C   C25       1.0  0.89008  0.25667  0.65934  1.0000
  C   C26       1.0  0.89009  0.24333  0.34067  1.0000
  C   C27       1.0  0.10992  0.74334  0.34067  1.0000
  C   C28       1.0  0.10992  0.75666  0.65933  1.0000
  C   C29       1.0  0.83213  0.08073  0.61440  1.0000
  C   C30       1.0  0.83211  0.41927  0.38560  1.0000
  C   C31       1.0  0.16785  0.91927  0.38560  1.0000
  C   C32       1.0  0.16785  0.58072  0.61440  1.0000
  C   C33       1.0  0.91866  0.22717  0.71698  1.0000
  C   C34       1.0  0.91865  0.27284  0.28303  1.0000
  C   C35       1.0  0.08132  0.77284  0.28304  1.0000
  C   C36       1.0  0.08133  0.72716  0.71696  1.0000
  C   C37       1.0  0.89276  0.13748  0.69397  1.0000
  C   C38       1.0  0.89275  0.36252  0.30604  1.0000
  C   C39       1.0  0.10723  0.86253  0.30604  1.0000
  C   C40       1.0  0.10721  0.63747  0.69396  1.0000
  N   N1        1.0  0.42985  0.88140  0.08164  1.0000
  N   N2        1.0  0.42984  0.61860  0.91836  1.0000
  N   N3        1.0  0.57016  0.11860  0.91836  1.0000
  N   N4        1.0  0.57016  0.38140  0.08163  1.0000
  N   N5        1.0  0.84001  0.20195  0.58214  1.0000
  N   N6        1.0  0.84001  0.29805  0.41787  1.0000
  N   N7        1.0  0.16000  0.79805  0.41787  1.0000
  N   N8        1.0  0.16000  0.70195  0.58213  1.0000
  Cl  Cl1       1.0  0.93250  0.77824  0.92659  1.0000
  Cl  Cl2       1.0  0.93250  0.72176  0.07341  1.0000
  Cl  Cl3       1.0  0.06752  0.22176  0.07342  1.0000
  Cl  Cl4       1.0  0.06752  0.27823  0.92658  1.0000
  Cl  Cl5       1.0  0.33958  0.14822  0.42729  1.0000
  Cl  Cl6       1.0  0.33959  0.35178  0.57271  1.0000
  Cl  Cl7       1.0  0.66045  0.85178  0.57271  1.0000
  Cl  Cl8       1.0  0.66044  0.64822  0.42729  1.0000
