data_image0
_chemical_formula_structural       Cd4H20C20I8N4O4
_chemical_formula_sum              "Cd4 H20 C20 I8 N4 O4"
_cell_length_a       6.91316
_cell_length_b       10.9883
_cell_length_c       13.4017
_cell_angle_alpha    107.474
_cell_angle_beta     89.9863
_cell_angle_gamma    90.0112

_space_group_name_H-M_alt    "P 1"
_space_group_IT_number       1

loop_
  _space_group_symop_operation_xyz
  'x, y, z'

loop_
  _atom_site_type_symbol
  _atom_site_label
  _atom_site_symmetry_multiplicity
  _atom_site_fract_x
  _atom_site_fract_y
  _atom_site_fract_z
  _atom_site_occupancy
  Cd  Cd1       1.0  0.24505  0.07788  0.05342  1.0000
  Cd  Cd2       1.0  0.74505  0.92218  0.44660  1.0000
  Cd  Cd3       1.0  0.75498  0.92211  0.94656  1.0000
  Cd  Cd4       1.0  0.25498  0.07782  0.55338  1.0000
  H   H1        1.0  0.49791  0.19584  0.83049  1.0000
  H   H2        1.0  0.99784  0.80420  0.66950  1.0000
  H   H3        1.0  0.50205  0.80414  0.16950  1.0000
  H   H4        1.0  0.00215  0.19581  0.33050  1.0000
  H   H5        1.0  0.61099  0.41454  0.83010  1.0000
  H   H6        1.0  0.11102  0.58547  0.66985  1.0000
  H   H7        1.0  0.38901  0.58546  0.16992  1.0000
  H   H8        1.0  0.88897  0.41455  0.33016  1.0000
  H   H9        1.0  0.80533  0.54631  0.98195  1.0000
  H   H10       1.0  0.30540  0.45355  0.51809  1.0000
  H   H11       1.0  0.19468  0.45370  0.01807  1.0000
  H   H12       1.0  0.69459  0.54646  0.48193  1.0000
  H   H13       1.0  0.88428  0.45345  0.12829  1.0000
  H   H14       1.0  0.38422  0.54648  0.37181  1.0000
  H   H15       1.0  0.11576  0.54655  0.87173  1.0000
  H   H16       1.0  0.61579  0.45350  0.62819  1.0000
  H   H17       1.0  0.75725  0.23379  0.11668  1.0000
  H   H18       1.0  0.25725  0.76614  0.38333  1.0000
  H   H19       1.0  0.24276  0.76619  0.88331  1.0000
  H   H20       1.0  0.74276  0.23384  0.61664  1.0000
  C   C1        1.0  0.58350  0.25871  0.89306  1.0000
  C   C2        1.0  0.08350  0.74132  0.60694  1.0000
  C   C3        1.0  0.41648  0.74127  0.10693  1.0000
  C   C4        1.0  0.91649  0.25871  0.39305  1.0000
  C   C5        1.0  0.64880  0.37834  0.89482  1.0000
  C   C6        1.0  0.14876  0.62168  0.60516  1.0000
  C   C7        1.0  0.35120  0.62167  0.10521  1.0000
  C   C8        1.0  0.85122  0.37835  0.39485  1.0000
  C   C9        1.0  0.75683  0.45117  0.97966  1.0000
  C   C10       1.0  0.25682  0.54872  0.52038  1.0000
  C   C11       1.0  0.24319  0.54885  0.02035  1.0000
  C   C12       1.0  0.74320  0.45128  0.47963  1.0000
  C   C13       1.0  0.79950  0.40047  0.06076  1.0000
  C   C14       1.0  0.29944  0.59952  0.43930  1.0000
  C   C15       1.0  0.20056  0.59953  0.93924  1.0000
  C   C16       1.0  0.70057  0.40048  0.56069  1.0000
  C   C17       1.0  0.73175  0.28050  0.05694  1.0000
  C   C18       1.0  0.23183  0.71949  0.44310  1.0000
  C   C19       1.0  0.26819  0.71950  0.94305  1.0000
  C   C20       1.0  0.76818  0.28051  0.55690  1.0000
  I   I1        1.0  0.94156  0.95261  0.14242  1.0000
  I   I2        1.0  0.44149  0.04740  0.35758  1.0000
  I   I3        1.0  0.05848  0.04736  0.85757  1.0000
  I   I4        1.0  0.55851  0.95261  0.64241  1.0000
  I   I5        1.0  0.27675  0.31723  0.19499  1.0000
  I   I6        1.0  0.77675  0.68273  0.30500  1.0000
  I   I7        1.0  0.72323  0.68278  0.80504  1.0000
  I   I8        1.0  0.22323  0.31726  0.69500  1.0000
  N   N1        1.0  0.62515  0.21265  0.97382  1.0000
  N   N2        1.0  0.12517  0.78737  0.52619  1.0000
  N   N3        1.0  0.37483  0.78732  0.02617  1.0000
  N   N4        1.0  0.87485  0.21263  0.47381  1.0000
  O   O1        1.0  0.55637  0.09800  0.97113  1.0000
  O   O2        1.0  0.05633  0.90201  0.52885  1.0000
  O   O3        1.0  0.44360  0.90200  0.02887  1.0000
  O   O4        1.0  0.94364  0.09802  0.47113  1.0000
