data_image0
_chemical_formula_structural       Hg2H10C10N2Cl4O2
_chemical_formula_sum              "Hg2 H10 C10 N2 Cl4 O2"
_cell_length_a       6.56086
_cell_length_b       7.2322
_cell_length_c       10.1008
_cell_angle_alpha    75.5134
_cell_angle_beta     73.0487
_cell_angle_gamma    63.4319

_space_group_name_H-M_alt    "P 1"
_space_group_IT_number       1

loop_
  _space_group_symop_operation_xyz
  'x, y, z'

loop_
  _atom_site_type_symbol
  _atom_site_label
  _atom_site_symmetry_multiplicity
  _atom_site_fract_x
  _atom_site_fract_y
  _atom_site_fract_z
  _atom_site_occupancy
  Hg  Hg1       1.0  0.66658  0.18252  0.98157  1.0000
  Hg  Hg2       1.0  0.33341  0.81748  0.01842  1.0000
  H   H1        1.0  0.96555  0.41673  0.13326  1.0000
  H   H2        1.0  0.03444  0.58329  0.86675  1.0000
  H   H3        1.0  0.00495  0.23108  0.37563  1.0000
  H   H4        1.0  0.99508  0.76894  0.62436  1.0000
  H   H5        1.0  0.77549  0.42986  0.58049  1.0000
  H   H6        1.0  0.22455  0.57013  0.41949  1.0000
  H   H7        1.0  0.51689  0.81018  0.53187  1.0000
  H   H8        1.0  0.48315  0.18979  0.46813  1.0000
  H   H9        1.0  0.49787  0.97460  0.28073  1.0000
  H   H10       1.0  0.50214  0.02537  0.71928  1.0000
  C   C1        1.0  0.87181  0.49376  0.22593  1.0000
  C   C2        1.0  0.12817  0.50625  0.77408  1.0000
  C   C3        1.0  0.89045  0.39601  0.36117  1.0000
  C   C4        1.0  0.10957  0.60400  0.63883  1.0000
  C   C5        1.0  0.76358  0.50686  0.47391  1.0000
  C   C6        1.0  0.23643  0.49315  0.52608  1.0000
  C   C7        1.0  0.61984  0.71775  0.44686  1.0000
  C   C8        1.0  0.38016  0.28223  0.55314  1.0000
  C   C9        1.0  0.60432  0.81147  0.31085  1.0000
  C   C10       1.0  0.39568  0.18852  0.68916  1.0000
  N   N1        1.0  0.72922  0.69914  0.20259  1.0000
  N   N2        1.0  0.27076  0.30086  0.79742  1.0000
  Cl  Cl1       1.0  0.46543  0.34917  0.18278  1.0000
  Cl  Cl2       1.0  0.53457  0.65084  0.81721  1.0000
  Cl  Cl3       1.0  0.92292  0.06685  0.77282  1.0000
  Cl  Cl4       1.0  0.07706  0.93316  0.22717  1.0000
  O   O1        1.0  0.71124  0.78965  0.07181  1.0000
  O   O2        1.0  0.28871  0.21037  0.92820  1.0000
