data_image0
_chemical_formula_structural       Co2H20C20N4Cl4
_chemical_formula_sum              "Co2 H20 C20 N4 Cl4"
_cell_length_a       3.58392
_cell_length_b       8.3773
_cell_length_c       17.28
_cell_angle_alpha    89.9643
_cell_angle_beta     91.2212
_cell_angle_gamma    89.929

_space_group_name_H-M_alt    "P 1"
_space_group_IT_number       1

loop_
  _space_group_symop_operation_xyz
  'x, y, z'

loop_
  _atom_site_type_symbol
  _atom_site_label
  _atom_site_symmetry_multiplicity
  _atom_site_fract_x
  _atom_site_fract_y
  _atom_site_fract_z
  _atom_site_occupancy
  Co  Co1       1.0  1.00000  1.00000  1.00000  1.0000
  Co  Co2       1.0  0.49999  0.50000  0.50000  1.0000
  H   H1        1.0  0.17274  0.64287  0.00607  1.0000
  H   H2        1.0  0.32680  0.14227  0.49387  1.0000
  H   H3        1.0  0.82724  0.35712  0.99393  1.0000
  H   H4        1.0  0.67317  0.85774  0.50613  1.0000
  H   H5        1.0  0.21510  0.42344  0.10459  1.0000
  H   H6        1.0  0.28499  0.92357  0.39509  1.0000
  H   H7        1.0  0.78487  0.57656  0.89541  1.0000
  H   H8        1.0  0.71500  0.07643  0.60491  1.0000
  H   H9        1.0  0.07707  0.48904  0.24313  1.0000
  H   H10       1.0  0.42422  0.98995  0.25666  1.0000
  H   H11       1.0  0.92293  0.51095  0.75687  1.0000
  H   H12       1.0  0.57581  0.01005  0.74334  1.0000
  H   H13       1.0  0.90020  0.76904  0.27654  1.0000
  H   H14       1.0  0.60213  0.26999  0.22368  1.0000
  H   H15       1.0  0.09983  0.23096  0.72346  1.0000
  H   H16       1.0  0.39789  0.73001  0.77632  1.0000
  H   H17       1.0  0.87462  0.97453  0.16984  1.0000
  H   H18       1.0  0.62751  0.47462  0.33057  1.0000
  H   H19       1.0  0.12541  0.02547  0.83016  1.0000
  H   H20       1.0  0.37249  0.52539  0.66943  1.0000
  C   C1        1.0  0.11129  0.66478  0.06655  1.0000
  C   C2        1.0  0.38890  0.16452  0.43345  1.0000
  C   C3        1.0  0.88869  0.33522  0.93345  1.0000
  C   C4        1.0  0.61106  0.83549  0.56655  1.0000
  C   C5        1.0  0.13488  0.54381  0.12169  1.0000
  C   C6        1.0  0.36577  0.04395  0.37817  1.0000
  C   C7        1.0  0.86511  0.45619  0.87830  1.0000
  C   C8        1.0  0.63422  0.95605  0.62183  1.0000
  C   C9        1.0  0.05844  0.58037  0.19835  1.0000
  C   C10       1.0  0.44269  0.08094  0.30155  1.0000
  C   C11       1.0  0.94156  0.41963  0.80165  1.0000
  C   C12       1.0  0.55732  0.91906  0.69846  1.0000
  C   C13       1.0  0.96122  0.73652  0.21703  1.0000
  C   C14       1.0  0.54059  0.23702  0.28309  1.0000
  C   C15       1.0  0.03880  0.26349  0.78297  1.0000
  C   C16       1.0  0.45944  0.76298  0.71691  1.0000
  C   C17       1.0  0.94664  0.85055  0.15852  1.0000
  C   C18       1.0  0.55493  0.35066  0.34173  1.0000
  C   C19       1.0  0.05337  0.14945  0.84148  1.0000
  C   C20       1.0  0.44507  0.64934  0.65827  1.0000
  N   N1        1.0  0.01977  0.81629  0.08418  1.0000
  N   N2        1.0  0.48108  0.31601  0.41600  1.0000
  N   N3        1.0  0.98023  0.18372  0.91582  1.0000
  N   N4        1.0  0.51891  0.68399  0.58400  1.0000
  Cl  Cl1       1.0  0.50810  0.85974  0.92914  1.0000
  Cl  Cl2       1.0  0.99255  0.35965  0.57090  1.0000
  Cl  Cl3       1.0  0.49190  0.14026  0.07086  1.0000
  Cl  Cl4       1.0  0.00744  0.64035  0.42910  1.0000
