data_image0
_chemical_formula_structural       Cd4H40C32N4Cl8O12
_chemical_formula_sum              "Cd4 H40 C32 N4 Cl8 O12"
_cell_length_a       7.38495
_cell_length_b       9.10254
_cell_length_c       16.3491
_cell_angle_alpha    99.3382
_cell_angle_beta     89.9312
_cell_angle_gamma    90.0358

_space_group_name_H-M_alt    "P 1"
_space_group_IT_number       1

loop_
  _space_group_symop_operation_xyz
  'x, y, z'

loop_
  _atom_site_type_symbol
  _atom_site_label
  _atom_site_symmetry_multiplicity
  _atom_site_fract_x
  _atom_site_fract_y
  _atom_site_fract_z
  _atom_site_occupancy
  Cd  Cd1       1.0  0.44508  0.73391  0.72418  1.0000
  Cd  Cd2       1.0  0.95697  0.72150  0.74142  1.0000
  Cd  Cd3       1.0  0.54178  0.22074  0.24131  1.0000
  Cd  Cd4       1.0  0.05368  0.23338  0.22462  1.0000
  H   H1        1.0  0.14928  0.31085  0.97571  1.0000
  H   H2        1.0  0.83479  0.20892  0.55147  1.0000
  H   H3        1.0  0.66511  0.70913  0.05243  1.0000
  H   H4        1.0  0.35113  0.81062  0.47561  1.0000
  H   H5        1.0  0.08090  0.22171  0.84187  1.0000
  H   H6        1.0  0.71796  0.27504  0.68053  1.0000
  H   H7        1.0  0.78337  0.77410  0.18152  1.0000
  H   H8        1.0  0.41699  0.72102  0.34142  1.0000
  H   H9        1.0  0.98445  0.36315  0.79014  1.0000
  H   H10       1.0  0.56045  0.14758  0.71420  1.0000
  H   H11       1.0  0.93908  0.64545  0.21514  1.0000
  H   H12       1.0  0.51329  0.86218  0.28928  1.0000
  H   H13       1.0  0.21078  0.30522  0.77025  1.0000
  H   H14       1.0  0.78763  0.14381  0.74511  1.0000
  H   H15       1.0  0.71137  0.64260  0.24560  1.0000
  H   H16       1.0  0.28648  0.80486  0.27035  1.0000
  H   H17       1.0  0.00409  0.98302  0.98481  1.0000
  H   H18       1.0  0.69346  0.59466  0.58879  1.0000
  H   H19       1.0  0.80653  0.09410  0.08838  1.0000
  H   H20       1.0  0.49756  0.48068  0.48443  1.0000
  H   H21       1.0  0.32439  0.93127  0.97981  1.0000
  H   H22       1.0  0.83209  0.56395  0.49913  1.0000
  H   H23       1.0  0.66778  0.06379  0.99888  1.0000
  H   H24       1.0  0.17855  0.43142  0.47920  1.0000
  H   H25       1.0  0.52134  0.98377  0.09700  1.0000
  H   H26       1.0  0.04052  0.57235  0.38162  1.0000
  H   H27       1.0  0.45895  0.07379  0.88118  1.0000
  H   H28       1.0  0.97980  0.48466  0.59663  1.0000
  H   H29       1.0  0.26031  0.85080  0.10975  1.0000
  H   H30       1.0  0.76866  0.65409  0.38692  1.0000
  H   H31       1.0  0.73156  0.15413  0.88696  1.0000
  H   H32       1.0  0.24020  0.35028  0.61015  1.0000
  H   H33       1.0  0.38509  0.70427  0.14298  1.0000
  H   H34       1.0  0.85944  0.80971  0.34775  1.0000
  H   H35       1.0  0.64277  0.31040  0.84788  1.0000
  H   H36       1.0  0.11260  0.20440  0.64277  1.0000
  H   H37       1.0  0.23644  0.47558  0.08947  1.0000
  H   H38       1.0  0.85175  0.04623  0.42307  1.0000
  H   H39       1.0  0.64952  0.54680  0.92366  1.0000
  H   H40       1.0  0.26525  0.97556  0.58960  1.0000
  C   C1        1.0  0.17068  0.44454  0.88593  1.0000
  C   C2        1.0  0.74255  0.04833  0.61990  1.0000
  C   C3        1.0  0.75771  0.54773  0.12034  1.0000
  C   C4        1.0  0.32861  0.94409  0.38581  1.0000
  C   C5        1.0  0.10735  0.32628  0.81895  1.0000
  C   C6        1.0  0.70031  0.16150  0.69337  1.0000
  C   C7        1.0  0.79973  0.66029  0.19409  1.0000
  C   C8        1.0  0.39069  0.82565  0.31860  1.0000
  C   C9        1.0  0.22908  0.58690  0.86916  1.0000
  C   C10       1.0  0.74624  0.89456  0.62482  1.0000
  C   C11       1.0  0.75370  0.39391  0.12500  1.0000
  C   C12       1.0  0.27024  0.08645  0.36919  1.0000
  C   C13       1.0  0.23207  0.51560  0.03020  1.0000
  C   C14       1.0  0.82267  0.99741  0.47819  1.0000
  C   C15       1.0  0.67840  0.49765  0.97865  1.0000
  C   C16       1.0  0.26905  0.01547  0.53030  1.0000
  C   C17       1.0  0.29506  0.69015  0.93753  1.0000
  C   C18       1.0  0.79843  0.79278  0.55378  1.0000
  C   C19       1.0  0.70182  0.29247  0.05382  1.0000
  C   C20       1.0  0.20492  0.18975  0.43769  1.0000
  C   C21       1.0  0.36249  0.84040  0.92965  1.0000
  C   C22       1.0  0.81698  0.63134  0.56057  1.0000
  C   C23       1.0  0.68296  0.13092  0.06038  1.0000
  C   C24       1.0  0.13738  0.34006  0.42995  1.0000
  C   C25       1.0  0.29030  0.65454  0.01839  1.0000
  C   C26       1.0  0.82862  0.84517  0.47856  1.0000
  C   C27       1.0  0.67220  0.34531  0.97872  1.0000
  C   C28       1.0  0.21040  0.15425  0.51853  1.0000
  C   C29       1.0  0.36422  0.76421  0.09003  1.0000
  C   C30       1.0  0.87058  0.74358  0.39822  1.0000
  C   C31       1.0  0.63040  0.24414  0.89825  1.0000
  C   C32       1.0  0.13593  0.26421  0.58993  1.0000
  N   N1        1.0  0.17710  0.41692  0.96402  1.0000
  N   N2        1.0  0.78535  0.09350  0.54792  1.0000
  N   N3        1.0  0.71543  0.59345  0.04852  1.0000
  N   N4        1.0  0.32324  0.91667  0.46398  1.0000
  Cl  Cl1       1.0  0.37515  0.63644  0.56593  1.0000
  Cl  Cl2       1.0  0.91784  0.87827  0.92981  1.0000
  Cl  Cl3       1.0  0.58432  0.37591  0.42994  1.0000
  Cl  Cl4       1.0  0.12537  0.13690  0.06608  1.0000
  Cl  Cl5       1.0  0.18105  0.93161  0.72859  1.0000
  Cl  Cl6       1.0  0.69057  0.55979  0.77568  1.0000
  Cl  Cl7       1.0  0.80787  0.05864  0.27545  1.0000
  Cl  Cl8       1.0  0.31785  0.43107  0.22893  1.0000
  O   O1        1.0  0.21530  0.61355  0.79259  1.0000
  O   O2        1.0  0.70978  0.85231  0.69739  1.0000
  O   O3        1.0  0.78950  0.35128  0.19751  1.0000
  O   O4        1.0  0.28331  0.11298  0.29251  1.0000
  O   O5        1.0  0.44694  0.87201  0.86888  1.0000
  O   O6        1.0  0.97112  0.60385  0.60941  1.0000
  O   O7        1.0  0.52891  0.10313  0.10935  1.0000
  O   O8        1.0  0.05100  0.37106  0.36963  1.0000
  O   O9        1.0  0.52474  0.83026  0.06664  1.0000
  O   O10       1.0  0.04842  0.68148  0.39819  1.0000
  O   O11       1.0  0.45192  0.18289  0.89794  1.0000
  O   O12       1.0  0.97692  0.33093  0.56562  1.0000
