data_image0
_chemical_formula_structural       Cu2H16C12N2O8
_chemical_formula_sum              "Cu2 H16 C12 N2 O8"
_cell_length_a       7.33112
_cell_length_b       7.95565
_cell_length_c       8.05249
_cell_angle_alpha    60.3968
_cell_angle_beta     84.2615
_cell_angle_gamma    78.3223

_space_group_name_H-M_alt    "P 1"
_space_group_IT_number       1

loop_
  _space_group_symop_operation_xyz
  'x, y, z'

loop_
  _atom_site_type_symbol
  _atom_site_label
  _atom_site_symmetry_multiplicity
  _atom_site_fract_x
  _atom_site_fract_y
  _atom_site_fract_z
  _atom_site_occupancy
  Cu  Cu1       1.0  0.12717  0.86218  1.00000  1.0000
  Cu  Cu2       1.0  0.87281  0.13783  1.00000  1.0000
  H   H1        1.0  0.17858  0.46179  0.00000  1.0000
  H   H2        1.0  0.82143  0.53821  0.00000  1.0000
  H   H3        1.0  0.45104  0.20633  1.00000  1.0000
  H   H4        1.0  0.54897  0.79367  0.00000  1.0000
  H   H5        1.0  0.22120  0.88548  0.55790  1.0000
  H   H6        1.0  0.77880  0.55663  0.55791  1.0000
  H   H7        1.0  0.77880  0.11453  0.44210  1.0000
  H   H8        1.0  0.22120  0.44338  0.44210  1.0000
  H   H9        1.0  0.24410  0.13423  0.41853  1.0000
  H   H10       1.0  0.75589  0.44724  0.41855  1.0000
  H   H11       1.0  0.75589  0.86578  0.58146  1.0000
  H   H12       1.0  0.24411  0.55276  0.58146  1.0000
  H   H13       1.0  0.42451  0.94608  0.41221  1.0000
  H   H14       1.0  0.57548  0.64172  0.41221  1.0000
  H   H15       1.0  0.57548  0.05393  0.58779  1.0000
  H   H16       1.0  0.42451  0.35828  0.58779  1.0000
  C   C1        1.0  0.32256  0.47855  0.00000  1.0000
  C   C2        1.0  0.67745  0.52144  0.00000  1.0000
  C   C3        1.0  0.47149  0.33840  1.00000  1.0000
  C   C4        1.0  0.52853  0.66159  0.00000  1.0000
  C   C5        1.0  0.17439  0.00118  0.26130  1.0000
  C   C6        1.0  0.82561  0.73753  0.26130  1.0000
  C   C7        1.0  0.82561  0.99882  0.73870  1.0000
  C   C8        1.0  0.17438  0.26248  0.73870  1.0000
  C   C9        1.0  0.27446  0.99247  0.42130  1.0000
  C   C10       1.0  0.72554  0.58623  0.42131  1.0000
  C   C11       1.0  0.72554  0.00754  0.57869  1.0000
  C   C12       1.0  0.27446  0.41377  0.57870  1.0000
  N   N1        1.0  0.35182  0.63966  0.00000  1.0000
  N   N2        1.0  0.64818  0.36034  1.00000  1.0000
  O   O1        1.0  0.24699  0.87970  0.20325  1.0000
  O   O2        1.0  0.75301  0.91704  0.20326  1.0000
  O   O3        1.0  0.75301  0.12030  0.79675  1.0000
  O   O4        1.0  0.24699  0.08294  0.79675  1.0000
  O   O5        1.0  0.02471  0.12699  0.19993  1.0000
  O   O6        1.0  0.97530  0.67308  0.19993  1.0000
  O   O7        1.0  0.97530  0.87301  0.80007  1.0000
  O   O8        1.0  0.02471  0.32693  0.80006  1.0000
