data_image0
_chemical_formula_structural       Zn4H20C20S8N4O16
_chemical_formula_sum              "Zn4 H20 C20 S8 N4 O16"
_cell_length_a       8.42707
_cell_length_b       9.0453
_cell_length_c       11.0569
_cell_angle_alpha    89.9999
_cell_angle_beta     89.9998
_cell_angle_gamma    90

_space_group_name_H-M_alt    "P 1"
_space_group_IT_number       1

loop_
  _space_group_symop_operation_xyz
  'x, y, z'

loop_
  _atom_site_type_symbol
  _atom_site_label
  _atom_site_symmetry_multiplicity
  _atom_site_fract_x
  _atom_site_fract_y
  _atom_site_fract_z
  _atom_site_occupancy
  Zn  Zn1       1.0  0.33271  0.68038  0.75000  1.0000
  Zn  Zn2       1.0  0.16729  0.18038  0.25000  1.0000
  Zn  Zn3       1.0  0.83271  0.81962  0.75000  1.0000
  Zn  Zn4       1.0  0.66729  0.31962  0.25000  1.0000
  H   H1        1.0  0.15902  0.50780  0.93746  1.0000
  H   H2        1.0  0.34098  0.00780  0.06254  1.0000
  H   H3        1.0  0.65902  0.99220  0.56254  1.0000
  H   H4        1.0  0.84098  0.49220  0.43746  1.0000
  H   H5        1.0  0.84098  0.49220  0.06254  1.0000
  H   H6        1.0  0.65902  0.99220  0.93746  1.0000
  H   H7        1.0  0.34098  0.00780  0.43746  1.0000
  H   H8        1.0  0.15902  0.50780  0.56254  1.0000
  H   H9        1.0  0.98383  0.28468  0.94607  1.0000
  H   H10       1.0  0.51617  0.78468  0.05393  1.0000
  H   H11       1.0  0.48383  0.21532  0.55393  1.0000
  H   H12       1.0  0.01617  0.71532  0.44607  1.0000
  H   H13       1.0  0.01617  0.71532  0.05393  1.0000
  H   H14       1.0  0.48383  0.21532  0.94607  1.0000
  H   H15       1.0  0.51617  0.78468  0.44607  1.0000
  H   H16       1.0  0.98383  0.28468  0.55393  1.0000
  H   H17       1.0  0.89080  0.17267  0.75000  1.0000
  H   H18       1.0  0.60919  0.67267  0.25000  1.0000
  H   H19       1.0  0.39081  0.32734  0.75000  1.0000
  H   H20       1.0  0.10920  0.82733  0.25000  1.0000
  C   C1        1.0  0.11443  0.45618  0.85520  1.0000
  C   C2        1.0  0.38556  0.95618  0.14480  1.0000
  C   C3        1.0  0.61444  0.04381  0.64480  1.0000
  C   C4        1.0  0.88556  0.54382  0.35520  1.0000
  C   C5        1.0  0.88556  0.54382  0.14480  1.0000
  C   C6        1.0  0.61443  0.04381  0.85520  1.0000
  C   C7        1.0  0.38556  0.95618  0.35520  1.0000
  C   C8        1.0  0.11444  0.45618  0.64480  1.0000
  C   C9        1.0  0.01651  0.33254  0.85910  1.0000
  C   C10       1.0  0.48348  0.83254  0.14091  1.0000
  C   C11       1.0  0.51652  0.16746  0.64091  1.0000
  C   C12       1.0  0.98349  0.66747  0.35909  1.0000
  C   C13       1.0  0.98348  0.66746  0.14091  1.0000
  C   C14       1.0  0.51651  0.16746  0.85909  1.0000
  C   C15       1.0  0.48348  0.83253  0.35909  1.0000
  C   C16       1.0  0.01652  0.33254  0.64091  1.0000
  C   C17       1.0  0.96628  0.27033  0.75000  1.0000
  C   C18       1.0  0.53372  0.77032  0.25000  1.0000
  C   C19       1.0  0.46628  0.22967  0.75000  1.0000
  C   C20       1.0  0.03372  0.72968  0.25000  1.0000
  S   S1        1.0  0.65485  0.53752  0.86155  1.0000
  S   S2        1.0  0.84515  0.03752  0.13845  1.0000
  S   S3        1.0  0.15485  0.96248  0.63845  1.0000
  S   S4        1.0  0.34515  0.46247  0.36155  1.0000
  S   S5        1.0  0.34515  0.46248  0.13845  1.0000
  S   S6        1.0  0.15485  0.96248  0.86155  1.0000
  S   S7        1.0  0.84515  0.03752  0.36155  1.0000
  S   S8        1.0  0.65485  0.53752  0.63845  1.0000
  N   N1        1.0  0.16247  0.51694  0.75000  1.0000
  N   N2        1.0  0.33753  0.01694  0.25000  1.0000
  N   N3        1.0  0.66246  0.98306  0.75000  1.0000
  N   N4        1.0  0.83753  0.48307  0.25000  1.0000
  O   O1        1.0  0.48479  0.59146  0.87656  1.0000
  O   O2        1.0  0.01522  0.09146  0.12343  1.0000
  O   O3        1.0  0.98478  0.90855  0.62344  1.0000
  O   O4        1.0  0.51521  0.40854  0.37656  1.0000
  O   O5        1.0  0.51522  0.40854  0.12344  1.0000
  O   O6        1.0  0.98478  0.90855  0.87656  1.0000
  O   O7        1.0  0.01522  0.09145  0.37656  1.0000
  O   O8        1.0  0.48479  0.59146  0.62344  1.0000
  O   O9        1.0  0.77142  0.66558  0.87710  1.0000
  O   O10       1.0  0.72858  0.16559  0.12290  1.0000
  O   O11       1.0  0.27142  0.83442  0.62290  1.0000
  O   O12       1.0  0.22858  0.33441  0.37710  1.0000
  O   O13       1.0  0.22858  0.33442  0.12290  1.0000
  O   O14       1.0  0.27142  0.83442  0.87710  1.0000
  O   O15       1.0  0.72858  0.16558  0.37710  1.0000
  O   O16       1.0  0.77142  0.66559  0.62290  1.0000
