data_image0
_chemical_formula_structural       Li4B4H88C32O16
_chemical_formula_sum              "Li4 B4 H88 C32 O16"
_cell_length_a       6.35526
_cell_length_b       12.5966
_cell_length_c       14.745
_cell_angle_alpha    90.0002
_cell_angle_beta     89.9999
_cell_angle_gamma    90.0001

_space_group_name_H-M_alt    "P 1"
_space_group_IT_number       1

loop_
  _space_group_symop_operation_xyz
  'x, y, z'

loop_
  _atom_site_type_symbol
  _atom_site_label
  _atom_site_symmetry_multiplicity
  _atom_site_fract_x
  _atom_site_fract_y
  _atom_site_fract_z
  _atom_site_occupancy
  Li  Li1       1.0  0.50000  0.25000  0.53043  1.0000
  Li  Li2       1.0  1.00000  0.75000  0.96957  1.0000
  Li  Li3       1.0  0.50000  0.75000  0.46957  1.0000
  Li  Li4       1.0  0.00000  0.25000  0.03043  1.0000
  B   B1        1.0  0.50000  0.25000  0.36629  1.0000
  B   B2        1.0  1.00000  0.75000  0.13371  1.0000
  B   B3        1.0  0.50000  0.75000  0.63371  1.0000
  B   B4        1.0  0.00000  0.25000  0.86629  1.0000
  H   H1        1.0  0.21877  0.45434  0.69760  1.0000
  H   H2        1.0  0.28123  0.95434  0.80240  1.0000
  H   H3        1.0  0.71877  0.54566  0.80240  1.0000
  H   H4        1.0  0.78123  0.04566  0.69760  1.0000
  H   H5        1.0  0.78123  0.54566  0.30240  1.0000
  H   H6        1.0  0.71877  0.04566  0.19760  1.0000
  H   H7        1.0  0.28123  0.45434  0.19760  1.0000
  H   H8        1.0  0.21877  0.95434  0.30240  1.0000
  H   H9        1.0  0.34127  0.33902  0.74565  1.0000
  H   H10       1.0  0.15874  0.83902  0.75435  1.0000
  H   H11       1.0  0.84126  0.66098  0.75435  1.0000
  H   H12       1.0  0.65874  0.16098  0.74565  1.0000
  H   H13       1.0  0.65874  0.66098  0.25435  1.0000
  H   H14       1.0  0.84126  0.16098  0.24565  1.0000
  H   H15       1.0  0.15874  0.33902  0.24565  1.0000
  H   H16       1.0  0.34126  0.83902  0.25435  1.0000
  H   H17       1.0  0.14490  0.32317  0.66061  1.0000
  H   H18       1.0  0.35510  0.82317  0.83939  1.0000
  H   H19       1.0  0.64490  0.67683  0.83939  1.0000
  H   H20       1.0  0.85510  0.17683  0.66061  1.0000
  H   H21       1.0  0.85510  0.67683  0.33939  1.0000
  H   H22       1.0  0.64490  0.17683  0.16061  1.0000
  H   H23       1.0  0.35510  0.32317  0.16061  1.0000
  H   H24       1.0  0.14490  0.82317  0.33939  1.0000
  H   H25       1.0  0.09999  0.35925  0.48537  1.0000
  H   H26       1.0  0.40002  0.85925  0.01463  1.0000
  H   H27       1.0  0.59998  0.64075  0.01463  1.0000
  H   H28       1.0  0.90002  0.14075  0.48537  1.0000
  H   H29       1.0  0.90001  0.64075  0.51463  1.0000
  H   H30       1.0  0.59999  0.14075  0.98537  1.0000
  H   H31       1.0  0.40001  0.35924  0.98537  1.0000
  H   H32       1.0  0.09998  0.85925  0.51463  1.0000
  H   H33       1.0  0.89292  0.32620  0.40697  1.0000
  H   H34       1.0  0.60708  0.82620  0.09303  1.0000
  H   H35       1.0  0.39292  0.67380  0.09303  1.0000
  H   H36       1.0  0.10708  0.17379  0.40697  1.0000
  H   H37       1.0  0.10709  0.67380  0.59303  1.0000
  H   H38       1.0  0.39292  0.17379  0.90697  1.0000
  H   H39       1.0  0.60708  0.32620  0.90697  1.0000
  H   H40       1.0  0.89291  0.82620  0.59303  1.0000
  H   H41       1.0  0.70156  0.46926  0.49969  1.0000
  H   H42       1.0  0.79844  0.96927  0.00031  1.0000
  H   H43       1.0  0.20156  0.53073  0.00030  1.0000
  H   H44       1.0  0.29844  0.03073  0.49970  1.0000
  H   H45       1.0  0.29844  0.53074  0.50030  1.0000
  H   H46       1.0  0.20156  0.03073  0.99970  1.0000
  H   H47       1.0  0.79844  0.46927  0.99969  1.0000
  H   H48       1.0  0.70156  0.96927  0.50031  1.0000
  H   H49       1.0  0.91113  0.47294  0.58103  1.0000
  H   H50       1.0  0.58888  0.97294  0.91897  1.0000
  H   H51       1.0  0.41113  0.52705  0.91897  1.0000
  H   H52       1.0  0.08887  0.02705  0.58103  1.0000
  H   H53       1.0  0.08888  0.52705  0.41897  1.0000
  H   H54       1.0  0.41112  0.02705  0.08103  1.0000
  H   H55       1.0  0.58887  0.47294  0.08103  1.0000
  H   H56       1.0  0.91112  0.97295  0.41897  1.0000
  H   H57       1.0  0.67941  0.40018  0.69985  1.0000
  H   H58       1.0  0.82059  0.90018  0.80015  1.0000
  H   H59       1.0  0.17941  0.59982  0.80015  1.0000
  H   H60       1.0  0.32059  0.09982  0.69985  1.0000
  H   H61       1.0  0.32059  0.59982  0.30015  1.0000
  H   H62       1.0  0.17941  0.09982  0.19985  1.0000
  H   H63       1.0  0.82059  0.40018  0.19985  1.0000
  H   H64       1.0  0.67941  0.90018  0.30015  1.0000
  H   H65       1.0  0.56709  0.51907  0.65128  1.0000
  H   H66       1.0  0.93291  0.01907  0.84872  1.0000
  H   H67       1.0  0.06709  0.48093  0.84872  1.0000
  H   H68       1.0  0.43291  0.98093  0.65128  1.0000
  H   H69       1.0  0.43291  0.48093  0.34872  1.0000
  H   H70       1.0  0.06709  0.98093  0.15128  1.0000
  H   H71       1.0  0.93291  0.51907  0.15128  1.0000
  H   H72       1.0  0.56709  0.01907  0.34872  1.0000
  H   H73       1.0  0.41070  0.31639  0.41439  1.0000
  H   H74       1.0  0.08930  0.81639  0.08561  1.0000
  H   H75       1.0  0.91070  0.68362  0.08561  1.0000
  H   H76       1.0  0.58930  0.18361  0.41439  1.0000
  H   H77       1.0  0.58930  0.68362  0.58561  1.0000
  H   H78       1.0  0.91070  0.18362  0.91439  1.0000
  H   H79       1.0  0.08930  0.31639  0.91440  1.0000
  H   H80       1.0  0.41070  0.81639  0.58561  1.0000
  H   H81       1.0  0.36971  0.20443  0.31889  1.0000
  H   H82       1.0  0.13029  0.70443  0.18111  1.0000
  H   H83       1.0  0.86971  0.79558  0.18111  1.0000
  H   H84       1.0  0.63029  0.29557  0.31889  1.0000
  H   H85       1.0  0.63029  0.79558  0.68111  1.0000
  H   H86       1.0  0.86971  0.29558  0.81889  1.0000
  H   H87       1.0  0.13029  0.20443  0.81889  1.0000
  H   H88       1.0  0.36971  0.70443  0.68111  1.0000
  C   C1        1.0  0.27501  0.37335  0.68318  1.0000
  C   C2        1.0  0.22499  0.87335  0.81682  1.0000
  C   C3        1.0  0.77501  0.62665  0.81682  1.0000
  C   C4        1.0  0.72499  0.12665  0.68318  1.0000
  C   C5        1.0  0.72499  0.62665  0.31682  1.0000
  C   C6        1.0  0.77501  0.12665  0.18318  1.0000
  C   C7        1.0  0.22499  0.37335  0.18318  1.0000
  C   C8        1.0  0.27501  0.87335  0.31682  1.0000
  C   C9        1.0  0.96412  0.30696  0.47312  1.0000
  C   C10       1.0  0.53588  0.80696  0.02688  1.0000
  C   C11       1.0  0.46412  0.69304  0.02688  1.0000
  C   C12       1.0  0.03588  0.19304  0.47312  1.0000
  C   C13       1.0  0.03588  0.69304  0.52687  1.0000
  C   C14       1.0  0.46412  0.19304  0.97312  1.0000
  C   C15       1.0  0.53588  0.30695  0.97312  1.0000
  C   C16       1.0  0.96412  0.80696  0.52687  1.0000
  C   C17       1.0  0.76604  0.43082  0.56107  1.0000
  C   C18       1.0  0.73396  0.93082  0.93893  1.0000
  C   C19       1.0  0.26604  0.56918  0.93893  1.0000
  C   C20       1.0  0.23396  0.06918  0.56107  1.0000
  C   C21       1.0  0.23396  0.56918  0.43892  1.0000
  C   C22       1.0  0.26604  0.06918  0.06108  1.0000
  C   C23       1.0  0.73396  0.43082  0.06107  1.0000
  C   C24       1.0  0.76604  0.93082  0.43892  1.0000
  C   C25       1.0  0.61047  0.43562  0.63798  1.0000
  C   C26       1.0  0.88953  0.93562  0.86202  1.0000
  C   C27       1.0  0.11047  0.56438  0.86202  1.0000
  C   C28       1.0  0.38953  0.06438  0.63798  1.0000
  C   C29       1.0  0.38953  0.56438  0.36202  1.0000
  C   C30       1.0  0.11047  0.06438  0.13798  1.0000
  C   C31       1.0  0.88953  0.43562  0.13798  1.0000
  C   C32       1.0  0.61047  0.93562  0.36202  1.0000
  O   O1        1.0  0.81030  0.32141  0.54371  1.0000
  O   O2        1.0  0.68970  0.82141  0.95629  1.0000
  O   O3        1.0  0.31029  0.67859  0.95629  1.0000
  O   O4        1.0  0.18970  0.17859  0.54370  1.0000
  O   O5        1.0  0.18970  0.67859  0.45629  1.0000
  O   O6        1.0  0.31030  0.17859  0.04371  1.0000
  O   O7        1.0  0.68970  0.32141  0.04371  1.0000
  O   O8        1.0  0.81030  0.82141  0.45629  1.0000
  O   O9        1.0  0.42820  0.37565  0.61198  1.0000
  O   O10       1.0  0.07180  0.87565  0.88802  1.0000
  O   O11       1.0  0.92820  0.62435  0.88802  1.0000
  O   O12       1.0  0.57180  0.12435  0.61198  1.0000
  O   O13       1.0  0.57180  0.62435  0.38802  1.0000
  O   O14       1.0  0.92820  0.12435  0.11198  1.0000
  O   O15       1.0  0.07180  0.37565  0.11198  1.0000
  O   O16       1.0  0.42820  0.87565  0.38802  1.0000
