data_image0
_chemical_formula_structural       Li8B8H80C24O16
_chemical_formula_sum              "Li8 B8 H80 C24 O16"
_cell_length_a       7.00915
_cell_length_b       12.698
_cell_length_c       13.1559
_cell_angle_alpha    90.0002
_cell_angle_beta     102.316
_cell_angle_gamma    90.0001

_space_group_name_H-M_alt    "P 1"
_space_group_IT_number       1

loop_
  _space_group_symop_operation_xyz
  'x, y, z'

loop_
  _atom_site_type_symbol
  _atom_site_label
  _atom_site_symmetry_multiplicity
  _atom_site_fract_x
  _atom_site_fract_y
  _atom_site_fract_z
  _atom_site_occupancy
  Li  Li1       1.0  0.31191  0.79187  0.42914  1.0000
  Li  Li2       1.0  0.18809  0.29187  0.07086  1.0000
  Li  Li3       1.0  0.68809  0.20813  0.57086  1.0000
  Li  Li4       1.0  0.81191  0.70813  0.92914  1.0000
  Li  Li5       1.0  0.87075  0.02925  0.22357  1.0000
  Li  Li6       1.0  0.62925  0.52925  0.27643  1.0000
  Li  Li7       1.0  0.12925  0.97075  0.77643  1.0000
  Li  Li8       1.0  0.37075  0.47075  0.72357  1.0000
  B   B1        1.0  0.51147  0.67124  0.36072  1.0000
  B   B2        1.0  0.98853  0.17124  0.13928  1.0000
  B   B3        1.0  0.48853  0.32876  0.63928  1.0000
  B   B4        1.0  0.01147  0.82876  0.86072  1.0000
  B   B5        1.0  0.10137  0.91399  0.32313  1.0000
  B   B6        1.0  0.39863  0.41399  0.17687  1.0000
  B   B7        1.0  0.89863  0.08601  0.67687  1.0000
  B   B8        1.0  0.60137  0.58601  0.82313  1.0000
  H   H1        1.0  0.04410  0.85035  0.38038  1.0000
  H   H2        1.0  0.45590  0.35035  0.11962  1.0000
  H   H3        1.0  0.95589  0.14965  0.61962  1.0000
  H   H4        1.0  0.54411  0.64965  0.88038  1.0000
  H   H5        1.0  0.27757  0.90765  0.32818  1.0000
  H   H6        1.0  0.22243  0.40765  0.17181  1.0000
  H   H7        1.0  0.72243  0.09235  0.67181  1.0000
  H   H8        1.0  0.77757  0.59235  0.82818  1.0000
  H   H9        1.0  0.01779  0.89609  0.23305  1.0000
  H   H10       1.0  0.48221  0.39609  0.26695  1.0000
  H   H11       1.0  0.98221  0.10391  0.76695  1.0000
  H   H12       1.0  0.51779  0.60391  0.73305  1.0000
  H   H13       1.0  0.06769  0.00324  0.35114  1.0000
  H   H14       1.0  0.43231  0.50324  0.14886  1.0000
  H   H15       1.0  0.93231  0.99676  0.64886  1.0000
  H   H16       1.0  0.56769  0.49676  0.85114  1.0000
  H   H17       1.0  0.60116  0.94184  0.77226  1.0000
  H   H18       1.0  0.89884  0.44184  0.72774  1.0000
  H   H19       1.0  0.39884  0.05816  0.22774  1.0000
  H   H20       1.0  0.10116  0.55816  0.27226  1.0000
  H   H21       1.0  0.47282  0.82124  0.78500  1.0000
  H   H22       1.0  0.02718  0.32123  0.71500  1.0000
  H   H23       1.0  0.52718  0.17876  0.21500  1.0000
  H   H24       1.0  0.97282  0.67877  0.28500  1.0000
  H   H25       1.0  0.55685  0.75390  0.62924  1.0000
  H   H26       1.0  0.94315  0.25390  0.87076  1.0000
  H   H27       1.0  0.44315  0.24610  0.37076  1.0000
  H   H28       1.0  0.05685  0.74610  0.12924  1.0000
  H   H29       1.0  0.71684  0.86584  0.63525  1.0000
  H   H30       1.0  0.78316  0.36584  0.86475  1.0000
  H   H31       1.0  0.28316  0.13416  0.36475  1.0000
  H   H32       1.0  0.21684  0.63416  0.13525  1.0000
  H   H33       1.0  0.41712  0.04060  0.59459  1.0000
  H   H34       1.0  0.08289  0.54060  0.90541  1.0000
  H   H35       1.0  0.58288  0.95940  0.40541  1.0000
  H   H36       1.0  0.91711  0.45940  0.09459  1.0000
  H   H37       1.0  0.18582  0.97743  0.53728  1.0000
  H   H38       1.0  0.31418  0.47742  0.96272  1.0000
  H   H39       1.0  0.81418  0.02257  0.46272  1.0000
  H   H40       1.0  0.68582  0.52257  0.03729  1.0000
  H   H41       1.0  0.48183  0.57812  0.37712  1.0000
  H   H42       1.0  0.01817  0.07812  0.12288  1.0000
  H   H43       1.0  0.51817  0.42188  0.62288  1.0000
  H   H44       1.0  0.98183  0.92188  0.87712  1.0000
  H   H45       1.0  0.35906  0.70938  0.31117  1.0000
  H   H46       1.0  0.14095  0.20938  0.18883  1.0000
  H   H47       1.0  0.64094  0.29062  0.68883  1.0000
  H   H48       1.0  0.85905  0.79062  0.81117  1.0000
  H   H49       1.0  0.56718  0.71581  0.44455  1.0000
  H   H50       1.0  0.93282  0.21581  0.05545  1.0000
  H   H51       1.0  0.43282  0.28419  0.55545  1.0000
  H   H52       1.0  0.06718  0.78420  0.94455  1.0000
  H   H53       1.0  0.63813  0.68200  0.31036  1.0000
  H   H54       1.0  0.86187  0.18200  0.18964  1.0000
  H   H55       1.0  0.36187  0.31800  0.68964  1.0000
  H   H56       1.0  0.13813  0.81800  0.81036  1.0000
  H   H57       1.0  0.89146  0.69583  0.50904  1.0000
  H   H58       1.0  0.60854  0.19583  0.99096  1.0000
  H   H59       1.0  0.10854  0.30417  0.49096  1.0000
  H   H60       1.0  0.39146  0.80417  0.00904  1.0000
  H   H61       1.0  0.03737  0.79528  0.58729  1.0000
  H   H62       1.0  0.46263  0.29528  0.91271  1.0000
  H   H63       1.0  0.96263  0.20472  0.41271  1.0000
  H   H64       1.0  0.53737  0.70472  0.08729  1.0000
  H   H65       1.0  0.93672  0.60834  0.67810  1.0000
  H   H66       1.0  0.56328  0.10834  0.82190  1.0000
  H   H67       1.0  0.06328  0.39166  0.32190  1.0000
  H   H68       1.0  0.43672  0.89166  0.17810  1.0000
  H   H69       1.0  0.16797  0.67130  0.72441  1.0000
  H   H70       1.0  0.33203  0.17130  0.77559  1.0000
  H   H71       1.0  0.83203  0.32870  0.27559  1.0000
  H   H72       1.0  0.66798  0.82870  0.22441  1.0000
  H   H73       1.0  0.12199  0.54065  0.45742  1.0000
  H   H74       1.0  0.37801  0.04064  0.04258  1.0000
  H   H75       1.0  0.87801  0.45935  0.54258  1.0000
  H   H76       1.0  0.62199  0.95936  0.95742  1.0000
  H   H77       1.0  0.37388  0.56298  0.52480  1.0000
  H   H78       1.0  0.12613  0.06298  0.97520  1.0000
  H   H79       1.0  0.62613  0.43702  0.47520  1.0000
  H   H80       1.0  0.87388  0.93702  0.02480  1.0000
  C   C1        1.0  0.49885  0.88264  0.73106  1.0000
  C   C2        1.0  0.00116  0.38264  0.76894  1.0000
  C   C3        1.0  0.50115  0.11736  0.26894  1.0000
  C   C4        1.0  0.99884  0.61736  0.23106  1.0000
  C   C5        1.0  0.56787  0.83985  0.63574  1.0000
  C   C6        1.0  0.93213  0.33985  0.86426  1.0000
  C   C7        1.0  0.43213  0.16015  0.36426  1.0000
  C   C8        1.0  0.06787  0.66015  0.13574  1.0000
  C   C9        1.0  0.33096  0.96735  0.58745  1.0000
  C   C10       1.0  0.16905  0.46735  0.91255  1.0000
  C   C11       1.0  0.66904  0.03265  0.41255  1.0000
  C   C12       1.0  0.83095  0.53265  0.08745  1.0000
  C   C13       1.0  0.03021  0.71231  0.56411  1.0000
  C   C14       1.0  0.46979  0.21231  0.93589  1.0000
  C   C15       1.0  0.96980  0.28769  0.43589  1.0000
  C   C16       1.0  0.53021  0.78769  0.06411  1.0000
  C   C17       1.0  0.07014  0.63695  0.65608  1.0000
  C   C18       1.0  0.42986  0.13694  0.84392  1.0000
  C   C19       1.0  0.92986  0.36305  0.34392  1.0000
  C   C20       1.0  0.57014  0.86305  0.15608  1.0000
  C   C21       1.0  0.22010  0.58071  0.52260  1.0000
  C   C22       1.0  0.27990  0.08071  0.97740  1.0000
  C   C23       1.0  0.77990  0.41929  0.47740  1.0000
  C   C24       1.0  0.72010  0.91929  0.02260  1.0000
  O   O1        1.0  0.31238  0.93122  0.68714  1.0000
  O   O2        1.0  0.18762  0.43122  0.81286  1.0000
  O   O3        1.0  0.68762  0.06878  0.31286  1.0000
  O   O4        1.0  0.81238  0.56878  0.18714  1.0000
  O   O5        1.0  0.43195  0.88494  0.54722  1.0000
  O   O6        1.0  0.06805  0.38494  0.95278  1.0000
  O   O7        1.0  0.56805  0.11506  0.45278  1.0000
  O   O8        1.0  0.93194  0.61506  0.04722  1.0000
  O   O9        1.0  0.19297  0.69124  0.51525  1.0000
  O   O10       1.0  0.30703  0.19124  0.98475  1.0000
  O   O11       1.0  0.80703  0.30876  0.48475  1.0000
  O   O12       1.0  0.69297  0.80876  0.01525  1.0000
  O   O13       1.0  0.16907  0.54887  0.61842  1.0000
  O   O14       1.0  0.33093  0.04887  0.88158  1.0000
  O   O15       1.0  0.83093  0.45113  0.38158  1.0000
  O   O16       1.0  0.66907  0.95113  0.11842  1.0000
