data_image0
_chemical_formula_structural       Zn6H20C24N8O28
_chemical_formula_sum              "Zn6 H20 C24 N8 O28"
_cell_length_a       7.02613
_cell_length_b       11.1655
_cell_length_c       11.7237
_cell_angle_alpha    90
_cell_angle_beta     103.986
_cell_angle_gamma    89.9999

_space_group_name_H-M_alt    "P 1"
_space_group_IT_number       1

loop_
  _space_group_symop_operation_xyz
  'x, y, z'

loop_
  _atom_site_type_symbol
  _atom_site_label
  _atom_site_symmetry_multiplicity
  _atom_site_fract_x
  _atom_site_fract_y
  _atom_site_fract_z
  _atom_site_occupancy
  Zn  Zn1       1.0  0.00000  1.00000  1.00000  1.0000
  Zn  Zn2       1.0  0.50000  0.50000  0.50000  1.0000
  Zn  Zn3       1.0  0.22223  0.26061  0.17041  1.0000
  Zn  Zn4       1.0  0.27777  0.76062  0.32959  1.0000
  Zn  Zn5       1.0  0.77777  0.73938  0.82959  1.0000
  Zn  Zn6       1.0  0.72223  0.23939  0.67042  1.0000
  H   H1        1.0  0.69580  0.93119  0.34961  1.0000
  H   H2        1.0  0.80420  0.43119  0.15040  1.0000
  H   H3        1.0  0.30420  0.06881  0.65040  1.0000
  H   H4        1.0  0.19580  0.56881  0.84960  1.0000
  H   H5        1.0  0.03604  0.02235  0.78698  1.0000
  H   H6        1.0  0.46396  0.52235  0.71302  1.0000
  H   H7        1.0  0.96396  0.97765  0.21302  1.0000
  H   H8        1.0  0.53604  0.47765  0.28698  1.0000
  H   H9        1.0  0.26341  0.01734  0.86726  1.0000
  H   H10       1.0  0.23660  0.51734  0.63274  1.0000
  H   H11       1.0  0.73659  0.98266  0.13273  1.0000
  H   H12       1.0  0.76340  0.48266  0.36726  1.0000
  H   H13       1.0  0.02163  0.19874  0.31272  1.0000
  H   H14       1.0  0.47837  0.69874  0.18728  1.0000
  H   H15       1.0  0.97837  0.80126  0.68728  1.0000
  H   H16       1.0  0.52163  0.30126  0.81272  1.0000
  H   H17       1.0  0.91297  0.16029  0.18629  1.0000
  H   H18       1.0  0.58702  0.66029  0.31371  1.0000
  H   H19       1.0  0.08703  0.83971  0.81371  1.0000
  H   H20       1.0  0.41297  0.33971  0.68629  1.0000
  C   C1        1.0  0.42233  0.03251  0.15841  1.0000
  C   C2        1.0  0.07767  0.53251  0.34159  1.0000
  C   C3        1.0  0.57767  0.96749  0.84159  1.0000
  C   C4        1.0  0.92233  0.46749  0.65841  1.0000
  C   C5        1.0  0.50879  0.08288  0.28068  1.0000
  C   C6        1.0  0.99121  0.58289  0.21932  1.0000
  C   C7        1.0  0.49121  0.91711  0.71932  1.0000
  C   C8        1.0  0.00880  0.41712  0.78068  1.0000
  C   C9        1.0  0.48793  0.23713  0.41471  1.0000
  C   C10       1.0  0.01207  0.73712  0.08529  1.0000
  C   C11       1.0  0.51207  0.76288  0.58529  1.0000
  C   C12       1.0  0.98793  0.26287  0.91471  1.0000
  C   C13       1.0  0.69578  0.07225  0.47709  1.0000
  C   C14       1.0  0.80422  0.57225  0.02291  1.0000
  C   C15       1.0  0.30422  0.92775  0.52292  1.0000
  C   C16       1.0  0.19578  0.42775  0.97709  1.0000
  C   C17       1.0  0.83073  0.01010  0.58130  1.0000
  C   C18       1.0  0.66927  0.51010  0.91870  1.0000
  C   C19       1.0  0.16927  0.98990  0.41871  1.0000
  C   C20       1.0  0.33073  0.48990  0.08129  1.0000
  C   C21       1.0  0.64252  0.01921  0.36637  1.0000
  C   C22       1.0  0.85748  0.51921  0.13363  1.0000
  C   C23       1.0  0.35748  0.98079  0.63363  1.0000
  C   C24       1.0  0.14253  0.48079  0.86637  1.0000
  N   N1        1.0  0.43690  0.18880  0.30350  1.0000
  N   N2        1.0  0.06310  0.68880  0.19650  1.0000
  N   N3        1.0  0.56310  0.81120  0.69650  1.0000
  N   N4        1.0  0.93690  0.31120  0.80350  1.0000
  N   N5        1.0  0.62437  0.17830  0.50053  1.0000
  N   N6        1.0  0.87563  0.67830  0.99947  1.0000
  N   N7        1.0  0.37563  0.82170  0.49947  1.0000
  N   N8        1.0  0.12437  0.32170  0.00053  1.0000
  O   O1        1.0  0.25785  0.08170  0.10556  1.0000
  O   O2        1.0  0.24215  0.58170  0.39444  1.0000
  O   O3        1.0  0.74216  0.91830  0.89444  1.0000
  O   O4        1.0  0.75784  0.41830  0.60556  1.0000
  O   O5        1.0  0.50862  0.95063  0.11961  1.0000
  O   O6        1.0  0.99138  0.45063  0.38039  1.0000
  O   O7        1.0  0.49138  0.04937  0.88039  1.0000
  O   O8        1.0  0.00862  0.54937  0.61961  1.0000
  O   O9        1.0  0.40414  0.33106  0.43632  1.0000
  O   O10       1.0  0.09586  0.83106  0.06368  1.0000
  O   O11       1.0  0.59586  0.66894  0.56368  1.0000
  O   O12       1.0  0.90414  0.16894  0.93632  1.0000
  O   O13       1.0  0.86953  0.07165  0.67755  1.0000
  O   O14       1.0  0.63048  0.57164  0.82245  1.0000
  O   O15       1.0  0.13048  0.92836  0.32245  1.0000
  O   O16       1.0  0.36952  0.42835  0.17755  1.0000
  O   O17       1.0  0.88833  0.90641  0.56825  1.0000
  O   O18       1.0  0.61167  0.40641  0.93175  1.0000
  O   O19       1.0  0.11167  0.09359  0.43176  1.0000
  O   O20       1.0  0.38833  0.59359  0.06825  1.0000
  O   O21       1.0  0.12721  0.98314  0.85710  1.0000
  O   O22       1.0  0.37279  0.48314  0.64290  1.0000
  O   O23       1.0  0.87279  0.01686  0.14290  1.0000
  O   O24       1.0  0.62721  0.51686  0.35710  1.0000
  O   O25       1.0  0.97818  0.23176  0.23147  1.0000
  O   O26       1.0  0.52182  0.73176  0.26853  1.0000
  O   O27       1.0  0.02182  0.76824  0.76853  1.0000
  O   O28       1.0  0.47819  0.26824  0.73147  1.0000
