data_image0
_chemical_formula_structural       Cd6H28C24N8O32
_chemical_formula_sum              "Cd6 H28 C24 N8 O32"
_cell_length_a       9.49115
_cell_length_b       9.49111
_cell_length_c       12.3313
_cell_angle_alpha    89.1703
_cell_angle_beta     89.1681
_cell_angle_gamma    68.4771

_space_group_name_H-M_alt    "P 1"
_space_group_IT_number       1

loop_
  _space_group_symop_operation_xyz
  'x, y, z'

loop_
  _atom_site_type_symbol
  _atom_site_label
  _atom_site_symmetry_multiplicity
  _atom_site_fract_x
  _atom_site_fract_y
  _atom_site_fract_z
  _atom_site_occupancy
  Cd  Cd1       1.0  0.18692  0.06881  0.58507  1.0000
  Cd  Cd2       1.0  0.93120  0.81307  0.91493  1.0000
  Cd  Cd3       1.0  0.81307  0.93120  0.41494  1.0000
  Cd  Cd4       1.0  0.06880  0.18693  0.08507  1.0000
  Cd  Cd5       1.0  1.00000  0.50000  0.50000  1.0000
  Cd  Cd6       1.0  0.50000  1.00000  1.00000  1.0000
  H   H1        1.0  0.47174  0.51275  0.35953  1.0000
  H   H2        1.0  0.48725  0.52826  0.14047  1.0000
  H   H3        1.0  0.52826  0.48726  0.64048  1.0000
  H   H4        1.0  0.51275  0.47173  0.85953  1.0000
  H   H5        1.0  0.41215  0.92966  0.41179  1.0000
  H   H6        1.0  0.07034  0.58785  0.08821  1.0000
  H   H7        1.0  0.58785  0.07034  0.58821  1.0000
  H   H8        1.0  0.92967  0.41215  0.91179  1.0000
  H   H9        1.0  0.33952  0.10967  0.39056  1.0000
  H   H10       1.0  0.89033  0.66049  0.10945  1.0000
  H   H11       1.0  0.66048  0.89033  0.60945  1.0000
  H   H12       1.0  0.10968  0.33951  0.89055  1.0000
  H   H13       1.0  0.95943  0.29826  0.70224  1.0000
  H   H14       1.0  0.70175  0.04055  0.79776  1.0000
  H   H15       1.0  0.04056  0.70175  0.29776  1.0000
  H   H16       1.0  0.29825  0.95945  0.20224  1.0000
  H   H17       1.0  0.02760  0.17452  0.79135  1.0000
  H   H18       1.0  0.82550  0.97240  0.70865  1.0000
  H   H19       1.0  0.97240  0.82549  0.20864  1.0000
  H   H20       1.0  0.17450  0.02761  0.29136  1.0000
  H   H21       1.0  0.95888  0.52684  0.73238  1.0000
  H   H22       1.0  0.47315  0.04112  0.76762  1.0000
  H   H23       1.0  0.04112  0.47316  0.26762  1.0000
  H   H24       1.0  0.52685  0.95888  0.23238  1.0000
  H   H25       1.0  0.79300  0.56422  0.68386  1.0000
  H   H26       1.0  0.43579  0.20699  0.81615  1.0000
  H   H27       1.0  0.20699  0.43579  0.31614  1.0000
  H   H28       1.0  0.56421  0.79301  0.18385  1.0000
  C   C1        1.0  0.87379  0.24453  0.43458  1.0000
  C   C2        1.0  0.75548  0.12619  0.06541  1.0000
  C   C3        1.0  0.12620  0.75548  0.56541  1.0000
  C   C4        1.0  0.24453  0.87381  0.93459  1.0000
  C   C5        1.0  0.69381  0.49181  0.41544  1.0000
  C   C6        1.0  0.50819  0.30619  0.08456  1.0000
  C   C7        1.0  0.30619  0.50819  0.58456  1.0000
  C   C8        1.0  0.49181  0.69381  0.91544  1.0000
  C   C9        1.0  0.66196  0.66152  0.41816  1.0000
  C   C10       1.0  0.33848  0.33804  0.08184  1.0000
  C   C11       1.0  0.33804  0.33847  0.58184  1.0000
  C   C12       1.0  0.66153  0.66195  0.91816  1.0000
  C   C13       1.0  0.58431  0.43647  0.38180  1.0000
  C   C14       1.0  0.56353  0.41569  0.11820  1.0000
  C   C15       1.0  0.41569  0.56353  0.61820  1.0000
  C   C16       1.0  0.43648  0.58430  0.88180  1.0000
  C   C17       1.0  0.62902  0.27924  0.37651  1.0000
  C   C18       1.0  0.72076  0.37098  0.12349  1.0000
  C   C19       1.0  0.37098  0.72076  0.62349  1.0000
  C   C20       1.0  0.27924  0.62902  0.87651  1.0000
  C   C21       1.0  0.52448  0.20139  0.33794  1.0000
  C   C22       1.0  0.79861  0.47552  0.16205  1.0000
  C   C23       1.0  0.47552  0.79861  0.66206  1.0000
  C   C24       1.0  0.20139  0.52448  0.83795  1.0000
  N   N1        1.0  0.83292  0.39866  0.44283  1.0000
  N   N2        1.0  0.60133  0.16708  0.05716  1.0000
  N   N3        1.0  0.16708  0.60133  0.55716  1.0000
  N   N4        1.0  0.39867  0.83292  0.94284  1.0000
  N   N5        1.0  0.76874  0.18638  0.40244  1.0000
  N   N6        1.0  0.81362  0.23126  0.09756  1.0000
  N   N7        1.0  0.23126  0.81362  0.59756  1.0000
  N   N8        1.0  0.18638  0.76874  0.90245  1.0000
  O   O1        1.0  0.00793  0.15707  0.45248  1.0000
  O   O2        1.0  0.84291  0.99207  0.04752  1.0000
  O   O3        1.0  0.99207  0.84292  0.54752  1.0000
  O   O4        1.0  0.15709  0.00793  0.95248  1.0000
  O   O5        1.0  0.77717  0.69909  0.43371  1.0000
  O   O6        1.0  0.30091  0.22283  0.06629  1.0000
  O   O7        1.0  0.22282  0.30090  0.56629  1.0000
  O   O8        1.0  0.69910  0.77717  0.93371  1.0000
  O   O9        1.0  0.52812  0.74823  0.40358  1.0000
  O   O10       1.0  0.25177  0.47189  0.09641  1.0000
  O   O11       1.0  0.47188  0.25177  0.59640  1.0000
  O   O12       1.0  0.74823  0.52811  0.90359  1.0000
  O   O13       1.0  0.38440  0.27589  0.33266  1.0000
  O   O14       1.0  0.72411  0.61560  0.16734  1.0000
  O   O15       1.0  0.61559  0.72411  0.66735  1.0000
  O   O16       1.0  0.27590  0.38440  0.83266  1.0000
  O   O17       1.0  0.58824  0.06085  0.31447  1.0000
  O   O18       1.0  0.93914  0.41177  0.18553  1.0000
  O   O19       1.0  0.41176  0.93915  0.68553  1.0000
  O   O20       1.0  0.06086  0.58823  0.81447  1.0000
  O   O21       1.0  0.31822  0.02187  0.41896  1.0000
  O   O22       1.0  0.97813  0.68179  0.08104  1.0000
  O   O23       1.0  0.68178  0.97813  0.58104  1.0000
  O   O24       1.0  0.02187  0.31821  0.91895  1.0000
  O   O25       1.0  0.00747  0.18664  0.71309  1.0000
  O   O26       1.0  0.81336  0.99253  0.78691  1.0000
  O   O27       1.0  0.99253  0.81337  0.28691  1.0000
  O   O28       1.0  0.18663  0.00748  0.21309  1.0000
  O   O29       1.0  0.89956  0.49378  0.67808  1.0000
  O   O30       1.0  0.50623  0.10044  0.82192  1.0000
  O   O31       1.0  0.10044  0.50623  0.32192  1.0000
  O   O32       1.0  0.49377  0.89956  0.17808  1.0000
