data_image0
_chemical_formula_structural       K4H44Pt2C40S8Cl8O6
_chemical_formula_sum              "K4 H44 Pt2 C40 S8 Cl8 O6"
_cell_length_a       8.05535
_cell_length_b       12.6153
_cell_length_c       14.3196
_cell_angle_alpha    83.4468
_cell_angle_beta     75.8742
_cell_angle_gamma    77.718

_space_group_name_H-M_alt    "P 1"
_space_group_IT_number       1

loop_
  _space_group_symop_operation_xyz
  'x, y, z'

loop_
  _atom_site_type_symbol
  _atom_site_label
  _atom_site_symmetry_multiplicity
  _atom_site_fract_x
  _atom_site_fract_y
  _atom_site_fract_z
  _atom_site_occupancy
  K   K1        1.0  0.03243  0.48994  0.75768  1.0000
  K   K2        1.0  0.96757  0.51005  0.24232  1.0000
  K   K3        1.0  0.50080  0.44533  0.83157  1.0000
  K   K4        1.0  0.49918  0.55468  0.16844  1.0000
  H   H1        1.0  0.01490  0.02051  0.86535  1.0000
  H   H2        1.0  0.98511  0.97948  0.13464  1.0000
  H   H3        1.0  0.28685  0.96637  0.92951  1.0000
  H   H4        1.0  0.71315  0.03363  0.07049  1.0000
  H   H5        1.0  0.20006  0.95984  0.52919  1.0000
  H   H6        1.0  0.79995  0.04016  0.47082  1.0000
  H   H7        1.0  0.97581  0.99387  0.68445  1.0000
  H   H8        1.0  0.02419  0.00613  0.31555  1.0000
  H   H9        1.0  0.38180  0.70851  0.75602  1.0000
  H   H10       1.0  0.61820  0.29149  0.24398  1.0000
  H   H11       1.0  0.17289  0.67357  0.80477  1.0000
  H   H12       1.0  0.82710  0.32643  0.19523  1.0000
  H   H13       1.0  0.20169  0.84270  0.66830  1.0000
  H   H14       1.0  0.79830  0.15730  0.33170  1.0000
  H   H15       1.0  0.07088  0.74858  0.65856  1.0000
  H   H16       1.0  0.92912  0.25142  0.34144  1.0000
  H   H17       1.0  0.28058  0.73155  0.50381  1.0000
  H   H18       1.0  0.71942  0.26845  0.49618  1.0000
  H   H19       1.0  0.45218  0.74981  0.55565  1.0000
  H   H20       1.0  0.54781  0.25019  0.44435  1.0000
  H   H21       1.0  0.30374  0.54655  0.56343  1.0000
  H   H22       1.0  0.69626  0.45346  0.43657  1.0000
  H   H23       1.0  0.51963  0.55852  0.56904  1.0000
  H   H24       1.0  0.48037  0.44148  0.43095  1.0000
  H   H25       1.0  0.50224  0.34121  0.63704  1.0000
  H   H26       1.0  0.49776  0.65880  0.36296  1.0000
  H   H27       1.0  0.29608  0.33236  0.61549  1.0000
  H   H28       1.0  0.70392  0.66765  0.38451  1.0000
  H   H29       1.0  0.39476  0.14648  0.59944  1.0000
  H   H30       1.0  0.60524  0.85352  0.40056  1.0000
  H   H31       1.0  0.58908  0.14849  0.63544  1.0000
  H   H32       1.0  0.41093  0.85152  0.36456  1.0000
  H   H33       1.0  0.30667  0.05902  0.75376  1.0000
  H   H34       1.0  0.69333  0.94098  0.24623  1.0000
  H   H35       1.0  0.47177  0.09941  0.79689  1.0000
  H   H36       1.0  0.52823  0.90059  0.20311  1.0000
  H   H37       1.0  0.11138  0.23148  0.78459  1.0000
  H   H38       1.0  0.88862  0.76852  0.21541  1.0000
  H   H39       1.0  0.22093  0.22408  0.88069  1.0000
  H   H40       1.0  0.77907  0.77592  0.11931  1.0000
  H   H41       1.0  0.70864  0.65494  0.83366  1.0000
  H   H42       1.0  0.29136  0.34505  0.16634  1.0000
  H   H43       1.0  0.70710  0.65087  0.72465  1.0000
  H   H44       1.0  0.29290  0.34913  0.27535  1.0000
  Pt  Pt1       1.0  0.00000  0.50000  0.00000  1.0000
  Pt  Pt2       1.0  1.00000  0.50000  0.50000  1.0000
  C   C1        1.0  0.98541  0.75682  0.94477  1.0000
  C   C2        1.0  0.01460  0.24318  0.05523  1.0000
  C   C3        1.0  0.94430  0.86348  0.90391  1.0000
  C   C4        1.0  0.05571  0.13652  0.09609  1.0000
  C   C5        1.0  0.05123  0.93873  0.89708  1.0000
  C   C6        1.0  0.94877  0.06126  0.10292  1.0000
  C   C7        1.0  0.20223  0.90864  0.93266  1.0000
  C   C8        1.0  0.79778  0.09136  0.06734  1.0000
  C   C9        1.0  0.24453  0.80360  0.97315  1.0000
  C   C10       1.0  0.75547  0.19640  0.02685  1.0000
  C   C11       1.0  0.14080  0.72527  0.97884  1.0000
  C   C12       1.0  0.85920  0.27473  0.02116  1.0000
  C   C13       1.0  0.10584  0.23847  0.50763  1.0000
  C   C14       1.0  0.89416  0.76153  0.49237  1.0000
  C   C15       1.0  0.18374  0.13025  0.48667  1.0000
  C   C16       1.0  0.81626  0.86976  0.51333  1.0000
  C   C17       1.0  0.13804  0.04225  0.54843  1.0000
  C   C18       1.0  0.86196  0.95775  0.45157  1.0000
  C   C19       1.0  0.01380  0.06111  0.63478  1.0000
  C   C20       1.0  0.98620  0.93889  0.36523  1.0000
  C   C21       1.0  0.93578  0.16767  0.65667  1.0000
  C   C22       1.0  0.06421  0.83233  0.34333  1.0000
  C   C23       1.0  0.97511  0.25768  0.59374  1.0000
  C   C24       1.0  0.02489  0.74232  0.40626  1.0000
  C   C25       1.0  0.27165  0.68250  0.73807  1.0000
  C   C26       1.0  0.72834  0.31750  0.26193  1.0000
  C   C27       1.0  0.20367  0.75728  0.65929  1.0000
  C   C28       1.0  0.79632  0.24272  0.34071  1.0000
  C   C29       1.0  0.33477  0.71423  0.56830  1.0000
  C   C30       1.0  0.66522  0.28578  0.43170  1.0000
  C   C31       1.0  0.37966  0.59185  0.59323  1.0000
  C   C32       1.0  0.62034  0.40815  0.40676  1.0000
  C   C33       1.0  0.39238  0.29821  0.65952  1.0000
  C   C34       1.0  0.60761  0.70180  0.34048  1.0000
  C   C35       1.0  0.44699  0.17415  0.65423  1.0000
  C   C36       1.0  0.55301  0.82585  0.34577  1.0000
  C   C37       1.0  0.36953  0.12741  0.75618  1.0000
  C   C38       1.0  0.63047  0.87259  0.24382  1.0000
  C   C39       1.0  0.23958  0.22408  0.80230  1.0000
  C   C40       1.0  0.76042  0.77592  0.19770  1.0000
  S   S1        1.0  0.84963  0.66387  0.95074  1.0000
  S   S2        1.0  0.15037  0.33613  0.04926  1.0000
  S   S3        1.0  0.20853  0.59041  0.02048  1.0000
  S   S4        1.0  0.79147  0.40959  0.97952  1.0000
  S   S5        1.0  0.17528  0.34693  0.43243  1.0000
  S   S6        1.0  0.82472  0.65307  0.56757  1.0000
  S   S7        1.0  0.86331  0.38951  0.62051  1.0000
  S   S8        1.0  0.13669  0.61049  0.37949  1.0000
  Cl  Cl1       1.0  0.75836  0.90170  0.85819  1.0000
  Cl  Cl2       1.0  0.24164  0.09830  0.14181  1.0000
  Cl  Cl3       1.0  0.43846  0.76738  0.01137  1.0000
  Cl  Cl4       1.0  0.56154  0.23261  0.98863  1.0000
  Cl  Cl5       1.0  0.34302  0.10549  0.38116  1.0000
  Cl  Cl6       1.0  0.65699  0.89452  0.61885  1.0000
  Cl  Cl7       1.0  0.78771  0.18991  0.76669  1.0000
  Cl  Cl8       1.0  0.21228  0.81009  0.23332  1.0000
  O   O1        1.0  0.33052  0.57624  0.69855  1.0000
  O   O2        1.0  0.66948  0.42376  0.30144  1.0000
  O   O3        1.0  0.31446  0.31830  0.76043  1.0000
  O   O4        1.0  0.68554  0.68170  0.23957  1.0000
  O   O5        1.0  0.67779  0.61262  0.78882  1.0000
  O   O6        1.0  0.32221  0.38738  0.21119  1.0000
