data_image0
_chemical_formula_structural       Cd2H24C36N12O12
_chemical_formula_sum              "Cd2 H24 C36 N12 O12"
_cell_length_a       8.37083
_cell_length_b       9.83692
_cell_length_c       11.0202
_cell_angle_alpha    96.0137
_cell_angle_beta     89.6896
_cell_angle_gamma    95.9338

_space_group_name_H-M_alt    "P 1"
_space_group_IT_number       1

loop_
  _space_group_symop_operation_xyz
  'x, y, z'

loop_
  _atom_site_type_symbol
  _atom_site_label
  _atom_site_symmetry_multiplicity
  _atom_site_fract_x
  _atom_site_fract_y
  _atom_site_fract_z
  _atom_site_occupancy
  Cd  Cd1       1.0  0.62636  0.92420  0.86844  1.0000
  Cd  Cd2       1.0  0.37364  0.07580  0.13156  1.0000
  H   H1        1.0  0.24434  0.94312  0.47748  1.0000
  H   H2        1.0  0.75566  0.05688  0.52252  1.0000
  H   H3        1.0  0.03987  0.60721  0.46515  1.0000
  H   H4        1.0  0.96013  0.39279  0.53485  1.0000
  H   H5        1.0  0.71721  0.68884  0.65907  1.0000
  H   H6        1.0  0.28279  0.31116  0.34093  1.0000
  H   H7        1.0  0.72198  0.53351  0.46603  1.0000
  H   H8        1.0  0.27802  0.46649  0.53397  1.0000
  H   H9        1.0  0.53854  0.54963  0.29483  1.0000
  H   H10       1.0  0.46146  0.45037  0.70517  1.0000
  H   H11       1.0  0.33869  0.72245  0.30978  1.0000
  H   H12       1.0  0.66131  0.27755  0.69022  1.0000
  H   H13       1.0  0.33806  0.07729  0.81705  1.0000
  H   H14       1.0  0.66194  0.92271  0.18295  1.0000
  H   H15       1.0  0.32010  0.16458  0.68493  1.0000
  H   H16       1.0  0.67990  0.83542  0.31507  1.0000
  H   H17       1.0  0.05893  0.94256  0.88980  1.0000
  H   H18       1.0  0.94107  0.05744  0.11020  1.0000
  H   H19       1.0  0.65636  0.44624  0.89522  1.0000
  H   H20       1.0  0.34363  0.55376  0.10477  1.0000
  H   H21       1.0  0.81374  0.25467  0.20061  1.0000
  H   H22       1.0  0.18626  0.74533  0.79939  1.0000
  H   H23       1.0  0.92571  0.68981  0.18668  1.0000
  H   H24       1.0  0.07429  0.31019  0.81332  1.0000
  C   C1        1.0  0.52299  0.79234  0.59276  1.0000
  C   C2        1.0  0.47701  0.20766  0.40725  1.0000
  C   C3        1.0  0.63741  0.69776  0.58317  1.0000
  C   C4        1.0  0.36259  0.30224  0.41683  1.0000
  C   C5        1.0  0.64010  0.61273  0.47433  1.0000
  C   C6        1.0  0.35990  0.38727  0.52567  1.0000
  C   C7        1.0  0.53329  0.62061  0.37739  1.0000
  C   C8        1.0  0.46670  0.37939  0.62261  1.0000
  C   C9        1.0  0.41891  0.71447  0.38544  1.0000
  C   C10       1.0  0.58109  0.28553  0.61456  1.0000
  C   C11       1.0  0.41736  0.80063  0.49441  1.0000
  C   C12       1.0  0.58264  0.19937  0.50559  1.0000
  C   C13       1.0  0.37019  0.95399  0.64931  1.0000
  C   C14       1.0  0.62981  0.04601  0.35069  1.0000
  C   C15       1.0  0.29402  0.06588  0.72305  1.0000
  C   C16       1.0  0.70598  0.93412  0.27695  1.0000
  C   C17       1.0  0.02174  0.97695  0.80520  1.0000
  C   C18       1.0  0.97826  0.02305  0.19480  1.0000
  C   C19       1.0  0.76182  0.71125  0.97905  1.0000
  C   C20       1.0  0.23818  0.28874  0.02094  1.0000
  C   C21       1.0  0.78732  0.58195  0.03530  1.0000
  C   C22       1.0  0.21268  0.41805  0.96470  1.0000
  C   C23       1.0  0.72110  0.45354  0.98146  1.0000
  C   C24       1.0  0.27890  0.54646  0.01853  1.0000
  C   C25       1.0  0.73524  0.33448  0.03833  1.0000
  C   C26       1.0  0.26476  0.66552  0.96167  1.0000
  C   C27       1.0  0.67238  0.19730  0.97577  1.0000
  C   C28       1.0  0.32762  0.80270  0.02423  1.0000
  C   C29       1.0  0.80960  0.34520  0.15247  1.0000
  C   C30       1.0  0.19041  0.65480  0.84752  1.0000
  C   C31       1.0  0.87887  0.47279  0.20626  1.0000
  C   C32       1.0  0.12113  0.52722  0.79374  1.0000
  C   C33       1.0  0.94834  0.48129  0.33082  1.0000
  C   C34       1.0  0.05167  0.51872  0.66918  1.0000
  C   C35       1.0  0.87091  0.59057  0.14596  1.0000
  C   C36       1.0  0.12909  0.40943  0.85404  1.0000
  N   N1        1.0  0.48857  0.88866  0.68840  1.0000
  N   N2        1.0  0.51143  0.11134  0.31160  1.0000
  N   N3        1.0  0.32435  0.90508  0.53335  1.0000
  N   N4        1.0  0.67565  0.09493  0.46665  1.0000
  N   N5        1.0  0.11983  0.03614  0.72442  1.0000
  N   N6        1.0  0.88017  0.96386  0.27558  1.0000
  N   N7        1.0  0.03130  0.06714  0.63104  1.0000
  N   N8        1.0  0.96869  0.93286  0.36896  1.0000
  N   N9        1.0  0.88331  0.02790  0.65515  1.0000
  N   N10       1.0  0.11669  0.97210  0.34485  1.0000
  N   N11       1.0  0.87303  0.97135  0.76280  1.0000
  N   N12       1.0  0.12697  0.02865  0.23720  1.0000
  O   O1        1.0  0.84882  0.82127  0.01232  1.0000
  O   O2        1.0  0.15118  0.17873  0.98768  1.0000
  O   O3        1.0  0.64556  0.70261  0.90157  1.0000
  O   O4        1.0  0.35444  0.29739  0.09843  1.0000
  O   O5        1.0  0.63792  0.18517  0.86390  1.0000
  O   O6        1.0  0.36207  0.81483  0.13610  1.0000
  O   O7        1.0  0.65945  0.09200  0.03889  1.0000
  O   O8        1.0  0.34055  0.90800  0.96111  1.0000
  O   O9        1.0  0.93475  0.38019  0.39149  1.0000
  O   O10       1.0  0.06526  0.61981  0.60851  1.0000
  O   O11       1.0  0.01812  0.60384  0.37317  1.0000
  O   O12       1.0  0.98188  0.39617  0.62683  1.0000
