data_image0
_chemical_formula_structural       Cd2H28C34N12O10
_chemical_formula_sum              "Cd2 H28 C34 N12 O10"
_cell_length_a       8.8885
_cell_length_b       10.2067
_cell_length_c       12.4899
_cell_angle_alpha    103.951
_cell_angle_beta     104.169
_cell_angle_gamma    115.391

_space_group_name_H-M_alt    "P 1"
_space_group_IT_number       1

loop_
  _space_group_symop_operation_xyz
  'x, y, z'

loop_
  _atom_site_type_symbol
  _atom_site_label
  _atom_site_symmetry_multiplicity
  _atom_site_fract_x
  _atom_site_fract_y
  _atom_site_fract_z
  _atom_site_occupancy
  Cd  Cd1       1.0  0.67941  0.63868  0.72512  1.0000
  Cd  Cd2       1.0  0.32058  0.36131  0.27488  1.0000
  H   H1        1.0  0.45060  0.77654  0.06826  1.0000
  H   H2        1.0  0.54940  0.22347  0.93174  1.0000
  H   H3        1.0  0.31075  0.39340  0.55055  1.0000
  H   H4        1.0  0.68924  0.60660  0.44944  1.0000
  H   H5        1.0  0.35291  0.54816  0.53475  1.0000
  H   H6        1.0  0.64708  0.45183  0.46525  1.0000
  H   H7        1.0  0.89467  0.58659  0.96220  1.0000
  H   H8        1.0  0.10532  0.41342  0.03780  1.0000
  H   H9        1.0  0.00853  0.59215  0.16735  1.0000
  H   H10       1.0  0.99147  0.40786  0.83266  1.0000
  H   H11       1.0  0.88406  0.65937  0.31565  1.0000
  H   H12       1.0  0.11594  0.34064  0.68434  1.0000
  H   H13       1.0  0.64350  0.72751  0.26339  1.0000
  H   H14       1.0  0.35649  0.27249  0.73661  1.0000
  H   H15       1.0  0.50989  0.87591  0.82845  1.0000
  H   H16       1.0  0.49010  0.12408  0.17154  1.0000
  H   H17       1.0  0.36449  0.67001  0.74177  1.0000
  H   H18       1.0  0.63552  0.32999  0.25822  1.0000
  H   H19       1.0  0.03595  0.60333  0.68148  1.0000
  H   H20       1.0  0.96403  0.39664  0.31852  1.0000
  H   H21       1.0  0.83751  0.91469  0.44468  1.0000
  H   H22       1.0  0.16250  0.08531  0.55532  1.0000
  H   H23       1.0  0.86697  0.12490  0.36947  1.0000
  H   H24       1.0  0.13305  0.87511  0.63054  1.0000
  H   H25       1.0  0.78773  0.32049  0.46141  1.0000
  H   H26       1.0  0.21229  0.67952  0.53860  1.0000
  H   H27       1.0  0.65962  0.09508  0.70283  1.0000
  H   H28       1.0  0.34039  0.90491  0.29717  1.0000
  C   C1        1.0  0.71904  0.66860  0.00268  1.0000
  C   C2        1.0  0.28096  0.33140  0.99733  1.0000
  C   C3        1.0  0.84582  0.62217  0.02894  1.0000
  C   C4        1.0  0.15417  0.37784  0.97107  1.0000
  C   C5        1.0  0.90440  0.62179  0.14279  1.0000
  C   C6        1.0  0.09561  0.37823  0.85722  1.0000
  C   C7        1.0  0.83512  0.66156  0.22750  1.0000
  C   C8        1.0  0.16487  0.33844  0.77250  1.0000
  C   C9        1.0  0.70475  0.70351  0.20138  1.0000
  C   C10       1.0  0.29524  0.29650  0.79861  1.0000
  C   C11       1.0  0.65068  0.70835  0.08847  1.0000
  C   C12       1.0  0.34931  0.29166  0.91152  1.0000
  C   C13       1.0  0.52478  0.72893  0.92091  1.0000
  C   C14       1.0  0.47522  0.27107  0.07909  1.0000
  C   C15       1.0  0.41860  0.76322  0.83087  1.0000
  C   C16       1.0  0.58140  0.23679  0.16912  1.0000
  C   C17       1.0  0.09318  0.69229  0.77133  1.0000
  C   C18       1.0  0.90682  0.30769  0.22866  1.0000
  C   C19       1.0  0.73154  0.86565  0.62362  1.0000
  C   C20       1.0  0.26846  0.13434  0.37638  1.0000
  C   C21       1.0  0.74438  0.99032  0.57694  1.0000
  C   C22       1.0  0.25562  0.00966  0.42306  1.0000
  C   C23       1.0  0.80180  0.99923  0.48273  1.0000
  C   C24       1.0  0.19821  0.00077  0.51728  1.0000
  C   C25       1.0  0.81690  0.11701  0.44046  1.0000
  C   C26       1.0  0.18311  0.88299  0.55956  1.0000
  C   C27       1.0  0.77476  0.22664  0.49249  1.0000
  C   C28       1.0  0.22525  0.77336  0.50752  1.0000
  C   C29       1.0  0.71754  0.21923  0.58735  1.0000
  C   C30       1.0  0.28246  0.78077  0.41266  1.0000
  C   C31       1.0  0.70236  0.10052  0.62872  1.0000
  C   C32       1.0  0.29766  0.89948  0.37129  1.0000
  C   C33       1.0  0.68225  0.34170  0.64900  1.0000
  C   C34       1.0  0.31774  0.65828  0.35101  1.0000
  N   N1        1.0  0.63678  0.68239  0.89928  1.0000
  N   N2        1.0  0.36322  0.31761  0.10072  1.0000
  N   N3        1.0  0.52827  0.74610  0.03310  1.0000
  N   N4        1.0  0.47173  0.25391  0.96690  1.0000
  N   N5        1.0  0.26611  0.76831  0.85028  1.0000
  N   N6        1.0  0.73389  0.23170  0.14971  1.0000
  N   N7        1.0  0.28399  0.86885  0.95323  1.0000
  N   N8        1.0  0.71601  0.13117  0.04675  1.0000
  N   N9        1.0  0.12556  0.85245  0.93564  1.0000
  N   N10       1.0  0.87443  0.14755  0.06434  1.0000
  N   N11       1.0  0.00433  0.74372  0.82311  1.0000
  N   N12       1.0  0.99567  0.25626  0.17688  1.0000
  O   O1        1.0  0.77789  0.77009  0.57881  1.0000
  O   O2        1.0  0.22211  0.22990  0.42117  1.0000
  O   O3        1.0  0.67509  0.85969  0.70810  1.0000
  O   O4        1.0  0.32492  0.14032  0.29190  1.0000
  O   O5        1.0  0.65459  0.34803  0.74326  1.0000
  O   O6        1.0  0.34540  0.65196  0.25675  1.0000
  O   O7        1.0  0.69092  0.44419  0.60177  1.0000
  O   O8        1.0  0.30906  0.55578  0.39822  1.0000
  O   O9        1.0  0.36105  0.50673  0.59952  1.0000
  O   O10       1.0  0.63895  0.49326  0.40048  1.0000
