data_image0
_chemical_formula_structural       FeH10PtC14N6
_chemical_formula_sum              "Fe1 H10 Pt1 C14 N6"
_cell_length_a       7.06437
_cell_length_b       7.1924
_cell_length_c       8.42915
_cell_angle_alpha    115.24
_cell_angle_beta     89.9988
_cell_angle_gamma    90.0036

_space_group_name_H-M_alt    "P 1"
_space_group_IT_number       1

loop_
  _space_group_symop_operation_xyz
  'x, y, z'

loop_
  _atom_site_type_symbol
  _atom_site_label
  _atom_site_symmetry_multiplicity
  _atom_site_fract_x
  _atom_site_fract_y
  _atom_site_fract_z
  _atom_site_occupancy
  Fe  Fe1       1.0  0.50000  0.51006  0.02032  1.0000
  H   H1        1.0  0.79236  0.34550  0.69195  1.0000
  H   H2        1.0  0.79292  0.65103  0.30178  1.0000
  H   H3        1.0  0.20705  0.65101  0.30177  1.0000
  H   H4        1.0  0.20764  0.34548  0.69194  1.0000
  H   H5        1.0  0.80537  0.18063  0.36118  1.0000
  H   H6        1.0  0.80517  0.81562  0.63060  1.0000
  H   H7        1.0  0.19483  0.81559  0.63057  1.0000
  H   H8        1.0  0.19466  0.18059  0.36117  1.0000
  H   H9        1.0  0.50002  0.09745  0.19409  1.0000
  H   H10       1.0  0.49999  0.89987  0.79926  1.0000
  Pt  Pt1       1.0  0.00000  0.99959  0.99932  1.0000
  C   C1        1.0  0.19554  0.19765  0.00351  1.0000
  C   C2        1.0  0.19563  0.80584  0.00360  1.0000
  C   C3        1.0  0.80448  0.19767  0.00351  1.0000
  C   C4        1.0  0.80439  0.80583  0.00363  1.0000
  C   C5        1.0  0.66416  0.30573  0.61226  1.0000
  C   C6        1.0  0.66445  0.69055  0.38051  1.0000
  C   C7        1.0  0.33552  0.69051  0.38049  1.0000
  C   C8        1.0  0.33586  0.30573  0.61227  1.0000
  C   C9        1.0  0.66999  0.21477  0.42981  1.0000
  C   C10       1.0  0.66938  0.78163  0.56267  1.0000
  C   C11       1.0  0.33061  0.78160  0.56265  1.0000
  C   C12       1.0  0.33004  0.21476  0.42980  1.0000
  C   C13       1.0  0.50001  0.16849  0.33679  1.0000
  C   C14       1.0  0.49999  0.82836  0.65647  1.0000
  N   N1        1.0  0.31057  0.31902  0.01197  1.0000
  N   N2        1.0  0.31052  0.69272  0.01187  1.0000
  N   N3        1.0  0.68944  0.31903  0.01202  1.0000
  N   N4        1.0  0.68946  0.69270  0.01186  1.0000
  N   N5        1.0  0.50000  0.34969  0.70020  1.0000
  N   N6        1.0  0.50000  0.64529  0.29014  1.0000
