data_image0
_chemical_formula_structural       Cu2H18C28N2O6
_chemical_formula_sum              "Cu2 H18 C28 N2 O6"
_cell_length_a       7.0332
_cell_length_b       9.42957
_cell_length_c       9.8856
_cell_angle_alpha    97.7327
_cell_angle_beta     90.001
_cell_angle_gamma    90.0008

_space_group_name_H-M_alt    "P 1"
_space_group_IT_number       1

loop_
  _space_group_symop_operation_xyz
  'x, y, z'

loop_
  _atom_site_type_symbol
  _atom_site_label
  _atom_site_symmetry_multiplicity
  _atom_site_fract_x
  _atom_site_fract_y
  _atom_site_fract_z
  _atom_site_occupancy
  Cu  Cu1       1.0  0.54648  0.44034  0.82001  1.0000
  Cu  Cu2       1.0  0.04648  0.55965  0.18000  1.0000
  H   H1        1.0  0.41471  0.53411  0.31542  1.0000
  H   H2        1.0  0.91472  0.46589  0.68458  1.0000
  H   H3        1.0  0.44716  0.31346  0.15059  1.0000
  H   H4        1.0  0.94716  0.68655  0.84941  1.0000
  H   H5        1.0  0.55236  0.08622  0.23404  1.0000
  H   H6        1.0  0.05234  0.91379  0.76596  1.0000
  H   H7        1.0  0.62452  0.08280  0.47888  1.0000
  H   H8        1.0  0.12451  0.91721  0.52112  1.0000
  H   H9        1.0  0.42966  0.65822  0.52698  1.0000
  H   H10       1.0  0.92967  0.34178  0.47303  1.0000
  H   H11       1.0  0.30907  0.92209  0.07159  1.0000
  H   H12       1.0  0.80905  0.07791  0.92841  1.0000
  H   H13       1.0  0.42351  0.12519  0.95497  1.0000
  H   H14       1.0  0.92356  0.87481  0.04500  1.0000
  H   H15       1.0  0.57447  0.07552  0.72737  1.0000
  H   H16       1.0  0.07450  0.92448  0.27262  1.0000
  H   H17       1.0  0.61634  0.82373  0.61789  1.0000
  H   H18       1.0  0.11632  0.17625  0.38212  1.0000
  C   C1        1.0  0.49458  0.43483  0.49186  1.0000
  C   C2        1.0  0.99459  0.56517  0.50815  1.0000
  C   C3        1.0  0.45821  0.43394  0.35033  1.0000
  C   C4        1.0  0.95823  0.56607  0.64967  1.0000
  C   C5        1.0  0.47612  0.31103  0.25838  1.0000
  C   C6        1.0  0.97613  0.68898  0.74163  1.0000
  C   C7        1.0  0.53484  0.18364  0.30610  1.0000
  C   C8        1.0  0.03484  0.81637  0.69390  1.0000
  C   C9        1.0  0.57503  0.18059  0.44265  1.0000
  C   C10       1.0  0.07503  0.81941  0.55735  1.0000
  C   C11       1.0  0.55613  0.30520  0.54032  1.0000
  C   C12       1.0  0.05614  0.69480  0.45968  1.0000
  C   C13       1.0  0.47100  0.56682  0.57835  1.0000
  C   C14       1.0  0.97101  0.43319  0.42166  1.0000
  C   C15       1.0  0.31298  0.64641  0.98525  1.0000
  C   C16       1.0  0.81298  0.35359  0.01475  1.0000
  C   C17       1.0  0.39278  0.75979  0.91013  1.0000
  C   C18       1.0  0.89277  0.24020  0.08987  1.0000
  C   C19       1.0  0.37471  0.90226  0.97127  1.0000
  C   C20       1.0  0.87471  0.09774  0.02873  1.0000
  C   C21       1.0  0.43622  0.01522  0.90567  1.0000
  C   C22       1.0  0.93624  0.98478  0.09431  1.0000
  C   C23       1.0  0.52150  0.98677  0.77713  1.0000
  C   C24       1.0  0.02151  0.01323  0.22287  1.0000
  C   C25       1.0  0.54271  0.84620  0.71546  1.0000
  C   C26       1.0  0.04270  0.15380  0.28454  1.0000
  C   C27       1.0  0.47554  0.73116  0.77915  1.0000
  C   C28       1.0  0.97553  0.26883  0.22086  1.0000
  N   N1        1.0  0.48927  0.58988  0.71165  1.0000
  N   N2        1.0  0.98926  0.41012  0.28836  1.0000
  O   O1        1.0  0.59906  0.29649  0.66772  1.0000
  O   O2        1.0  0.09907  0.70351  0.33228  1.0000
  O   O3        1.0  0.38073  0.51933  0.97064  1.0000
  O   O4        1.0  0.88072  0.48067  0.02936  1.0000
  O   O5        1.0  0.17648  0.68521  0.06676  1.0000
  O   O6        1.0  0.67647  0.31478  0.93325  1.0000
