data_image0
_chemical_formula_structural       Cd2H32C52N14O4
_chemical_formula_sum              "Cd2 H32 C52 N14 O4"
_cell_length_a       10.5583
_cell_length_b       10.7459
_cell_length_c       13.7793
_cell_angle_alpha    77.245
_cell_angle_beta     68.8952
_cell_angle_gamma    69.7054

_space_group_name_H-M_alt    "P 1"
_space_group_IT_number       1

loop_
  _space_group_symop_operation_xyz
  'x, y, z'

loop_
  _atom_site_type_symbol
  _atom_site_label
  _atom_site_symmetry_multiplicity
  _atom_site_fract_x
  _atom_site_fract_y
  _atom_site_fract_z
  _atom_site_occupancy
  Cd  Cd1       1.0  0.19121  0.69037  0.16371  1.0000
  Cd  Cd2       1.0  0.80879  0.30963  0.83629  1.0000
  H   H1        1.0  0.89938  0.50400  0.62370  1.0000
  H   H2        1.0  0.10062  0.49600  0.37630  1.0000
  H   H3        1.0  0.59548  0.12529  0.94776  1.0000
  H   H4        1.0  0.40451  0.87471  0.05224  1.0000
  H   H5        1.0  0.00533  0.11850  0.16277  1.0000
  H   H6        1.0  0.99467  0.88150  0.83723  1.0000
  H   H7        1.0  0.27732  0.41631  0.05495  1.0000
  H   H8        1.0  0.72268  0.58369  0.94504  1.0000
  H   H9        1.0  0.88208  0.00032  0.18628  1.0000
  H   H10       1.0  0.11793  0.99967  0.81371  1.0000
  H   H11       1.0  0.44935  0.19270  0.30119  1.0000
  H   H12       1.0  0.55065  0.80730  0.69881  1.0000
  H   H13       1.0  0.21017  0.39720  0.94035  1.0000
  H   H14       1.0  0.78983  0.60280  0.05964  1.0000
  H   H15       1.0  0.22230  0.81042  0.47168  1.0000
  H   H16       1.0  0.77770  0.18958  0.52832  1.0000
  H   H17       1.0  0.85693  0.05190  0.37893  1.0000
  H   H18       1.0  0.14307  0.94810  0.62107  1.0000
  H   H19       1.0  0.16730  0.05737  0.21768  1.0000
  H   H20       1.0  0.83270  0.94263  0.78232  1.0000
  H   H21       1.0  0.21256  0.52537  0.80786  1.0000
  H   H22       1.0  0.78744  0.47463  0.19214  1.0000
  H   H23       1.0  0.31452  0.03019  0.32876  1.0000
  H   H24       1.0  0.68548  0.96982  0.67124  1.0000
  H   H25       1.0  0.05651  0.65512  0.54113  1.0000
  H   H26       1.0  0.94349  0.34488  0.45887  1.0000
  H   H27       1.0  0.55847  0.94212  0.09508  1.0000
  H   H28       1.0  0.44152  0.05788  0.90492  1.0000
  H   H29       1.0  0.70602  0.88112  0.21631  1.0000
  H   H30       1.0  0.29398  0.11888  0.78369  1.0000
  H   H31       1.0  0.21390  0.66451  0.63855  1.0000
  H   H32       1.0  0.78610  0.33549  0.36144  1.0000
  C   C1        1.0  0.11849  0.25749  0.06239  1.0000
  C   C2        1.0  0.88151  0.74251  0.93761  1.0000
  C   C3        1.0  0.97062  0.51243  0.66138  1.0000
  C   C4        1.0  0.02938  0.48757  0.33861  1.0000
  C   C5        1.0  0.65723  0.09325  0.00227  1.0000
  C   C6        1.0  0.34276  0.90675  0.99774  1.0000
  C   C7        1.0  0.01819  0.18677  0.09122  1.0000
  C   C8        1.0  0.98181  0.81323  0.90878  1.0000
  C   C9        1.0  0.04447  0.35522  0.90805  1.0000
  C   C10       1.0  0.95553  0.64478  0.09195  1.0000
  C   C11       1.0  0.93570  0.20273  0.02713  1.0000
  C   C12       1.0  0.06431  0.79727  0.97287  1.0000
  C   C13       1.0  0.04372  0.92292  0.41777  1.0000
  C   C14       1.0  0.95628  0.07709  0.58223  1.0000
  C   C15       1.0  0.45285  0.40741  0.15830  1.0000
  C   C16       1.0  0.54715  0.59259  0.84170  1.0000
  C   C17       1.0  0.28358  0.33158  0.11504  1.0000
  C   C18       1.0  0.71642  0.66842  0.88496  1.0000
  C   C19       1.0  0.37066  0.31450  0.17632  1.0000
  C   C20       1.0  0.62934  0.68550  0.82368  1.0000
  C   C21       1.0  0.81613  0.02769  0.13520  1.0000
  C   C22       1.0  0.18387  0.97231  0.86480  1.0000
  C   C23       1.0  0.05325  0.44121  0.80600  1.0000
  C   C24       1.0  0.94675  0.55879  0.19400  1.0000
  C   C25       1.0  0.20857  0.24037  0.12856  1.0000
  C   C26       1.0  0.79143  0.75963  0.87144  1.0000
  C   C27       1.0  0.38153  0.20541  0.25376  1.0000
  C   C28       1.0  0.61847  0.79459  0.74624  1.0000
  C   C29       1.0  0.83124  0.12733  0.05071  1.0000
  C   C30       1.0  0.16876  0.87267  0.94929  1.0000
  C   C31       1.0  0.09246  0.84111  0.32913  1.0000
  C   C32       1.0  0.90754  0.15889  0.67087  1.0000
  C   C33       1.0  0.13144  0.34282  0.96809  1.0000
  C   C34       1.0  0.86856  0.65718  0.03191  1.0000
  C   C35       1.0  0.12492  0.89367  0.48549  1.0000
  C   C36       1.0  0.87508  0.10633  0.51451  1.0000
  C   C37       1.0  0.91865  0.02998  0.43253  1.0000
  C   C38       1.0  0.08135  0.97002  0.56747  1.0000
  C   C39       1.0  0.22201  0.13117  0.20626  1.0000
  C   C40       1.0  0.77799  0.86883  0.79374  1.0000
  C   C41       1.0  0.14337  0.52262  0.76591  1.0000
  C   C42       1.0  0.85663  0.47737  0.23409  1.0000
  C   C43       1.0  0.30678  0.11485  0.26842  1.0000
  C   C44       1.0  0.69322  0.88515  0.73158  1.0000
  C   C45       1.0  0.05722  0.59596  0.61628  1.0000
  C   C46       1.0  0.94278  0.40404  0.38372  1.0000
  C   C47       1.0  0.63625  0.99301  0.08442  1.0000
  C   C48       1.0  0.36375  0.00699  0.91558  1.0000
  C   C49       1.0  0.71800  0.95990  0.15150  1.0000
  C   C50       1.0  0.28200  0.04010  0.84850  1.0000
  C   C51       1.0  0.14452  0.60037  0.67031  1.0000
  C   C52       1.0  0.85549  0.39963  0.32969  1.0000
  N   N1        1.0  0.40576  0.54119  0.13572  1.0000
  N   N2        1.0  0.59424  0.45881  0.86428  1.0000
  N   N3        1.0  0.51422  0.58871  0.12200  1.0000
  N   N4        1.0  0.48578  0.41129  0.87800  1.0000
  N   N5        1.0  0.62276  0.48646  0.13482  1.0000
  N   N6        1.0  0.37724  0.51354  0.86518  1.0000
  N   N7        1.0  0.58795  0.37139  0.15863  1.0000
  N   N8        1.0  0.41205  0.62861  0.84138  1.0000
  N   N9        1.0  0.94914  0.28695  0.93879  1.0000
  N   N10       1.0  0.05086  0.71305  0.06121  1.0000
  N   N11       1.0  0.75293  0.15726  0.98548  1.0000
  N   N12       1.0  0.24707  0.84274  0.01453  1.0000
  N   N13       1.0  0.96896  0.43765  0.75325  1.0000
  N   N14       1.0  0.03104  0.56235  0.24675  1.0000
  O   O1        1.0  0.17946  0.72472  0.33402  1.0000
  O   O2        1.0  0.82054  0.27528  0.66598  1.0000
  O   O3        1.0  0.04617  0.89264  0.25093  1.0000
  O   O4        1.0  0.95383  0.10736  0.74907  1.0000
