data_image0
_chemical_formula_structural       Cu5As2H12C12S2O16
_chemical_formula_sum              "Cu5 As2 H12 C12 S2 O16"
_cell_length_a       6.22478
_cell_length_b       7.30958
_cell_length_c       12.0011
_cell_angle_alpha    85.8396
_cell_angle_beta     80.2942
_cell_angle_gamma    73.8886

_space_group_name_H-M_alt    "P 1"
_space_group_IT_number       1

loop_
  _space_group_symop_operation_xyz
  'x, y, z'

loop_
  _atom_site_type_symbol
  _atom_site_label
  _atom_site_symmetry_multiplicity
  _atom_site_fract_x
  _atom_site_fract_y
  _atom_site_fract_z
  _atom_site_occupancy
  Cu  Cu1       1.0  0.04295  0.67706  0.12569  1.0000
  Cu  Cu2       1.0  0.95923  0.32222  0.87286  1.0000
  Cu  Cu3       1.0  0.49708  0.50046  0.00083  1.0000
  Cu  Cu4       1.0  0.24690  0.91684  0.90841  1.0000
  Cu  Cu5       1.0  0.75260  0.08496  0.08972  1.0000
  As  As1       1.0  0.19736  0.21483  0.14431  1.0000
  As  As2       1.0  0.80184  0.78288  0.85629  1.0000
  H   H1        1.0  0.67902  0.47591  0.51275  1.0000
  H   H2        1.0  0.32266  0.52582  0.48739  1.0000
  H   H3        1.0  0.93092  0.25904  0.63286  1.0000
  H   H4        1.0  0.06940  0.74167  0.36749  1.0000
  H   H5        1.0  0.28708  0.03237  0.54373  1.0000
  H   H6        1.0  0.71160  0.96613  0.45685  1.0000
  H   H7        1.0  0.38134  0.01864  0.33495  1.0000
  H   H8        1.0  0.61632  0.97777  0.66568  1.0000
  H   H9        1.0  0.60866  0.16630  0.91280  1.0000
  H   H10       1.0  0.39172  0.83447  0.08602  1.0000
  H   H11       1.0  0.75171  0.86712  0.25227  1.0000
  H   H12       1.0  0.24974  0.13355  0.74604  1.0000
  C   C1        1.0  0.08233  0.23773  0.30575  1.0000
  C   C2        1.0  0.91671  0.76029  0.69465  1.0000
  C   C3        1.0  0.88267  0.36609  0.35582  1.0000
  C   C4        1.0  0.11759  0.63367  0.64442  1.0000
  C   C5        1.0  0.83078  0.37325  0.47369  1.0000
  C   C6        1.0  0.17001  0.62734  0.52655  1.0000
  C   C7        1.0  0.97536  0.25374  0.54118  1.0000
  C   C8        1.0  0.02478  0.74637  0.45918  1.0000
  C   C9        1.0  0.17428  0.12750  0.49137  1.0000
  C   C10       1.0  0.82491  0.87136  0.50908  1.0000
  C   C11       1.0  0.22810  0.11928  0.37403  1.0000
  C   C12       1.0  0.77048  0.87843  0.62646  1.0000
  S   S1        1.0  0.67687  0.51948  0.28001  1.0000
  S   S2        1.0  0.32345  0.48169  0.72060  1.0000
  O   O1        1.0  0.24990  0.42916  0.09086  1.0000
  O   O2        1.0  0.75164  0.56840  0.91342  1.0000
  O   O3        1.0  0.03676  0.16236  0.05419  1.0000
  O   O4        1.0  0.96369  0.83870  0.94460  1.0000
  O   O5        1.0  0.45040  0.03938  0.13151  1.0000
  O   O6        1.0  0.54964  0.95961  0.86838  1.0000
  O   O7        1.0  0.80144  0.54069  0.16240  1.0000
  O   O8        1.0  0.19754  0.46066  0.83802  1.0000
  O   O9        1.0  0.50538  0.42106  0.27599  1.0000
  O   O10       1.0  0.49376  0.58101  0.72544  1.0000
  O   O11       1.0  0.59766  0.70128  0.33724  1.0000
  O   O12       1.0  0.40465  0.29978  0.66355  1.0000
  O   O13       1.0  0.67882  0.24579  0.95248  1.0000
  O   O14       1.0  0.32102  0.75793  0.04447  1.0000
  O   O15       1.0  0.87697  0.90553  0.20323  1.0000
  O   O16       1.0  0.12431  0.09442  0.79449  1.0000
