data_image0
_chemical_formula_structural       Tb4P4H36C32N4O36
_chemical_formula_sum              "Tb4 P4 H36 C32 N4 O36"
_cell_length_a       9.477
_cell_length_b       10.4856
_cell_length_c       15.562
_cell_angle_alpha    89.9999
_cell_angle_beta     102.752
_cell_angle_gamma    89.9998

_space_group_name_H-M_alt    "P 1"
_space_group_IT_number       1

loop_
  _space_group_symop_operation_xyz
  'x, y, z'

loop_
  _atom_site_type_symbol
  _atom_site_label
  _atom_site_symmetry_multiplicity
  _atom_site_fract_x
  _atom_site_fract_y
  _atom_site_fract_z
  _atom_site_occupancy
  Tb  Tb1       1.0  0.21704  0.11790  0.39638  1.0000
  Tb  Tb2       1.0  0.28297  0.61790  0.10362  1.0000
  Tb  Tb3       1.0  0.78297  0.88210  0.60362  1.0000
  Tb  Tb4       1.0  0.71704  0.38210  0.89638  1.0000
  P   P1        1.0  0.16549  0.86436  0.23280  1.0000
  P   P2        1.0  0.33451  0.36436  0.26720  1.0000
  P   P3        1.0  0.83450  0.13564  0.76720  1.0000
  P   P4        1.0  0.66549  0.63564  0.73280  1.0000
  H   H1        1.0  0.33368  0.88372  0.92786  1.0000
  H   H2        1.0  0.16631  0.38372  0.57214  1.0000
  H   H3        1.0  0.66632  0.11628  0.07214  1.0000
  H   H4        1.0  0.83369  0.61628  0.42786  1.0000
  H   H5        1.0  0.39545  0.12041  0.92360  1.0000
  H   H6        1.0  0.10455  0.62041  0.57640  1.0000
  H   H7        1.0  0.60456  0.87960  0.07640  1.0000
  H   H8        1.0  0.89544  0.37959  0.42360  1.0000
  H   H9        1.0  0.29424  0.26986  0.02188  1.0000
  H   H10       1.0  0.20575  0.76986  0.47812  1.0000
  H   H11       1.0  0.70576  0.73014  0.97812  1.0000
  H   H12       1.0  0.79423  0.23014  0.52187  1.0000
  H   H13       1.0  0.14556  0.17960  0.12086  1.0000
  H   H14       1.0  0.35443  0.67961  0.37914  1.0000
  H   H15       1.0  0.85444  0.82040  0.87914  1.0000
  H   H16       1.0  0.64555  0.32040  0.62085  1.0000
  H   H17       1.0  0.99939  0.84884  0.09361  1.0000
  H   H18       1.0  0.50061  0.34884  0.40639  1.0000
  H   H19       1.0  0.00062  0.15116  0.90638  1.0000
  H   H20       1.0  0.49939  0.65116  0.59361  1.0000
  H   H21       1.0  0.98687  0.00001  0.14579  1.0000
  H   H22       1.0  0.51312  0.50002  0.35421  1.0000
  H   H23       1.0  0.01313  0.99998  0.85421  1.0000
  H   H24       1.0  0.48686  0.49999  0.64579  1.0000
  H   H25       1.0  0.02961  0.84512  0.32581  1.0000
  H   H26       1.0  0.47039  0.34511  0.17418  1.0000
  H   H27       1.0  0.97039  0.15488  0.67417  1.0000
  H   H28       1.0  0.52962  0.65488  0.82582  1.0000
  H   H29       1.0  0.00980  0.25648  0.26973  1.0000
  H   H30       1.0  0.49022  0.75647  0.23028  1.0000
  H   H31       1.0  0.99021  0.74353  0.73028  1.0000
  H   H32       1.0  0.50980  0.24353  0.76973  1.0000
  H   H33       1.0  0.88570  0.16961  0.29389  1.0000
  H   H34       1.0  0.61430  0.66960  0.20611  1.0000
  H   H35       1.0  0.11430  0.83041  0.70611  1.0000
  H   H36       1.0  0.38570  0.33040  0.79389  1.0000
  C   C1        1.0  0.29533  0.95680  0.96685  1.0000
  C   C2        1.0  0.20468  0.45680  0.53315  1.0000
  C   C3        1.0  0.70469  0.04321  0.03315  1.0000
  C   C4        1.0  0.79532  0.54320  0.46685  1.0000
  C   C5        1.0  0.32816  0.08534  0.96696  1.0000
  C   C6        1.0  0.17183  0.58534  0.53304  1.0000
  C   C7        1.0  0.67184  0.91467  0.03304  1.0000
  C   C8        1.0  0.82816  0.41466  0.46696  1.0000
  C   C9        1.0  0.27362  0.16791  0.02219  1.0000
  C   C10       1.0  0.22637  0.66790  0.47781  1.0000
  C   C11       1.0  0.72638  0.83210  0.97781  1.0000
  C   C12       1.0  0.77361  0.33209  0.52219  1.0000
  C   C13       1.0  0.18830  0.11813  0.07628  1.0000
  C   C14       1.0  0.31169  0.61813  0.42371  1.0000
  C   C15       1.0  0.81169  0.88187  0.92371  1.0000
  C   C16       1.0  0.68830  0.38187  0.57629  1.0000
  C   C17       1.0  0.15419  0.98882  0.07478  1.0000
  C   C18       1.0  0.34581  0.48882  0.42522  1.0000
  C   C19       1.0  0.84581  0.01118  0.92521  1.0000
  C   C20       1.0  0.65419  0.51118  0.57479  1.0000
  C   C21       1.0  0.06119  0.92883  0.12888  1.0000
  C   C22       1.0  0.43881  0.42883  0.37112  1.0000
  C   C23       1.0  0.93882  0.07116  0.87112  1.0000
  C   C24       1.0  0.56119  0.57117  0.62888  1.0000
  C   C25       1.0  0.54288  0.03706  0.47068  1.0000
  C   C26       1.0  0.95714  0.53707  0.02933  1.0000
  C   C27       1.0  0.45713  0.96292  0.52933  1.0000
  C   C28       1.0  0.04288  0.46293  0.97067  1.0000
  C   C29       1.0  0.01501  0.05775  0.53165  1.0000
  C   C30       1.0  0.48497  0.55776  0.96836  1.0000
  C   C31       1.0  0.98496  0.94223  0.46835  1.0000
  C   C32       1.0  0.51503  0.44224  0.03165  1.0000
  N   N1        1.0  0.20937  0.91047  0.01934  1.0000
  N   N2        1.0  0.29064  0.41047  0.48066  1.0000
  N   N3        1.0  0.79064  0.08953  0.98066  1.0000
  N   N4        1.0  0.70937  0.58953  0.51934  1.0000
  O   O1        1.0  0.23198  0.97522  0.29034  1.0000
  O   O2        1.0  0.26802  0.47522  0.20967  1.0000
  O   O3        1.0  0.76802  0.02477  0.70967  1.0000
  O   O4        1.0  0.73198  0.52478  0.79033  1.0000
  O   O5        1.0  0.04986  0.79250  0.27502  1.0000
  O   O6        1.0  0.45014  0.29250  0.22498  1.0000
  O   O7        1.0  0.95012  0.20750  0.72497  1.0000
  O   O8        1.0  0.54986  0.70750  0.77502  1.0000
  O   O9        1.0  0.27392  0.76926  0.21119  1.0000
  O   O10       1.0  0.22607  0.26926  0.28881  1.0000
  O   O11       1.0  0.72607  0.23075  0.78880  1.0000
  O   O12       1.0  0.77393  0.73074  0.71119  1.0000
  O   O13       1.0  0.17406  0.78852  0.01400  1.0000
  O   O14       1.0  0.32596  0.28852  0.48600  1.0000
  O   O15       1.0  0.82597  0.21148  0.98601  1.0000
  O   O16       1.0  0.67405  0.71148  0.51400  1.0000
  O   O17       1.0  0.67950  0.02289  0.48964  1.0000
  O   O18       1.0  0.82050  0.52290  0.01036  1.0000
  O   O19       1.0  0.32049  0.97711  0.51036  1.0000
  O   O20       1.0  0.17951  0.47711  0.98964  1.0000
  O   O21       1.0  0.47087  0.10498  0.40976  1.0000
  O   O22       1.0  0.02913  0.60499  0.09024  1.0000
  O   O23       1.0  0.52912  0.89501  0.59024  1.0000
  O   O24       1.0  0.97087  0.39502  0.90976  1.0000
  O   O25       1.0  0.08019  0.15218  0.50951  1.0000
  O   O26       1.0  0.41982  0.65218  0.99050  1.0000
  O   O27       1.0  0.91982  0.84782  0.49050  1.0000
  O   O28       1.0  0.58020  0.34783  0.00951  1.0000
  O   O29       1.0  0.96861  0.04605  0.60223  1.0000
  O   O30       1.0  0.53138  0.54606  0.89777  1.0000
  O   O31       1.0  0.03136  0.95394  0.39776  1.0000
  O   O32       1.0  0.46863  0.45395  0.10224  1.0000
  O   O33       1.0  0.97763  0.21148  0.31720  1.0000
  O   O34       1.0  0.52237  0.71147  0.18281  1.0000
  O   O35       1.0  0.02236  0.78854  0.68281  1.0000
  O   O36       1.0  0.47764  0.28852  0.81720  1.0000
