data_image0
_chemical_formula_structural       Gd4P4H36C32N4O36
_chemical_formula_sum              "Gd4 P4 H36 C32 N4 O36"
_cell_length_a       9.55085
_cell_length_b       10.5362
_cell_length_c       15.5146
_cell_angle_alpha    89.9998
_cell_angle_beta     102.972
_cell_angle_gamma    90.0002

_space_group_name_H-M_alt    "P 1"
_space_group_IT_number       1

loop_
  _space_group_symop_operation_xyz
  'x, y, z'

loop_
  _atom_site_type_symbol
  _atom_site_label
  _atom_site_symmetry_multiplicity
  _atom_site_fract_x
  _atom_site_fract_y
  _atom_site_fract_z
  _atom_site_occupancy
  Gd  Gd1       1.0  0.21740  0.12026  0.39762  1.0000
  Gd  Gd2       1.0  0.28259  0.62025  0.10239  1.0000
  Gd  Gd3       1.0  0.78261  0.87974  0.60238  1.0000
  Gd  Gd4       1.0  0.71739  0.37974  0.89762  1.0000
  P   P1        1.0  0.16684  0.86732  0.23252  1.0000
  P   P2        1.0  0.33316  0.36733  0.26749  1.0000
  P   P3        1.0  0.83316  0.13267  0.76749  1.0000
  P   P4        1.0  0.66684  0.63267  0.73251  1.0000
  H   H1        1.0  0.33489  0.88774  0.92710  1.0000
  H   H2        1.0  0.16510  0.38774  0.57290  1.0000
  H   H3        1.0  0.66510  0.11226  0.07290  1.0000
  H   H4        1.0  0.83489  0.61227  0.42709  1.0000
  H   H5        1.0  0.39649  0.12323  0.92425  1.0000
  H   H6        1.0  0.10350  0.62323  0.57574  1.0000
  H   H7        1.0  0.60349  0.87677  0.07574  1.0000
  H   H8        1.0  0.89650  0.37678  0.42425  1.0000
  H   H9        1.0  0.29472  0.27113  0.02242  1.0000
  H   H10       1.0  0.20527  0.77113  0.47758  1.0000
  H   H11       1.0  0.70528  0.72887  0.97758  1.0000
  H   H12       1.0  0.79473  0.22888  0.52241  1.0000
  H   H13       1.0  0.14653  0.18005  0.12089  1.0000
  H   H14       1.0  0.35347  0.68005  0.37911  1.0000
  H   H15       1.0  0.85348  0.81995  0.87912  1.0000
  H   H16       1.0  0.64653  0.31995  0.62088  1.0000
  H   H17       1.0  0.00249  0.85067  0.09216  1.0000
  H   H18       1.0  0.49751  0.35066  0.40784  1.0000
  H   H19       1.0  0.99750  0.14934  0.90784  1.0000
  H   H20       1.0  0.50249  0.64933  0.59215  1.0000
  H   H21       1.0  0.98875  0.00115  0.14410  1.0000
  H   H22       1.0  0.51126  0.50114  0.35590  1.0000
  H   H23       1.0  0.01127  0.99886  0.85590  1.0000
  H   H24       1.0  0.48874  0.49885  0.64409  1.0000
  H   H25       1.0  0.03056  0.84878  0.32493  1.0000
  H   H26       1.0  0.46944  0.34878  0.17508  1.0000
  H   H27       1.0  0.96944  0.15121  0.67507  1.0000
  H   H28       1.0  0.53056  0.65121  0.82493  1.0000
  H   H29       1.0  0.01707  0.26245  0.27301  1.0000
  H   H30       1.0  0.48293  0.76244  0.22699  1.0000
  H   H31       1.0  0.98294  0.73756  0.72699  1.0000
  H   H32       1.0  0.51706  0.23756  0.77301  1.0000
  H   H33       1.0  0.88929  0.17698  0.29223  1.0000
  H   H34       1.0  0.61071  0.67699  0.20777  1.0000
  H   H35       1.0  0.11071  0.82302  0.70778  1.0000
  H   H36       1.0  0.38929  0.32302  0.79222  1.0000
  C   C1        1.0  0.29662  0.95993  0.96640  1.0000
  C   C2        1.0  0.20338  0.45993  0.53360  1.0000
  C   C3        1.0  0.70338  0.04007  0.03360  1.0000
  C   C4        1.0  0.79661  0.54008  0.46639  1.0000
  C   C5        1.0  0.32902  0.08792  0.96708  1.0000
  C   C6        1.0  0.17098  0.58792  0.53292  1.0000
  C   C7        1.0  0.67097  0.91207  0.03291  1.0000
  C   C8        1.0  0.82902  0.41208  0.46708  1.0000
  C   C9        1.0  0.27425  0.16965  0.02234  1.0000
  C   C10       1.0  0.22574  0.66964  0.47767  1.0000
  C   C11       1.0  0.72574  0.83036  0.97766  1.0000
  C   C12       1.0  0.77426  0.33036  0.52233  1.0000
  C   C13       1.0  0.18930  0.11954  0.07604  1.0000
  C   C14       1.0  0.31070  0.61953  0.42396  1.0000
  C   C15       1.0  0.81071  0.88048  0.92396  1.0000
  C   C16       1.0  0.68930  0.38047  0.57604  1.0000
  C   C17       1.0  0.15568  0.99075  0.07400  1.0000
  C   C18       1.0  0.34433  0.49074  0.42601  1.0000
  C   C19       1.0  0.84433  0.00926  0.92600  1.0000
  C   C20       1.0  0.65567  0.50925  0.57399  1.0000
  C   C21       1.0  0.06321  0.93059  0.12773  1.0000
  C   C22       1.0  0.43679  0.43058  0.37227  1.0000
  C   C23       1.0  0.93680  0.06942  0.87227  1.0000
  C   C24       1.0  0.56321  0.56942  0.62773  1.0000
  C   C25       1.0  0.54247  0.03834  0.47130  1.0000
  C   C26       1.0  0.95753  0.53834  0.02870  1.0000
  C   C27       1.0  0.45754  0.96167  0.52871  1.0000
  C   C28       1.0  0.04246  0.46166  0.97129  1.0000
  C   C29       1.0  0.01571  0.05641  0.53278  1.0000
  C   C30       1.0  0.48430  0.55641  0.96723  1.0000
  C   C31       1.0  0.98430  0.94360  0.46721  1.0000
  C   C32       1.0  0.51571  0.44359  0.03279  1.0000
  N   N1        1.0  0.21093  0.91331  0.01845  1.0000
  N   N2        1.0  0.28908  0.41331  0.48156  1.0000
  N   N3        1.0  0.78908  0.08669  0.98156  1.0000
  N   N4        1.0  0.71092  0.58670  0.51844  1.0000
  O   O1        1.0  0.23243  0.97829  0.28988  1.0000
  O   O2        1.0  0.26758  0.47830  0.21013  1.0000
  O   O3        1.0  0.76758  0.02170  0.71012  1.0000
  O   O4        1.0  0.73243  0.52170  0.78987  1.0000
  O   O5        1.0  0.05237  0.79573  0.27482  1.0000
  O   O6        1.0  0.44762  0.29572  0.22518  1.0000
  O   O7        1.0  0.94763  0.20427  0.72518  1.0000
  O   O8        1.0  0.55237  0.70426  0.77481  1.0000
  O   O9        1.0  0.27476  0.77250  0.21147  1.0000
  O   O10       1.0  0.22523  0.27251  0.28853  1.0000
  O   O11       1.0  0.72523  0.22749  0.78853  1.0000
  O   O12       1.0  0.77476  0.72749  0.71146  1.0000
  O   O13       1.0  0.17609  0.79189  0.01251  1.0000
  O   O14       1.0  0.32391  0.29188  0.48749  1.0000
  O   O15       1.0  0.82391  0.20811  0.98749  1.0000
  O   O16       1.0  0.67607  0.70812  0.51250  1.0000
  O   O17       1.0  0.67807  0.02364  0.48973  1.0000
  O   O18       1.0  0.82193  0.52364  0.01027  1.0000
  O   O19       1.0  0.32194  0.97636  0.51028  1.0000
  O   O20       1.0  0.17807  0.47636  0.98972  1.0000
  O   O21       1.0  0.47088  0.10868  0.41179  1.0000
  O   O22       1.0  0.02913  0.60867  0.08822  1.0000
  O   O23       1.0  0.52914  0.89133  0.58823  1.0000
  O   O24       1.0  0.97086  0.39132  0.91177  1.0000
  O   O25       1.0  0.08198  0.15058  0.51245  1.0000
  O   O26       1.0  0.41801  0.65058  0.98755  1.0000
  O   O27       1.0  0.91802  0.84941  0.48754  1.0000
  O   O28       1.0  0.58198  0.34941  0.01246  1.0000
  O   O29       1.0  0.96911  0.04288  0.60317  1.0000
  O   O30       1.0  0.53090  0.54289  0.89684  1.0000
  O   O31       1.0  0.03090  0.95711  0.39683  1.0000
  O   O32       1.0  0.46910  0.45712  0.10318  1.0000
  O   O33       1.0  0.97970  0.21809  0.31884  1.0000
  O   O34       1.0  0.52029  0.71809  0.18117  1.0000
  O   O35       1.0  0.02030  0.78191  0.68117  1.0000
  O   O36       1.0  0.47970  0.28191  0.81883  1.0000
