data_image0
_chemical_formula_structural       Dy4P4H36C32N4O36
_chemical_formula_sum              "Dy4 P4 H36 C32 N4 O36"
_cell_length_a       9.4733
_cell_length_b       10.482
_cell_length_c       15.5507
_cell_angle_alpha    89.9999
_cell_angle_beta     102.458
_cell_angle_gamma    89.9999

_space_group_name_H-M_alt    "P 1"
_space_group_IT_number       1

loop_
  _space_group_symop_operation_xyz
  'x, y, z'

loop_
  _atom_site_type_symbol
  _atom_site_label
  _atom_site_symmetry_multiplicity
  _atom_site_fract_x
  _atom_site_fract_y
  _atom_site_fract_z
  _atom_site_occupancy
  Dy  Dy1       1.0  0.21732  0.10998  0.39389  1.0000
  Dy  Dy2       1.0  0.28268  0.60998  0.10611  1.0000
  Dy  Dy3       1.0  0.78267  0.89002  0.60611  1.0000
  Dy  Dy4       1.0  0.71732  0.39001  0.89389  1.0000
  P   P1        1.0  0.16543  0.85597  0.23322  1.0000
  P   P2        1.0  0.33457  0.35597  0.26678  1.0000
  P   P3        1.0  0.83457  0.14402  0.76677  1.0000
  P   P4        1.0  0.66543  0.64402  0.73322  1.0000
  H   H1        1.0  0.33052  0.87212  0.92718  1.0000
  H   H2        1.0  0.16949  0.37212  0.57283  1.0000
  H   H3        1.0  0.66949  0.12788  0.07282  1.0000
  H   H4        1.0  0.83051  0.62788  0.42718  1.0000
  H   H5        1.0  0.39608  0.10750  0.92271  1.0000
  H   H6        1.0  0.10392  0.60749  0.57729  1.0000
  H   H7        1.0  0.60392  0.89251  0.07728  1.0000
  H   H8        1.0  0.89608  0.39251  0.42271  1.0000
  H   H9        1.0  0.29982  0.25919  0.02218  1.0000
  H   H10       1.0  0.20018  0.75918  0.47783  1.0000
  H   H11       1.0  0.70018  0.74082  0.97782  1.0000
  H   H12       1.0  0.79982  0.24082  0.52218  1.0000
  H   H13       1.0  0.14966  0.17140  0.12191  1.0000
  H   H14       1.0  0.35035  0.67140  0.37809  1.0000
  H   H15       1.0  0.85035  0.82861  0.87808  1.0000
  H   H16       1.0  0.64965  0.32860  0.62192  1.0000
  H   H17       1.0  0.99746  0.84285  0.09503  1.0000
  H   H18       1.0  0.50255  0.34284  0.40498  1.0000
  H   H19       1.0  0.00255  0.15716  0.90497  1.0000
  H   H20       1.0  0.49746  0.65715  0.59503  1.0000
  H   H21       1.0  0.98866  0.99444  0.14807  1.0000
  H   H22       1.0  0.51135  0.49444  0.35194  1.0000
  H   H23       1.0  0.01135  0.00557  0.85193  1.0000
  H   H24       1.0  0.48865  0.50556  0.64807  1.0000
  H   H25       1.0  0.03270  0.83662  0.32844  1.0000
  H   H26       1.0  0.46730  0.33662  0.17155  1.0000
  H   H27       1.0  0.96730  0.16337  0.67155  1.0000
  H   H28       1.0  0.53270  0.66337  0.82845  1.0000
  H   H29       1.0  0.99418  0.24209  0.26139  1.0000
  H   H30       1.0  0.50582  0.74209  0.23861  1.0000
  H   H31       1.0  0.00583  0.75791  0.73861  1.0000
  H   H32       1.0  0.49417  0.25790  0.76138  1.0000
  H   H33       1.0  0.87674  0.15925  0.29672  1.0000
  H   H34       1.0  0.62326  0.65924  0.20327  1.0000
  H   H35       1.0  0.12326  0.84075  0.70327  1.0000
  H   H36       1.0  0.37674  0.34075  0.79673  1.0000
  C   C1        1.0  0.29290  0.94587  0.96603  1.0000
  C   C2        1.0  0.20710  0.44586  0.53397  1.0000
  C   C3        1.0  0.70710  0.05414  0.03397  1.0000
  C   C4        1.0  0.79290  0.55414  0.46603  1.0000
  C   C5        1.0  0.32768  0.07399  0.96602  1.0000
  C   C6        1.0  0.17233  0.57399  0.53399  1.0000
  C   C7        1.0  0.67233  0.92601  0.03398  1.0000
  C   C8        1.0  0.82767  0.42601  0.46602  1.0000
  C   C9        1.0  0.27577  0.15775  0.02180  1.0000
  C   C10       1.0  0.22423  0.65775  0.47820  1.0000
  C   C11       1.0  0.72424  0.84226  0.97820  1.0000
  C   C12       1.0  0.77577  0.34225  0.52180  1.0000
  C   C13       1.0  0.19016  0.10941  0.07647  1.0000
  C   C14       1.0  0.30985  0.60941  0.42354  1.0000
  C   C15       1.0  0.80985  0.89060  0.92353  1.0000
  C   C16       1.0  0.69015  0.39059  0.57647  1.0000
  C   C17       1.0  0.15384  0.98051  0.07512  1.0000
  C   C18       1.0  0.34616  0.48051  0.42489  1.0000
  C   C19       1.0  0.84617  0.01949  0.92488  1.0000
  C   C20       1.0  0.65384  0.51949  0.57512  1.0000
  C   C21       1.0  0.06087  0.92204  0.13013  1.0000
  C   C22       1.0  0.43914  0.42203  0.36987  1.0000
  C   C23       1.0  0.93914  0.07797  0.86987  1.0000
  C   C24       1.0  0.56086  0.57796  0.63013  1.0000
  C   C25       1.0  0.54254  0.03469  0.46924  1.0000
  C   C26       1.0  0.95746  0.53470  0.03077  1.0000
  C   C27       1.0  0.45746  0.96531  0.53077  1.0000
  C   C28       1.0  0.04255  0.46531  0.96923  1.0000
  C   C29       1.0  0.01140  0.06128  0.52838  1.0000
  C   C30       1.0  0.48858  0.56128  0.97162  1.0000
  C   C31       1.0  0.98858  0.93871  0.47162  1.0000
  C   C32       1.0  0.51140  0.43872  0.02838  1.0000
  N   N1        1.0  0.20714  0.90078  0.01931  1.0000
  N   N2        1.0  0.29286  0.40078  0.48069  1.0000
  N   N3        1.0  0.79287  0.09922  0.98068  1.0000
  N   N4        1.0  0.70713  0.59922  0.51932  1.0000
  O   O1        1.0  0.23441  0.96545  0.29104  1.0000
  O   O2        1.0  0.26559  0.46545  0.20896  1.0000
  O   O3        1.0  0.76559  0.03455  0.70897  1.0000
  O   O4        1.0  0.73441  0.53455  0.79104  1.0000
  O   O5        1.0  0.04950  0.78505  0.27623  1.0000
  O   O6        1.0  0.45050  0.28505  0.22377  1.0000
  O   O7        1.0  0.95049  0.21495  0.72377  1.0000
  O   O8        1.0  0.54951  0.71494  0.77624  1.0000
  O   O9        1.0  0.27251  0.76041  0.21058  1.0000
  O   O10       1.0  0.22749  0.26041  0.28942  1.0000
  O   O11       1.0  0.72749  0.23959  0.78942  1.0000
  O   O12       1.0  0.77251  0.73958  0.71058  1.0000
  O   O13       1.0  0.17081  0.77913  0.01482  1.0000
  O   O14       1.0  0.32919  0.27913  0.48518  1.0000
  O   O15       1.0  0.82919  0.22087  0.98518  1.0000
  O   O16       1.0  0.67081  0.72087  0.51482  1.0000
  O   O17       1.0  0.67934  0.02248  0.48882  1.0000
  O   O18       1.0  0.82065  0.52248  0.01118  1.0000
  O   O19       1.0  0.32065  0.97752  0.51120  1.0000
  O   O20       1.0  0.17933  0.47752  0.98881  1.0000
  O   O21       1.0  0.46997  0.09718  0.40570  1.0000
  O   O22       1.0  0.03002  0.59718  0.09430  1.0000
  O   O23       1.0  0.53002  0.90282  0.59431  1.0000
  O   O24       1.0  0.96997  0.40282  0.90569  1.0000
  O   O25       1.0  0.07402  0.15425  0.50184  1.0000
  O   O26       1.0  0.42597  0.65424  0.99815  1.0000
  O   O27       1.0  0.92596  0.84576  0.49816  1.0000
  O   O28       1.0  0.57404  0.34575  0.00184  1.0000
  O   O29       1.0  0.96257  0.05619  0.59850  1.0000
  O   O30       1.0  0.53741  0.55618  0.90149  1.0000
  O   O31       1.0  0.03742  0.94380  0.40150  1.0000
  O   O32       1.0  0.46257  0.44380  0.09850  1.0000
  O   O33       1.0  0.97834  0.18146  0.30591  1.0000
  O   O34       1.0  0.52166  0.68146  0.19409  1.0000
  O   O35       1.0  0.02166  0.81855  0.69409  1.0000
  O   O36       1.0  0.47834  0.31854  0.80591  1.0000
