data_image0
_chemical_formula_structural       Ho4P4H36C32N4O36
_chemical_formula_sum              "Ho4 P4 H36 C32 N4 O36"
_cell_length_a       9.54441
_cell_length_b       10.4629
_cell_length_c       15.4649
_cell_angle_alpha    90.0002
_cell_angle_beta     101.993
_cell_angle_gamma    90.0001

_space_group_name_H-M_alt    "P 1"
_space_group_IT_number       1

loop_
  _space_group_symop_operation_xyz
  'x, y, z'

loop_
  _atom_site_type_symbol
  _atom_site_label
  _atom_site_symmetry_multiplicity
  _atom_site_fract_x
  _atom_site_fract_y
  _atom_site_fract_z
  _atom_site_occupancy
  Ho  Ho1       1.0  0.21962  0.10370  0.39423  1.0000
  Ho  Ho2       1.0  0.28039  0.60370  0.10578  1.0000
  Ho  Ho3       1.0  0.78036  0.89630  0.60577  1.0000
  Ho  Ho4       1.0  0.71964  0.39630  0.89423  1.0000
  P   P1        1.0  0.16893  0.85180  0.23330  1.0000
  P   P2        1.0  0.33108  0.35180  0.26670  1.0000
  P   P3        1.0  0.83107  0.14820  0.76670  1.0000
  P   P4        1.0  0.66893  0.64820  0.73330  1.0000
  H   H1        1.0  0.33051  0.86840  0.92657  1.0000
  H   H2        1.0  0.16947  0.36840  0.57342  1.0000
  H   H3        1.0  0.66948  0.13160  0.07342  1.0000
  H   H4        1.0  0.83051  0.63160  0.42657  1.0000
  H   H5        1.0  0.39679  0.10305  0.92289  1.0000
  H   H6        1.0  0.10319  0.60305  0.57710  1.0000
  H   H7        1.0  0.60319  0.89695  0.07711  1.0000
  H   H8        1.0  0.89679  0.39695  0.42288  1.0000
  H   H9        1.0  0.29680  0.25644  0.02093  1.0000
  H   H10       1.0  0.20319  0.75644  0.47907  1.0000
  H   H11       1.0  0.70319  0.74356  0.97907  1.0000
  H   H12       1.0  0.79680  0.24356  0.52092  1.0000
  H   H13       1.0  0.14516  0.16873  0.12046  1.0000
  H   H14       1.0  0.35484  0.66873  0.37954  1.0000
  H   H15       1.0  0.85483  0.83127  0.87954  1.0000
  H   H16       1.0  0.64517  0.33127  0.62046  1.0000
  H   H17       1.0  0.99847  0.83915  0.09690  1.0000
  H   H18       1.0  0.50152  0.33915  0.40310  1.0000
  H   H19       1.0  0.00153  0.16084  0.90310  1.0000
  H   H20       1.0  0.49847  0.66084  0.59691  1.0000
  H   H21       1.0  0.99158  0.99076  0.15145  1.0000
  H   H22       1.0  0.50843  0.49076  0.34855  1.0000
  H   H23       1.0  0.00842  0.00924  0.84855  1.0000
  H   H24       1.0  0.49159  0.50923  0.65145  1.0000
  H   H25       1.0  0.04190  0.82609  0.33153  1.0000
  H   H26       1.0  0.45810  0.32609  0.16847  1.0000
  H   H27       1.0  0.95809  0.17391  0.66847  1.0000
  H   H28       1.0  0.54191  0.67391  0.83153  1.0000
  H   H29       1.0  0.01513  0.23123  0.26768  1.0000
  H   H30       1.0  0.48487  0.73124  0.23233  1.0000
  H   H31       1.0  0.98486  0.76876  0.73232  1.0000
  H   H32       1.0  0.51514  0.26877  0.76768  1.0000
  H   H33       1.0  0.89347  0.17129  0.31137  1.0000
  H   H34       1.0  0.60654  0.67129  0.18864  1.0000
  H   H35       1.0  0.10653  0.82871  0.68863  1.0000
  H   H36       1.0  0.39348  0.32872  0.81138  1.0000
  C   C1        1.0  0.29246  0.94200  0.96568  1.0000
  C   C2        1.0  0.20753  0.44200  0.53431  1.0000
  C   C3        1.0  0.70753  0.05800  0.03431  1.0000
  C   C4        1.0  0.79246  0.55800  0.46568  1.0000
  C   C5        1.0  0.32663  0.07044  0.96557  1.0000
  C   C6        1.0  0.17336  0.57044  0.53442  1.0000
  C   C7        1.0  0.67336  0.92956  0.03442  1.0000
  C   C8        1.0  0.82663  0.42956  0.46557  1.0000
  C   C9        1.0  0.27293  0.15484  0.02064  1.0000
  C   C10       1.0  0.22707  0.65484  0.47936  1.0000
  C   C11       1.0  0.72707  0.84516  0.97936  1.0000
  C   C12       1.0  0.77293  0.34515  0.52064  1.0000
  C   C13       1.0  0.18705  0.10640  0.07545  1.0000
  C   C14       1.0  0.31295  0.60640  0.42455  1.0000
  C   C15       1.0  0.81295  0.89360  0.92455  1.0000
  C   C16       1.0  0.68705  0.39360  0.57545  1.0000
  C   C17       1.0  0.15263  0.97697  0.07498  1.0000
  C   C18       1.0  0.34737  0.47697  0.42502  1.0000
  C   C19       1.0  0.84737  0.02303  0.92502  1.0000
  C   C20       1.0  0.65263  0.52303  0.57497  1.0000
  C   C21       1.0  0.06190  0.91841  0.13155  1.0000
  C   C22       1.0  0.43810  0.41841  0.36845  1.0000
  C   C23       1.0  0.93810  0.08159  0.86845  1.0000
  C   C24       1.0  0.56191  0.58158  0.63155  1.0000
  C   C25       1.0  0.54129  0.03312  0.46777  1.0000
  C   C26       1.0  0.95872  0.53313  0.03223  1.0000
  C   C27       1.0  0.45868  0.96687  0.53222  1.0000
  C   C28       1.0  0.04132  0.46688  0.96778  1.0000
  C   C29       1.0  0.00584  0.06490  0.52447  1.0000
  C   C30       1.0  0.49416  0.56492  0.97553  1.0000
  C   C31       1.0  0.99414  0.93509  0.47553  1.0000
  C   C32       1.0  0.50586  0.43510  0.02448  1.0000
  N   N1        1.0  0.20676  0.89671  0.01923  1.0000
  N   N2        1.0  0.29323  0.39671  0.48077  1.0000
  N   N3        1.0  0.79323  0.10329  0.98077  1.0000
  N   N4        1.0  0.70676  0.60329  0.51922  1.0000
  O   O1        1.0  0.23805  0.96033  0.29179  1.0000
  O   O2        1.0  0.26195  0.46033  0.20822  1.0000
  O   O3        1.0  0.76193  0.03967  0.70821  1.0000
  O   O4        1.0  0.73807  0.53967  0.79179  1.0000
  O   O5        1.0  0.05814  0.77676  0.27814  1.0000
  O   O6        1.0  0.44186  0.27676  0.22186  1.0000
  O   O7        1.0  0.94186  0.22323  0.72186  1.0000
  O   O8        1.0  0.55814  0.72323  0.77814  1.0000
  O   O9        1.0  0.27606  0.75852  0.20781  1.0000
  O   O10       1.0  0.22394  0.25852  0.29220  1.0000
  O   O11       1.0  0.72395  0.24148  0.79220  1.0000
  O   O12       1.0  0.77606  0.74148  0.70780  1.0000
  O   O13       1.0  0.17191  0.77463  0.01520  1.0000
  O   O14       1.0  0.32808  0.27463  0.48479  1.0000
  O   O15       1.0  0.82809  0.22537  0.98479  1.0000
  O   O16       1.0  0.67191  0.72536  0.51520  1.0000
  O   O17       1.0  0.67687  0.02092  0.48581  1.0000
  O   O18       1.0  0.82314  0.52094  0.01419  1.0000
  O   O19       1.0  0.32311  0.97905  0.51418  1.0000
  O   O20       1.0  0.17689  0.47906  0.98582  1.0000
  O   O21       1.0  0.46822  0.09354  0.40360  1.0000
  O   O22       1.0  0.03179  0.59355  0.09640  1.0000
  O   O23       1.0  0.53176  0.90645  0.59640  1.0000
  O   O24       1.0  0.96824  0.40645  0.90361  1.0000
  O   O25       1.0  0.06593  0.15616  0.49337  1.0000
  O   O26       1.0  0.43407  0.65617  0.00663  1.0000
  O   O27       1.0  0.93405  0.84383  0.50664  1.0000
  O   O28       1.0  0.56596  0.34384  0.99337  1.0000
  O   O29       1.0  0.95149  0.06719  0.59280  1.0000
  O   O30       1.0  0.54852  0.56721  0.90721  1.0000
  O   O31       1.0  0.04848  0.93280  0.40721  1.0000
  O   O32       1.0  0.45153  0.43282  0.09281  1.0000
  O   O33       1.0  0.98170  0.15283  0.29174  1.0000
  O   O34       1.0  0.51831  0.65283  0.20826  1.0000
  O   O35       1.0  0.01830  0.84717  0.70826  1.0000
  O   O36       1.0  0.48170  0.34718  0.79175  1.0000
