data_image0
_chemical_formula_structural       Zn2H28C40N4O16
_chemical_formula_sum              "Zn2 H28 C40 N4 O16"
_cell_length_a       8.23011
_cell_length_b       8.2301
_cell_length_c       14.6229
_cell_angle_alpha    86.7129
_cell_angle_beta     86.7131
_cell_angle_gamma    73.3771

_space_group_name_H-M_alt    "P 1"
_space_group_IT_number       1

loop_
  _space_group_symop_operation_xyz
  'x, y, z'

loop_
  _atom_site_type_symbol
  _atom_site_label
  _atom_site_symmetry_multiplicity
  _atom_site_fract_x
  _atom_site_fract_y
  _atom_site_fract_z
  _atom_site_occupancy
  Zn  Zn1       1.0  0.74921  0.25079  0.75000  1.0000
  Zn  Zn2       1.0  0.25079  0.74920  0.25000  1.0000
  H   H1        1.0  0.02556  0.42350  0.66027  1.0000
  H   H2        1.0  0.57650  0.97444  0.83973  1.0000
  H   H3        1.0  0.97444  0.57650  0.33973  1.0000
  H   H4        1.0  0.42350  0.02556  0.16027  1.0000
  H   H5        1.0  0.33947  0.31335  0.62789  1.0000
  H   H6        1.0  0.68665  0.66053  0.87211  1.0000
  H   H7        1.0  0.66053  0.68665  0.37211  1.0000
  H   H8        1.0  0.31336  0.33947  0.12789  1.0000
  H   H9        1.0  0.48540  0.00681  0.65789  1.0000
  H   H10       1.0  0.99319  0.51460  0.84211  1.0000
  H   H11       1.0  0.51461  0.99319  0.34211  1.0000
  H   H12       1.0  0.00681  0.48540  0.15788  1.0000
  H   H13       1.0  0.46228  0.71673  0.71847  1.0000
  H   H14       1.0  0.28327  0.53772  0.78153  1.0000
  H   H15       1.0  0.53773  0.28327  0.28154  1.0000
  H   H16       1.0  0.71673  0.46228  0.21847  1.0000
  H   H17       1.0  0.32513  0.47038  0.99027  1.0000
  H   H18       1.0  0.52962  0.67488  0.50973  1.0000
  H   H19       1.0  0.67487  0.52961  0.00973  1.0000
  H   H20       1.0  0.47039  0.32512  0.49027  1.0000
  H   H21       1.0  0.29297  0.24968  0.89209  1.0000
  H   H22       1.0  0.75032  0.70703  0.60791  1.0000
  H   H23       1.0  0.70703  0.75032  0.10791  1.0000
  H   H24       1.0  0.24968  0.29297  0.39209  1.0000
  H   H25       1.0  0.90400  0.18659  0.97552  1.0000
  H   H26       1.0  0.81341  0.09600  0.52448  1.0000
  H   H27       1.0  0.09599  0.81341  0.02448  1.0000
  H   H28       1.0  0.18659  0.90401  0.47552  1.0000
  C   C1        1.0  0.09354  0.29102  0.67575  1.0000
  C   C2        1.0  0.70899  0.90646  0.82425  1.0000
  C   C3        1.0  0.90646  0.70898  0.32425  1.0000
  C   C4        1.0  0.29102  0.09354  0.17575  1.0000
  C   C5        1.0  0.26844  0.22778  0.65592  1.0000
  C   C6        1.0  0.77222  0.73156  0.84408  1.0000
  C   C7        1.0  0.73156  0.77222  0.34408  1.0000
  C   C8        1.0  0.22778  0.26844  0.15592  1.0000
  C   C9        1.0  0.34952  0.05779  0.67368  1.0000
  C   C10       1.0  0.94221  0.65048  0.82632  1.0000
  C   C11       1.0  0.65047  0.94221  0.32632  1.0000
  C   C12       1.0  0.05779  0.34952  0.17368  1.0000
  C   C13       1.0  0.25504  0.94963  0.71188  1.0000
  C   C14       1.0  0.05037  0.74496  0.78812  1.0000
  C   C15       1.0  0.74496  0.05037  0.28812  1.0000
  C   C16       1.0  0.94963  0.25504  0.21188  1.0000
  C   C17       1.0  0.32660  0.77198  0.73215  1.0000
  C   C18       1.0  0.22802  0.67340  0.76785  1.0000
  C   C19       1.0  0.67340  0.22802  0.26785  1.0000
  C   C20       1.0  0.77198  0.32660  0.23215  1.0000
  C   C21       1.0  0.07941  0.02401  0.73064  1.0000
  C   C22       1.0  0.97599  0.92059  0.76936  1.0000
  C   C23       1.0  0.92059  0.97599  0.26936  1.0000
  C   C24       1.0  0.02401  0.07940  0.23063  1.0000
  C   C25       1.0  0.53743  0.36923  0.89179  1.0000
  C   C26       1.0  0.63077  0.46257  0.60821  1.0000
  C   C27       1.0  0.46257  0.63077  0.10821  1.0000
  C   C28       1.0  0.36923  0.53743  0.39179  1.0000
  C   C29       1.0  0.45781  0.46313  0.97375  1.0000
  C   C30       1.0  0.53687  0.54220  0.52625  1.0000
  C   C31       1.0  0.54220  0.53687  0.02625  1.0000
  C   C32       1.0  0.46313  0.45781  0.47375  1.0000
  C   C33       1.0  0.18069  0.08338  0.94532  1.0000
  C   C34       1.0  0.91662  0.81931  0.55468  1.0000
  C   C35       1.0  0.81930  0.91662  0.05468  1.0000
  C   C36       1.0  0.08338  0.18070  0.44532  1.0000
  C   C37       1.0  0.01113  0.07245  0.98119  1.0000
  C   C38       1.0  0.92755  0.98887  0.51881  1.0000
  C   C39       1.0  0.98887  0.92756  0.01881  1.0000
  C   C40       1.0  0.07244  0.01113  0.48119  1.0000
  N   N1        1.0  0.00263  0.19162  0.71305  1.0000
  N   N2        1.0  0.80838  0.99737  0.78695  1.0000
  N   N3        1.0  0.99737  0.80838  0.28694  1.0000
  N   N4        1.0  0.19162  0.00263  0.21305  1.0000
  O   O1        1.0  0.68428  0.38130  0.86236  1.0000
  O   O2        1.0  0.61870  0.31571  0.63764  1.0000
  O   O3        1.0  0.31571  0.61869  0.13764  1.0000
  O   O4        1.0  0.38131  0.68429  0.36236  1.0000
  O   O5        1.0  0.45915  0.28367  0.85143  1.0000
  O   O6        1.0  0.71633  0.54085  0.64856  1.0000
  O   O7        1.0  0.54086  0.71632  0.14857  1.0000
  O   O8        1.0  0.28368  0.45915  0.35144  1.0000
  O   O9        1.0  0.30962  0.96233  0.94295  1.0000
  O   O10       1.0  0.03767  0.69038  0.55705  1.0000
  O   O11       1.0  0.69038  0.03767  0.05705  1.0000
  O   O12       1.0  0.96233  0.30962  0.44295  1.0000
  O   O13       1.0  0.17456  0.24238  0.91533  1.0000
  O   O14       1.0  0.75762  0.82544  0.58467  1.0000
  O   O15       1.0  0.82543  0.75763  0.08467  1.0000
  O   O16       1.0  0.24237  0.17457  0.41533  1.0000
