data_image0
_chemical_formula_structural       Mn2H28C32N4O12
_chemical_formula_sum              "Mn2 H28 C32 N4 O12"
_cell_length_a       8.58812
_cell_length_b       8.58812
_cell_length_c       10.7419
_cell_angle_alpha    105.274
_cell_angle_beta     105.275
_cell_angle_gamma    93.0093

_space_group_name_H-M_alt    "P 1"
_space_group_IT_number       1

loop_
  _space_group_symop_operation_xyz
  'x, y, z'

loop_
  _atom_site_type_symbol
  _atom_site_label
  _atom_site_symmetry_multiplicity
  _atom_site_fract_x
  _atom_site_fract_y
  _atom_site_fract_z
  _atom_site_occupancy
  Mn  Mn1       1.0  0.94276  0.05723  0.25001  1.0000
  Mn  Mn2       1.0  0.07004  0.92994  0.74997  1.0000
  H   H1        1.0  0.73890  0.98115  0.93334  1.0000
  H   H2        1.0  0.01886  0.26109  0.56668  1.0000
  H   H3        1.0  0.25751  0.03831  0.05678  1.0000
  H   H4        1.0  0.96172  0.74240  0.44312  1.0000
  H   H5        1.0  0.51344  0.08752  0.79441  1.0000
  H   H6        1.0  0.91248  0.48654  0.70560  1.0000
  H   H7        1.0  0.47618  0.93405  0.19976  1.0000
  H   H8        1.0  0.06603  0.52375  0.30018  1.0000
  H   H9        1.0  0.38282  0.31496  0.91011  1.0000
  H   H10       1.0  0.68507  0.61719  0.58990  1.0000
  H   H11       1.0  0.61100  0.70248  0.09279  1.0000
  H   H12       1.0  0.29762  0.38897  0.40722  1.0000
  H   H13       1.0  0.37241  0.51183  0.12625  1.0000
  H   H14       1.0  0.48822  0.62764  0.37374  1.0000
  H   H15       1.0  0.62161  0.49694  0.87319  1.0000
  H   H16       1.0  0.50313  0.37841  0.62687  1.0000
  H   H17       1.0  0.38758  0.91845  0.55549  1.0000
  H   H18       1.0  0.08157  0.61244  0.94455  1.0000
  H   H19       1.0  0.64322  0.08426  0.46100  1.0000
  H   H20       1.0  0.91576  0.35676  0.03901  1.0000
  H   H21       1.0  0.08378  0.16480  0.08409  1.0000
  H   H22       1.0  0.83519  0.91621  0.41592  1.0000
  H   H23       1.0  0.94568  0.82689  0.91705  1.0000
  H   H24       1.0  0.17309  0.05430  0.58293  1.0000
  H   H25       1.0  0.21426  0.17340  0.23122  1.0000
  H   H26       1.0  0.82659  0.78573  0.26878  1.0000
  H   H27       1.0  0.81097  0.82851  0.77411  1.0000
  H   H28       1.0  0.17149  0.18900  0.72588  1.0000
  C   C1        1.0  0.68223  0.08120  0.98073  1.0000
  C   C2        1.0  0.91881  0.31776  0.51929  1.0000
  C   C3        1.0  0.31245  0.93573  0.01200  1.0000
  C   C4        1.0  0.06429  0.68751  0.48796  1.0000
  C   C5        1.0  0.55550  0.14192  0.90292  1.0000
  C   C6        1.0  0.85810  0.44450  0.59710  1.0000
  C   C7        1.0  0.43688  0.87572  0.09168  1.0000
  C   C8        1.0  0.12432  0.56308  0.40831  1.0000
  C   C9        1.0  0.48351  0.26667  0.96705  1.0000
  C   C10       1.0  0.73335  0.51649  0.53297  1.0000
  C   C11       1.0  0.51137  0.74822  0.03257  1.0000
  C   C12       1.0  0.25184  0.48859  0.46745  1.0000
  C   C13       1.0  0.54041  0.33217  0.10830  1.0000
  C   C14       1.0  0.66784  0.45960  0.39171  1.0000
  C   C15       1.0  0.45562  0.67865  0.89230  1.0000
  C   C16       1.0  0.32137  0.54437  0.60772  1.0000
  C   C17       1.0  0.47383  0.46291  0.18186  1.0000
  C   C18       1.0  0.53712  0.52620  0.31813  1.0000
  C   C19       1.0  0.51962  0.54571  0.81809  1.0000
  C   C20       1.0  0.45430  0.48040  0.68193  1.0000
  C   C21       1.0  0.67117  0.26469  0.17812  1.0000
  C   C22       1.0  0.73533  0.32884  0.32189  1.0000
  C   C23       1.0  0.32500  0.74302  0.81969  1.0000
  C   C24       1.0  0.25696  0.67496  0.68025  1.0000
  C   C25       1.0  0.31454  0.05976  0.40937  1.0000
  C   C26       1.0  0.94021  0.68545  0.09065  1.0000
  C   C27       1.0  0.71484  0.94802  0.61105  1.0000
  C   C28       1.0  0.05200  0.28514  0.88895  1.0000
  C   C29       1.0  0.43453  0.98976  0.49989  1.0000
  C   C30       1.0  0.01025  0.56546  0.00014  1.0000
  C   C31       1.0  0.59616  0.01356  0.51686  1.0000
  C   C32       1.0  0.98647  0.40383  0.98316  1.0000
  N   N1        1.0  0.73900  0.14021  0.11429  1.0000
  N   N2        1.0  0.85980  0.26099  0.38571  1.0000
  N   N3        1.0  0.25497  0.87306  0.87706  1.0000
  N   N4        1.0  0.12693  0.74496  0.62289  1.0000
  O   O1        1.0  0.16607  0.04804  0.41689  1.0000
  O   O2        1.0  0.95187  0.83390  0.08308  1.0000
  O   O3        1.0  0.86587  0.96643  0.60951  1.0000
  O   O4        1.0  0.03358  0.13412  0.89050  1.0000
  O   O5        1.0  0.36132  0.12687  0.33118  1.0000
  O   O6        1.0  0.87313  0.63866  0.16885  1.0000
  O   O7        1.0  0.66535  0.87777  0.68645  1.0000
  O   O8        1.0  0.12227  0.33466  0.81357  1.0000
  O   O9        1.0  0.10224  0.19593  0.18240  1.0000
  O   O10       1.0  0.80405  0.89775  0.31760  1.0000
  O   O11       1.0  0.92454  0.80015  0.81700  1.0000
  O   O12       1.0  0.19982  0.07544  0.68297  1.0000
