data_image0
_chemical_formula_structural       Cd4H24C36N12Cl4O8
_chemical_formula_sum              "Cd4 H24 C36 N12 Cl4 O8"
_cell_length_a       5.96054
_cell_length_b       7.71054
_cell_length_c       22.0467
_cell_angle_alpha    89.9998
_cell_angle_beta     89.9995
_cell_angle_gamma    89.9993

_space_group_name_H-M_alt    "P 1"
_space_group_IT_number       1

loop_
  _space_group_symop_operation_xyz
  'x, y, z'

loop_
  _atom_site_type_symbol
  _atom_site_label
  _atom_site_symmetry_multiplicity
  _atom_site_fract_x
  _atom_site_fract_y
  _atom_site_fract_z
  _atom_site_occupancy
  Cd  Cd1       1.0  0.23510  0.31178  0.71806  1.0000
  Cd  Cd2       1.0  0.73508  0.68822  0.28194  1.0000
  Cd  Cd3       1.0  0.23510  0.81178  0.78194  1.0000
  Cd  Cd4       1.0  0.73507  0.18822  0.21806  1.0000
  H   H1        1.0  0.21364  0.58734  0.37237  1.0000
  H   H2        1.0  0.71365  0.41266  0.62763  1.0000
  H   H3        1.0  0.21364  0.08734  0.12763  1.0000
  H   H4        1.0  0.71366  0.91266  0.87237  1.0000
  H   H5        1.0  0.08379  0.05401  0.34182  1.0000
  H   H6        1.0  0.58383  0.94600  0.65818  1.0000
  H   H7        1.0  0.08380  0.55400  0.15818  1.0000
  H   H8        1.0  0.58381  0.44599  0.84182  1.0000
  H   H9        1.0  0.60496  0.16891  0.36586  1.0000
  H   H10       1.0  0.10498  0.83108  0.63413  1.0000
  H   H11       1.0  0.60496  0.66891  0.13414  1.0000
  H   H12       1.0  0.10496  0.33109  0.86587  1.0000
  H   H13       1.0  0.85572  0.10062  0.45367  1.0000
  H   H14       1.0  0.35573  0.89939  0.54632  1.0000
  H   H15       1.0  0.85572  0.60061  0.04633  1.0000
  H   H16       1.0  0.35571  0.39938  0.95368  1.0000
  H   H17       1.0  0.71988  0.14594  0.55911  1.0000
  H   H18       1.0  0.21990  0.85407  0.44089  1.0000
  H   H19       1.0  0.71988  0.64593  0.94089  1.0000
  H   H20       1.0  0.21988  0.35406  0.05911  1.0000
  H   H21       1.0  0.09829  0.35106  0.49040  1.0000
  H   H22       1.0  0.59830  0.64895  0.50959  1.0000
  H   H23       1.0  0.09829  0.85106  0.00960  1.0000
  H   H24       1.0  0.59829  0.14894  0.99041  1.0000
  C   C1        1.0  0.14199  0.46954  0.35386  1.0000
  C   C2        1.0  0.64200  0.53046  0.64614  1.0000
  C   C3        1.0  0.14198  0.96953  0.14614  1.0000
  C   C4        1.0  0.64200  0.03045  0.85386  1.0000
  C   C5        1.0  0.08166  0.19450  0.33712  1.0000
  C   C6        1.0  0.58169  0.80551  0.66288  1.0000
  C   C7        1.0  0.08167  0.69449  0.16289  1.0000
  C   C8        1.0  0.58168  0.30550  0.83712  1.0000
  C   C9        1.0  0.34112  0.26512  0.42345  1.0000
  C   C10       1.0  0.84113  0.73488  0.57655  1.0000
  C   C11       1.0  0.34112  0.76511  0.07655  1.0000
  C   C12       1.0  0.84112  0.23487  0.92345  1.0000
  C   C13       1.0  0.55190  0.19372  0.41229  1.0000
  C   C14       1.0  0.05191  0.80628  0.58770  1.0000
  C   C15       1.0  0.55190  0.69371  0.08770  1.0000
  C   C16       1.0  0.05189  0.30629  0.91230  1.0000
  C   C17       1.0  0.68970  0.15476  0.46148  1.0000
  C   C18       1.0  0.18972  0.84525  0.53852  1.0000
  C   C19       1.0  0.68971  0.65475  0.03852  1.0000
  C   C20       1.0  0.18970  0.34524  0.96148  1.0000
  C   C21       1.0  0.61371  0.18000  0.52062  1.0000
  C   C22       1.0  0.11372  0.82001  0.47938  1.0000
  C   C23       1.0  0.61371  0.67999  0.97938  1.0000
  C   C24       1.0  0.11371  0.32000  0.02062  1.0000
  C   C25       1.0  0.39849  0.24726  0.53125  1.0000
  C   C26       1.0  0.89851  0.75276  0.46875  1.0000
  C   C27       1.0  0.39849  0.74725  0.96875  1.0000
  C   C28       1.0  0.89848  0.25274  0.03125  1.0000
  C   C29       1.0  0.26345  0.29524  0.48211  1.0000
  C   C30       1.0  0.76347  0.70477  0.51789  1.0000
  C   C31       1.0  0.26346  0.79524  0.01789  1.0000
  C   C32       1.0  0.76345  0.20475  0.98211  1.0000
  C   C33       1.0  0.30950  0.26077  0.59482  1.0000
  C   C34       1.0  0.80954  0.73926  0.40518  1.0000
  C   C35       1.0  0.30952  0.76075  0.90518  1.0000
  C   C36       1.0  0.80950  0.23924  0.09482  1.0000
  N   N1        1.0  0.95812  0.28472  0.29871  1.0000
  N   N2        1.0  0.45816  0.71528  0.70129  1.0000
  N   N3        1.0  0.95813  0.78472  0.20129  1.0000
  N   N4        1.0  0.45815  0.21527  0.79871  1.0000
  N   N5        1.0  0.99486  0.45803  0.30939  1.0000
  N   N6        1.0  0.49488  0.54197  0.69061  1.0000
  N   N7        1.0  0.99485  0.95802  0.19061  1.0000
  N   N8        1.0  0.49488  0.04196  0.80939  1.0000
  N   N9        1.0  0.19845  0.30710  0.37308  1.0000
  N   N10       1.0  0.69846  0.69290  0.62692  1.0000
  N   N11       1.0  0.19844  0.80710  0.12692  1.0000
  N   N12       1.0  0.69846  0.19290  0.87308  1.0000
  Cl  Cl1       1.0  0.98336  0.53782  0.76762  1.0000
  Cl  Cl2       1.0  0.48333  0.46218  0.23238  1.0000
  Cl  Cl3       1.0  0.98336  0.03782  0.73239  1.0000
  Cl  Cl4       1.0  0.48333  0.96218  0.26762  1.0000
  O   O1        1.0  0.42613  0.18630  0.63652  1.0000
  O   O2        1.0  0.92617  0.81372  0.36348  1.0000
  O   O3        1.0  0.42615  0.68629  0.86348  1.0000
  O   O4        1.0  0.92613  0.31370  0.13652  1.0000
  O   O5        1.0  0.13137  0.34488  0.60537  1.0000
  O   O6        1.0  0.63141  0.65515  0.39462  1.0000
  O   O7        1.0  0.13139  0.84488  0.89462  1.0000
  O   O8        1.0  0.63137  0.15513  0.10538  1.0000
