data_image0
_chemical_formula_structural       Cd4H24C36I4N12O8
_chemical_formula_sum              "Cd4 H24 C36 I4 N12 O8"
_cell_length_a       7.68143
_cell_length_b       7.8151
_cell_length_c       18.3193
_cell_angle_alpha    89.9999
_cell_angle_beta     90.0004
_cell_angle_gamma    103.795

_space_group_name_H-M_alt    "P 1"
_space_group_IT_number       1

loop_
  _space_group_symop_operation_xyz
  'x, y, z'

loop_
  _atom_site_type_symbol
  _atom_site_label
  _atom_site_symmetry_multiplicity
  _atom_site_fract_x
  _atom_site_fract_y
  _atom_site_fract_z
  _atom_site_occupancy
  Cd  Cd1       1.0  0.63340  0.97374  0.78103  1.0000
  Cd  Cd2       1.0  0.36659  0.52626  0.28104  1.0000
  Cd  Cd3       1.0  0.36660  0.02626  0.21897  1.0000
  Cd  Cd4       1.0  0.63341  0.47374  0.71896  1.0000
  H   H1        1.0  0.53408  0.36657  0.88889  1.0000
  H   H2        1.0  0.46591  0.13343  0.38889  1.0000
  H   H3        1.0  0.46592  0.63343  0.11111  1.0000
  H   H4        1.0  0.53408  0.86657  0.61111  1.0000
  H   H5        1.0  0.57249  0.15606  0.98558  1.0000
  H   H6        1.0  0.42750  0.34394  0.48558  1.0000
  H   H7        1.0  0.42751  0.84394  0.01442  1.0000
  H   H8        1.0  0.57249  0.65606  0.51442  1.0000
  H   H9        1.0  0.75939  0.25767  0.09351  1.0000
  H   H10       1.0  0.24061  0.24233  0.59351  1.0000
  H   H11       1.0  0.24061  0.74233  0.90649  1.0000
  H   H12       1.0  0.75939  0.75766  0.40649  1.0000
  H   H13       1.0  0.87764  0.78981  0.00652  1.0000
  H   H14       1.0  0.12237  0.71019  0.50653  1.0000
  H   H15       1.0  0.12236  0.21019  0.99348  1.0000
  H   H16       1.0  0.87764  0.28980  0.49347  1.0000
  H   H17       1.0  0.03517  0.87532  0.09805  1.0000
  H   H18       1.0  0.96483  0.62469  0.59805  1.0000
  H   H19       1.0  0.96483  0.12468  0.90195  1.0000
  H   H20       1.0  0.03517  0.37531  0.40195  1.0000
  H   H21       1.0  0.96648  0.35032  0.17478  1.0000
  H   H22       1.0  0.03352  0.14968  0.67478  1.0000
  H   H23       1.0  0.03352  0.64968  0.82522  1.0000
  H   H24       1.0  0.96648  0.85032  0.32522  1.0000
  C   C1        1.0  0.68638  0.72362  0.88562  1.0000
  C   C2        1.0  0.31362  0.77638  0.38562  1.0000
  C   C3        1.0  0.31362  0.27638  0.11438  1.0000
  C   C4        1.0  0.68638  0.22362  0.61438  1.0000
  C   C5        1.0  0.70579  0.59123  0.94240  1.0000
  C   C6        1.0  0.29421  0.90877  0.44240  1.0000
  C   C7        1.0  0.29422  0.40877  0.05760  1.0000
  C   C8        1.0  0.70578  0.09123  0.55760  1.0000
  C   C9        1.0  0.61942  0.41282  0.93583  1.0000
  C   C10       1.0  0.38057  0.08718  0.43583  1.0000
  C   C11       1.0  0.38058  0.58718  0.06417  1.0000
  C   C12       1.0  0.61942  0.91282  0.56417  1.0000
  C   C13       1.0  0.64051  0.29486  0.99030  1.0000
  C   C14       1.0  0.35949  0.20514  0.49030  1.0000
  C   C15       1.0  0.35949  0.70514  0.00970  1.0000
  C   C16       1.0  0.64051  0.79486  0.50970  1.0000
  C   C17       1.0  0.74701  0.35253  0.05127  1.0000
  C   C18       1.0  0.25299  0.14747  0.55127  1.0000
  C   C19       1.0  0.25299  0.64747  0.94873  1.0000
  C   C20       1.0  0.74701  0.85253  0.44873  1.0000
  C   C21       1.0  0.83373  0.53075  0.05722  1.0000
  C   C22       1.0  0.16627  0.96925  0.55722  1.0000
  C   C23       1.0  0.16627  0.46925  0.94278  1.0000
  C   C24       1.0  0.83373  0.03075  0.44278  1.0000
  C   C25       1.0  0.81282  0.65023  0.00343  1.0000
  C   C26       1.0  0.18718  0.84977  0.50344  1.0000
  C   C27       1.0  0.18718  0.34977  0.99657  1.0000
  C   C28       1.0  0.81282  0.15023  0.49656  1.0000
  C   C29       1.0  0.04589  0.76049  0.12904  1.0000
  C   C30       1.0  0.95411  0.73951  0.62904  1.0000
  C   C31       1.0  0.95411  0.23951  0.87096  1.0000
  C   C32       1.0  0.04589  0.26049  0.37096  1.0000
  C   C33       1.0  0.01404  0.49190  0.16836  1.0000
  C   C34       1.0  0.98597  0.00811  0.66836  1.0000
  C   C35       1.0  0.98596  0.50811  0.83164  1.0000
  C   C36       1.0  0.01403  0.99189  0.33164  1.0000
  I   I1        1.0  0.30375  0.03640  0.81675  1.0000
  I   I2        1.0  0.69625  0.46360  0.31675  1.0000
  I   I3        1.0  0.69625  0.96360  0.18325  1.0000
  I   I4        1.0  0.30376  0.53641  0.68325  1.0000
  N   N1        1.0  0.15763  0.76488  0.18378  1.0000
  N   N2        1.0  0.84237  0.73512  0.68378  1.0000
  N   N3        1.0  0.84238  0.23512  0.81622  1.0000
  N   N4        1.0  0.15762  0.26488  0.31622  1.0000
  N   N5        1.0  0.13885  0.59555  0.20845  1.0000
  N   N6        1.0  0.86115  0.90446  0.70845  1.0000
  N   N7        1.0  0.86115  0.40445  0.79155  1.0000
  N   N8        1.0  0.13885  0.09554  0.29155  1.0000
  N   N9        1.0  0.95277  0.59064  0.11686  1.0000
  N   N10       1.0  0.04723  0.90936  0.61687  1.0000
  N   N11       1.0  0.04723  0.40936  0.88314  1.0000
  N   N12       1.0  0.95277  0.09064  0.38313  1.0000
  O   O1        1.0  0.74417  0.88604  0.89993  1.0000
  O   O2        1.0  0.25583  0.61395  0.39994  1.0000
  O   O3        1.0  0.25583  0.11395  0.10006  1.0000
  O   O4        1.0  0.74417  0.38605  0.60006  1.0000
  O   O5        1.0  0.61080  0.66992  0.82447  1.0000
  O   O6        1.0  0.38919  0.83008  0.32447  1.0000
  O   O7        1.0  0.38920  0.33008  0.17553  1.0000
  O   O8        1.0  0.61080  0.16992  0.67553  1.0000
