data_image0
_chemical_formula_structural       Cd3H16C18S2N6O14
_chemical_formula_sum              "Cd3 H16 C18 S2 N6 O14"
_cell_length_a       7.0036
_cell_length_b       7.9681
_cell_length_c       12.6978
_cell_angle_alpha    88.6669
_cell_angle_beta     86.8982
_cell_angle_gamma    64.2395

_space_group_name_H-M_alt    "P 1"
_space_group_IT_number       1

loop_
  _space_group_symop_operation_xyz
  'x, y, z'

loop_
  _atom_site_type_symbol
  _atom_site_label
  _atom_site_symmetry_multiplicity
  _atom_site_fract_x
  _atom_site_fract_y
  _atom_site_fract_z
  _atom_site_occupancy
  Cd  Cd1       1.0  0.50000  0.50000  1.00000  1.0000
  Cd  Cd2       1.0  0.77782  0.97777  0.86298  1.0000
  Cd  Cd3       1.0  0.22218  0.02223  0.13702  1.0000
  H   H1        1.0  0.18038  0.84878  0.36999  1.0000
  H   H2        1.0  0.81963  0.15122  0.63001  1.0000
  H   H3        1.0  0.44341  0.29472  0.25003  1.0000
  H   H4        1.0  0.55659  0.70527  0.74997  1.0000
  H   H5        1.0  0.05488  0.76057  0.50354  1.0000
  H   H6        1.0  0.94512  0.23942  0.49646  1.0000
  H   H7        1.0  0.21315  0.33110  0.73786  1.0000
  H   H8        1.0  0.78685  0.66890  0.26214  1.0000
  H   H9        1.0  0.45448  0.09990  0.60762  1.0000
  H   H10       1.0  0.54552  0.90010  0.39238  1.0000
  H   H11       1.0  0.50292  0.19591  0.42379  1.0000
  H   H12       1.0  0.49708  0.80409  0.57621  1.0000
  H   H13       1.0  0.12283  0.54119  0.88992  1.0000
  H   H14       1.0  0.87717  0.45881  0.11008  1.0000
  H   H15       1.0  0.20304  0.34929  0.95305  1.0000
  H   H16       1.0  0.79696  0.65071  0.04695  1.0000
  C   C1        1.0  0.24779  0.72836  0.31852  1.0000
  C   C2        1.0  0.75221  0.27163  0.68148  1.0000
  C   C3        1.0  0.38675  0.44474  0.25668  1.0000
  C   C4        1.0  0.61325  0.55526  0.74332  1.0000
  C   C5        1.0  0.28343  0.48478  0.45166  1.0000
  C   C6        1.0  0.71657  0.51522  0.54834  1.0000
  C   C7        1.0  0.14774  0.61548  0.52452  1.0000
  C   C8        1.0  0.85226  0.38452  0.47548  1.0000
  C   C9        1.0  0.12188  0.56205  0.62780  1.0000
  C   C10       1.0  0.87812  0.43795  0.37220  1.0000
  C   C11       1.0  0.23113  0.37503  0.65753  1.0000
  C   C12       1.0  0.76887  0.62497  0.34247  1.0000
  C   C13       1.0  0.36612  0.24443  0.58347  1.0000
  C   C14       1.0  0.63388  0.75557  0.41653  1.0000
  C   C15       1.0  0.39481  0.29795  0.48051  1.0000
  C   C16       1.0  0.60519  0.70205  0.51949  1.0000
  C   C17       1.0  0.97315  0.71203  0.70170  1.0000
  C   C18       1.0  0.02685  0.28797  0.29830  1.0000
  S   S1        1.0  0.72035  0.02549  0.10082  1.0000
  S   S2        1.0  0.27965  0.97451  0.89918  1.0000
  N   N1        1.0  0.37776  0.55813  0.17791  1.0000
  N   N2        1.0  0.62225  0.44187  0.82209  1.0000
  N   N3        1.0  0.29125  0.73642  0.21715  1.0000
  N   N4        1.0  0.70875  0.26358  0.78284  1.0000
  N   N5        1.0  0.30608  0.54685  0.34750  1.0000
  N   N6        1.0  0.69393  0.45315  0.65250  1.0000
  O   O1        1.0  0.86939  0.87402  0.66561  1.0000
  O   O2        1.0  0.13060  0.12598  0.33439  1.0000
  O   O3        1.0  0.95530  0.67079  0.79903  1.0000
  O   O4        1.0  0.04470  0.32922  0.20097  1.0000
  O   O5        1.0  0.62357  0.17539  0.01875  1.0000
  O   O6        1.0  0.37643  0.82461  0.98125  1.0000
  O   O7        1.0  0.83821  0.84923  0.03863  1.0000
  O   O8        1.0  0.16179  0.15077  0.96138  1.0000
  O   O9        1.0  0.86328  0.06604  0.16599  1.0000
  O   O10       1.0  0.13672  0.93397  0.83402  1.0000
  O   O11       1.0  0.54937  0.01496  0.17223  1.0000
  O   O12       1.0  0.45063  0.98504  0.82777  1.0000
  O   O13       1.0  0.21539  0.46820  0.94682  1.0000
  O   O14       1.0  0.78461  0.53180  0.05318  1.0000
