data_image0
_chemical_formula_structural       Cd4H32C40S4N16O12
_chemical_formula_sum              "Cd4 H32 C40 S4 N16 O12"
_cell_length_a       9.15639
_cell_length_b       10.0919
_cell_length_c       15.0421
_cell_angle_alpha    73.2989
_cell_angle_beta     86.5098
_cell_angle_gamma    83.3461

_space_group_name_H-M_alt    "P 1"
_space_group_IT_number       1

loop_
  _space_group_symop_operation_xyz
  'x, y, z'

loop_
  _atom_site_type_symbol
  _atom_site_label
  _atom_site_symmetry_multiplicity
  _atom_site_fract_x
  _atom_site_fract_y
  _atom_site_fract_z
  _atom_site_occupancy
  Cd  Cd1       1.0  0.14239  0.57700  0.26768  1.0000
  Cd  Cd2       1.0  0.85761  0.42300  0.73232  1.0000
  Cd  Cd3       1.0  0.53849  0.74634  0.28162  1.0000
  Cd  Cd4       1.0  0.46151  0.25366  0.71838  1.0000
  H   H1        1.0  0.81096  0.53410  0.18394  1.0000
  H   H2        1.0  0.18903  0.46589  0.81606  1.0000
  H   H3        1.0  0.03112  0.25812  0.04328  1.0000
  H   H4        1.0  0.96888  0.74188  0.95672  1.0000
  H   H5        1.0  0.80770  0.34217  0.94733  1.0000
  H   H6        1.0  0.19230  0.65782  0.05267  1.0000
  H   H7        1.0  0.34992  0.30184  0.01848  1.0000
  H   H8        1.0  0.65008  0.69816  0.98152  1.0000
  H   H9        1.0  0.38604  0.33194  0.17306  1.0000
  H   H10       1.0  0.61396  0.66806  0.82694  1.0000
  H   H11       1.0  0.63468  0.36371  0.21748  1.0000
  H   H12       1.0  0.36532  0.63629  0.78251  1.0000
  H   H13       1.0  0.99233  0.71734  0.44484  1.0000
  H   H14       1.0  0.00767  0.28266  0.55517  1.0000
  H   H15       1.0  0.40763  0.84646  0.47359  1.0000
  H   H16       1.0  0.59237  0.15355  0.52641  1.0000
  H   H17       1.0  0.28719  0.00289  0.53588  1.0000
  H   H18       1.0  0.71280  0.99712  0.46412  1.0000
  H   H19       1.0  0.99245  0.98701  0.77105  1.0000
  H   H20       1.0  0.00755  0.01299  0.22895  1.0000
  H   H21       1.0  0.85159  0.82198  0.72484  1.0000
  H   H22       1.0  0.14841  0.17801  0.27516  1.0000
  H   H23       1.0  0.93946  0.73086  0.59339  1.0000
  H   H24       1.0  0.06054  0.26914  0.40661  1.0000
  H   H25       1.0  0.94098  0.82712  0.19034  1.0000
  H   H26       1.0  0.05903  0.17288  0.80966  1.0000
  H   H27       1.0  0.10877  0.84228  0.15310  1.0000
  H   H28       1.0  0.89123  0.15771  0.84690  1.0000
  H   H29       1.0  0.43145  0.04057  0.25109  1.0000
  H   H30       1.0  0.56855  0.95943  0.74891  1.0000
  H   H31       1.0  0.49965  0.03231  0.15543  1.0000
  H   H32       1.0  0.50035  0.96770  0.84457  1.0000
  C   C1        1.0  0.89843  0.47193  0.15770  1.0000
  C   C2        1.0  0.10156  0.52807  0.84230  1.0000
  C   C3        1.0  0.01218  0.33160  0.08419  1.0000
  C   C4        1.0  0.98782  0.66840  0.91581  1.0000
  C   C5        1.0  0.73478  0.35549  0.08448  1.0000
  C   C6        1.0  0.26522  0.64451  0.91552  1.0000
  C   C7        1.0  0.71657  0.33671  0.99775  1.0000
  C   C8        1.0  0.28342  0.66328  0.00225  1.0000
  C   C9        1.0  0.57702  0.31625  0.97442  1.0000
  C   C10       1.0  0.42297  0.68374  0.02558  1.0000
  C   C11       1.0  0.45864  0.31465  0.03814  1.0000
  C   C12       1.0  0.54136  0.68534  0.96186  1.0000
  C   C13       1.0  0.47939  0.33183  0.12489  1.0000
  C   C14       1.0  0.52061  0.66817  0.87511  1.0000
  C   C15       1.0  0.61805  0.35132  0.14923  1.0000
  C   C16       1.0  0.38195  0.64868  0.85077  1.0000
  C   C17       1.0  0.55178  0.30160  0.88056  1.0000
  C   C18       1.0  0.44822  0.69840  0.11944  1.0000
  C   C19       1.0  0.10580  0.73997  0.43333  1.0000
  C   C20       1.0  0.89420  0.26003  0.56667  1.0000
  C   C21       1.0  0.31875  0.80771  0.44700  1.0000
  C   C22       1.0  0.68125  0.19230  0.55300  1.0000
  C   C23       1.0  0.12207  0.85782  0.55828  1.0000
  C   C24       1.0  0.87793  0.14218  0.44172  1.0000
  C   C25       1.0  0.19533  0.95830  0.57909  1.0000
  C   C26       1.0  0.80467  0.04170  0.42092  1.0000
  C   C27       1.0  0.15029  0.00345  0.65697  1.0000
  C   C28       1.0  0.84971  0.99655  0.34303  1.0000
  C   C29       1.0  0.02705  0.95265  0.71006  1.0000
  C   C30       1.0  0.97295  0.04735  0.28995  1.0000
  C   C31       1.0  0.94909  0.85910  0.68479  1.0000
  C   C32       1.0  0.05091  0.14090  0.31521  1.0000
  C   C33       1.0  0.99752  0.80872  0.60974  1.0000
  C   C34       1.0  0.00248  0.19128  0.39026  1.0000
  C   C35       1.0  0.23982  0.10096  0.68356  1.0000
  C   C36       1.0  0.76019  0.89904  0.31644  1.0000
  C   C37       1.0  0.80777  0.51907  0.36489  1.0000
  C   C38       1.0  0.19224  0.48094  0.63511  1.0000
  C   C39       1.0  0.35988  0.28003  0.35128  1.0000
  C   C40       1.0  0.64012  0.71997  0.64872  1.0000
  S   S1        1.0  0.63728  0.48482  0.36925  1.0000
  S   S2        1.0  0.36273  0.51518  0.63075  1.0000
  S   S3        1.0  0.45066  0.12712  0.37372  1.0000
  S   S4        1.0  0.54934  0.87288  0.62628  1.0000
  N   N1        1.0  0.19599  0.70792  0.36926  1.0000
  N   N2        1.0  0.80401  0.29209  0.63074  1.0000
  N   N3        1.0  0.33010  0.75084  0.37800  1.0000
  N   N4        1.0  0.66990  0.24916  0.62199  1.0000
  N   N5        1.0  0.17785  0.80491  0.48326  1.0000
  N   N6        1.0  0.82215  0.19510  0.51674  1.0000
  N   N7        1.0  0.04159  0.47102  0.16568  1.0000
  N   N8        1.0  0.95840  0.52898  0.83433  1.0000
  N   N9        1.0  0.11442  0.38208  0.11917  1.0000
  N   N10       1.0  0.88558  0.61792  0.88083  1.0000
  N   N11       1.0  0.87456  0.38431  0.10709  1.0000
  N   N12       1.0  0.12544  0.61568  0.89291  1.0000
  N   N13       1.0  0.29535  0.39285  0.33409  1.0000
  N   N14       1.0  0.70466  0.60715  0.66591  1.0000
  N   N15       1.0  0.93265  0.54109  0.36179  1.0000
  N   N16       1.0  0.06737  0.45892  0.63821  1.0000
  O   O1        1.0  0.34564  0.14768  0.62849  1.0000
  O   O2        1.0  0.65437  0.85232  0.37151  1.0000
  O   O3        1.0  0.21270  0.12977  0.76045  1.0000
  O   O4        1.0  0.78731  0.87023  0.23955  1.0000
  O   O5        1.0  0.65827  0.30571  0.82124  1.0000
  O   O6        1.0  0.34173  0.69429  0.17876  1.0000
  O   O7        1.0  0.42205  0.28291  0.86336  1.0000
  O   O8        1.0  0.57794  0.71708  0.13665  1.0000
  O   O9        1.0  0.02942  0.78290  0.16185  1.0000
  O   O10       1.0  0.97058  0.21710  0.83815  1.0000
  O   O11       1.0  0.43310  0.98698  0.20503  1.0000
  O   O12       1.0  0.56691  0.01302  0.79497  1.0000
