data_image0
_chemical_formula_structural       Cd2H30C40N8O10
_chemical_formula_sum              "Cd2 H30 C40 N8 O10"
_cell_length_a       8.71217
_cell_length_b       9.90441
_cell_length_c       12.1829
_cell_angle_alpha    87.8035
_cell_angle_beta     81.7526
_cell_angle_gamma    66.9001

_space_group_name_H-M_alt    "P 1"
_space_group_IT_number       1

loop_
  _space_group_symop_operation_xyz
  'x, y, z'

loop_
  _atom_site_type_symbol
  _atom_site_label
  _atom_site_symmetry_multiplicity
  _atom_site_fract_x
  _atom_site_fract_y
  _atom_site_fract_z
  _atom_site_occupancy
  Cd  Cd1       1.0  0.02552  0.77769  0.06306  1.0000
  Cd  Cd2       1.0  0.97448  0.22231  0.93694  1.0000
  H   H1        1.0  0.60119  0.23966  0.89161  1.0000
  H   H2        1.0  0.39882  0.76033  0.10839  1.0000
  H   H3        1.0  0.98505  0.61077  0.65790  1.0000
  H   H4        1.0  0.01496  0.38922  0.34210  1.0000
  H   H5        1.0  0.77366  0.98506  0.87104  1.0000
  H   H6        1.0  0.22635  0.01494  0.12896  1.0000
  H   H7        1.0  0.61130  0.30586  0.68994  1.0000
  H   H8        1.0  0.38870  0.69414  0.31006  1.0000
  H   H9        1.0  0.33815  0.22563  0.99174  1.0000
  H   H10       1.0  0.66185  0.77437  0.00826  1.0000
  H   H11       1.0  0.10357  0.32486  0.71077  1.0000
  H   H12       1.0  0.89643  0.67514  0.28923  1.0000
  H   H13       1.0  0.22558  0.38676  0.54254  1.0000
  H   H14       1.0  0.77442  0.61324  0.45746  1.0000
  H   H15       1.0  0.36053  0.47990  0.55742  1.0000
  H   H16       1.0  0.63948  0.52010  0.44258  1.0000
  H   H17       1.0  0.71495  0.09283  0.35003  1.0000
  H   H18       1.0  0.28505  0.90716  0.64997  1.0000
  H   H19       1.0  0.26750  0.49708  0.38648  1.0000
  H   H20       1.0  0.73250  0.50292  0.61351  1.0000
  H   H21       1.0  0.53195  0.33945  0.06310  1.0000
  H   H22       1.0  0.46805  0.66055  0.93690  1.0000
  H   H23       1.0  0.65087  0.00544  0.68228  1.0000
  H   H24       1.0  0.34913  0.99456  0.31772  1.0000
  H   H25       1.0  0.71591  0.84349  0.60050  1.0000
  H   H26       1.0  0.28409  0.15651  0.39950  1.0000
  H   H27       1.0  0.87895  0.12254  0.68482  1.0000
  H   H28       1.0  0.12104  0.87747  0.31518  1.0000
  H   H29       1.0  0.91748  0.80634  0.43598  1.0000
  H   H30       1.0  0.08252  0.19366  0.56402  1.0000
  C   C1        1.0  0.49461  0.25940  0.84714  1.0000
  C   C2        1.0  0.50540  0.74060  0.15286  1.0000
  C   C3        1.0  0.95743  0.68160  0.72992  1.0000
  C   C4        1.0  0.04257  0.31840  0.27008  1.0000
  C   C5        1.0  0.84571  0.87464  0.83781  1.0000
  C   C6        1.0  0.15430  0.12536  0.16219  1.0000
  C   C7        1.0  0.49903  0.29654  0.73571  1.0000
  C   C8        1.0  0.50097  0.70346  0.26429  1.0000
  C   C9        1.0  0.34801  0.25052  0.90370  1.0000
  C   C10       1.0  0.65199  0.74947  0.09630  1.0000
  C   C11       1.0  0.21789  0.30757  0.74636  1.0000
  C   C12       1.0  0.78211  0.69243  0.25363  1.0000
  C   C13       1.0  0.35683  0.32317  0.68401  1.0000
  C   C14       1.0  0.64317  0.67683  0.31599  1.0000
  C   C15       1.0  0.34859  0.37276  0.56649  1.0000
  C   C16       1.0  0.65141  0.62725  0.43352  1.0000
  C   C17       1.0  0.49011  0.29188  0.38279  1.0000
  C   C18       1.0  0.50989  0.70813  0.61721  1.0000
  C   C19       1.0  0.62318  0.18719  0.31404  1.0000
  C   C20       1.0  0.37682  0.81281  0.68597  1.0000
  C   C21       1.0  0.37169  0.41221  0.33643  1.0000
  C   C22       1.0  0.62832  0.58779  0.66357  1.0000
  C   C23       1.0  0.63764  0.20373  0.19900  1.0000
  C   C24       1.0  0.36236  0.79627  0.80100  1.0000
  C   C25       1.0  0.51890  0.32410  0.15225  1.0000
  C   C26       1.0  0.48110  0.67590  0.84775  1.0000
  C   C27       1.0  0.38574  0.42702  0.22064  1.0000
  C   C28       1.0  0.61426  0.57298  0.77936  1.0000
  C   C29       1.0  0.25611  0.55599  0.17253  1.0000
  C   C30       1.0  0.74389  0.44401  0.82747  1.0000
  C   C31       1.0  0.77864  0.08986  0.12493  1.0000
  C   C32       1.0  0.22136  0.91014  0.87508  1.0000
  C   C33       1.0  0.76137  0.91153  0.64486  1.0000
  C   C34       1.0  0.23863  0.08847  0.35514  1.0000
  C   C35       1.0  0.88216  0.95961  0.56877  1.0000
  C   C36       1.0  0.11784  0.04040  0.43123  1.0000
  C   C37       1.0  0.92971  0.06860  0.60375  1.0000
  C   C38       1.0  0.07028  0.93140  0.39624  1.0000
  C   C39       1.0  0.95357  0.89123  0.46489  1.0000
  C   C40       1.0  0.04643  0.10877  0.53511  1.0000
  N   N1        1.0  0.95192  0.76697  0.89064  1.0000
  N   N2        1.0  0.04808  0.23303  0.10936  1.0000
  N   N3        1.0  0.84439  0.82485  0.73582  1.0000
  N   N4        1.0  0.15561  0.17515  0.26418  1.0000
  N   N5        1.0  0.02348  0.64361  0.82263  1.0000
  N   N6        1.0  0.97653  0.35639  0.17737  1.0000
  N   N7        1.0  0.21277  0.27260  0.85400  1.0000
  N   N8        1.0  0.78723  0.72740  0.14600  1.0000
  O   O1        1.0  0.88072  0.98194  0.17249  1.0000
  O   O2        1.0  0.11927  0.01805  0.82751  1.0000
  O   O3        1.0  0.15141  0.65809  0.23838  1.0000
  O   O4        1.0  0.84859  0.34191  0.76162  1.0000
  O   O5        1.0  0.25629  0.55894  0.06760  1.0000
  O   O6        1.0  0.74371  0.44106  0.93240  1.0000
  O   O7        1.0  0.48292  0.26520  0.49492  1.0000
  O   O8        1.0  0.51708  0.73481  0.50509  1.0000
  O   O9        1.0  0.78648  0.10596  0.02002  1.0000
  O   O10       1.0  0.21353  0.89404  0.97998  1.0000
