data_image0
_chemical_formula_structural       Ag4H56C64Cl4O16
_chemical_formula_sum              "Ag4 H56 C64 Cl4 O16"
_cell_length_a       5.38523
_cell_length_b       13.2589
_cell_length_c       20.3995
_cell_angle_alpha    89.9995
_cell_angle_beta     90.0006
_cell_angle_gamma    89.9993

_space_group_name_H-M_alt    "P 1"
_space_group_IT_number       1

loop_
  _space_group_symop_operation_xyz
  'x, y, z'

loop_
  _atom_site_type_symbol
  _atom_site_label
  _atom_site_symmetry_multiplicity
  _atom_site_fract_x
  _atom_site_fract_y
  _atom_site_fract_z
  _atom_site_occupancy
  Ag  Ag1       1.0  0.72100  0.23549  0.25000  1.0000
  Ag  Ag2       1.0  0.22100  0.26451  0.75000  1.0000
  Ag  Ag3       1.0  0.77900  0.73549  0.25000  1.0000
  Ag  Ag4       1.0  0.27899  0.76451  0.75000  1.0000
  H   H1        1.0  0.05241  0.15860  0.12470  1.0000
  H   H2        1.0  0.55241  0.34139  0.62471  1.0000
  H   H3        1.0  0.05239  0.15862  0.37530  1.0000
  H   H4        1.0  0.44761  0.65861  0.12470  1.0000
  H   H5        1.0  0.94759  0.84138  0.87530  1.0000
  H   H6        1.0  0.44761  0.65862  0.37529  1.0000
  H   H7        1.0  0.94760  0.84139  0.62471  1.0000
  H   H8        1.0  0.55240  0.34137  0.87529  1.0000
  H   H9        1.0  0.07822  0.32533  0.18030  1.0000
  H   H10       1.0  0.57821  0.17466  0.68030  1.0000
  H   H11       1.0  0.07818  0.32535  0.31970  1.0000
  H   H12       1.0  0.42180  0.82534  0.18030  1.0000
  H   H13       1.0  0.92181  0.67465  0.81970  1.0000
  H   H14       1.0  0.42180  0.82534  0.31969  1.0000
  H   H15       1.0  0.92180  0.67466  0.68030  1.0000
  H   H16       1.0  0.57816  0.17465  0.81969  1.0000
  H   H17       1.0  0.72365  0.44660  0.17311  1.0000
  H   H18       1.0  0.22364  0.05339  0.67311  1.0000
  H   H19       1.0  0.72362  0.44662  0.32689  1.0000
  H   H20       1.0  0.77636  0.94660  0.17311  1.0000
  H   H21       1.0  0.27638  0.55339  0.82689  1.0000
  H   H22       1.0  0.77635  0.94662  0.32689  1.0000
  H   H23       1.0  0.27637  0.55339  0.67311  1.0000
  H   H24       1.0  0.22359  0.05338  0.82689  1.0000
  H   H25       1.0  0.36210  0.40533  0.10124  1.0000
  H   H26       1.0  0.86210  0.09467  0.60124  1.0000
  H   H27       1.0  0.36208  0.40534  0.39877  1.0000
  H   H28       1.0  0.13791  0.90533  0.10124  1.0000
  H   H29       1.0  0.63792  0.59467  0.89877  1.0000
  H   H30       1.0  0.13790  0.90534  0.39876  1.0000
  H   H31       1.0  0.63792  0.59467  0.60124  1.0000
  H   H32       1.0  0.86206  0.09467  0.89877  1.0000
  H   H33       1.0  0.34828  0.24507  0.04060  1.0000
  H   H34       1.0  0.84828  0.25494  0.54060  1.0000
  H   H35       1.0  0.34826  0.24507  0.45940  1.0000
  H   H36       1.0  0.15174  0.74506  0.04060  1.0000
  H   H37       1.0  0.65174  0.75494  0.95940  1.0000
  H   H38       1.0  0.15174  0.74506  0.45940  1.0000
  H   H39       1.0  0.65172  0.75494  0.54060  1.0000
  H   H40       1.0  0.84826  0.25494  0.95940  1.0000
  H   H41       1.0  0.85960  0.04508  0.05236  1.0000
  H   H42       1.0  0.35962  0.45492  0.55237  1.0000
  H   H43       1.0  0.85960  0.04509  0.44763  1.0000
  H   H44       1.0  0.64044  0.54507  0.05237  1.0000
  H   H45       1.0  0.14037  0.95491  0.94763  1.0000
  H   H46       1.0  0.64041  0.54509  0.44763  1.0000
  H   H47       1.0  0.14038  0.95492  0.55237  1.0000
  H   H48       1.0  0.35961  0.45491  0.94762  1.0000
  H   H49       1.0  0.32283  0.09144  0.00922  1.0000
  H   H50       1.0  0.82287  0.40858  0.50922  1.0000
  H   H51       1.0  0.32285  0.09144  0.49079  1.0000
  H   H52       1.0  0.17718  0.59143  0.00922  1.0000
  H   H53       1.0  0.67713  0.90857  0.99078  1.0000
  H   H54       1.0  0.17716  0.59144  0.49078  1.0000
  H   H55       1.0  0.67713  0.90857  0.50922  1.0000
  H   H56       1.0  0.82287  0.40858  0.99078  1.0000
  C   C1        1.0  0.89959  0.21215  0.11998  1.0000
  C   C2        1.0  0.39958  0.28784  0.61998  1.0000
  C   C3        1.0  0.89957  0.21217  0.38002  1.0000
  C   C4        1.0  0.60042  0.71215  0.11998  1.0000
  C   C5        1.0  0.10043  0.78783  0.88002  1.0000
  C   C6        1.0  0.60043  0.71216  0.38002  1.0000
  C   C7        1.0  0.10042  0.78784  0.61998  1.0000
  C   C8        1.0  0.39956  0.28783  0.88002  1.0000
  C   C9        1.0  0.90990  0.30451  0.15383  1.0000
  C   C10       1.0  0.40989  0.19548  0.65383  1.0000
  C   C11       1.0  0.90987  0.30452  0.34617  1.0000
  C   C12       1.0  0.59013  0.80452  0.15383  1.0000
  C   C13       1.0  0.09012  0.69548  0.84617  1.0000
  C   C14       1.0  0.59012  0.80452  0.34617  1.0000
  C   C15       1.0  0.09011  0.69548  0.65383  1.0000
  C   C16       1.0  0.40985  0.19547  0.84616  1.0000
  C   C17       1.0  0.71358  0.37433  0.14786  1.0000
  C   C18       1.0  0.21358  0.12566  0.64786  1.0000
  C   C19       1.0  0.71356  0.37435  0.35215  1.0000
  C   C20       1.0  0.78642  0.87434  0.14786  1.0000
  C   C21       1.0  0.28645  0.62565  0.85215  1.0000
  C   C22       1.0  0.78641  0.87435  0.35214  1.0000
  C   C23       1.0  0.28643  0.62566  0.64786  1.0000
  C   C24       1.0  0.21353  0.12565  0.85214  1.0000
  C   C25       1.0  0.51295  0.35123  0.10675  1.0000
  C   C26       1.0  0.01295  0.14877  0.60674  1.0000
  C   C27       1.0  0.51294  0.35124  0.39326  1.0000
  C   C28       1.0  0.98706  0.85123  0.10674  1.0000
  C   C29       1.0  0.48706  0.64877  0.89326  1.0000
  C   C30       1.0  0.98706  0.85124  0.39326  1.0000
  C   C31       1.0  0.48705  0.64877  0.60674  1.0000
  C   C32       1.0  0.01292  0.14877  0.89326  1.0000
  C   C33       1.0  0.50493  0.26025  0.07290  1.0000
  C   C34       1.0  0.00492  0.23975  0.57290  1.0000
  C   C35       1.0  0.50490  0.26026  0.42710  1.0000
  C   C36       1.0  0.99510  0.76025  0.07291  1.0000
  C   C37       1.0  0.49509  0.73975  0.92710  1.0000
  C   C38       1.0  0.99509  0.76025  0.42709  1.0000
  C   C39       1.0  0.49508  0.73975  0.57290  1.0000
  C   C40       1.0  0.00490  0.23975  0.92709  1.0000
  C   C41       1.0  0.69562  0.18784  0.07968  1.0000
  C   C42       1.0  0.19562  0.31216  0.57969  1.0000
  C   C43       1.0  0.69561  0.18785  0.42032  1.0000
  C   C44       1.0  0.80441  0.68784  0.07969  1.0000
  C   C45       1.0  0.30438  0.81216  0.92032  1.0000
  C   C46       1.0  0.80440  0.68785  0.42031  1.0000
  C   C47       1.0  0.30438  0.81216  0.57968  1.0000
  C   C48       1.0  0.19561  0.31216  0.92032  1.0000
  C   C49       1.0  0.69047  0.09021  0.04751  1.0000
  C   C50       1.0  0.19049  0.40980  0.54751  1.0000
  C   C51       1.0  0.69047  0.09022  0.45249  1.0000
  C   C52       1.0  0.80956  0.59021  0.04751  1.0000
  C   C53       1.0  0.30950  0.90979  0.95249  1.0000
  C   C54       1.0  0.80954  0.59022  0.45249  1.0000
  C   C55       1.0  0.30950  0.90979  0.54751  1.0000
  C   C56       1.0  0.19048  0.40979  0.95249  1.0000
  C   C57       1.0  0.49620  0.04914  0.01445  1.0000
  C   C58       1.0  0.99624  0.45087  0.51446  1.0000
  C   C59       1.0  0.49621  0.04914  0.48555  1.0000
  C   C60       1.0  0.00381  0.54914  0.01446  1.0000
  C   C61       1.0  0.50376  0.95087  0.98554  1.0000
  C   C62       1.0  0.00380  0.54915  0.48554  1.0000
  C   C63       1.0  0.50377  0.95087  0.51446  1.0000
  C   C64       1.0  0.99624  0.45087  0.98554  1.0000
  Cl  Cl1       1.0  0.23278  0.06951  0.25001  1.0000
  Cl  Cl2       1.0  0.73278  0.43048  0.75000  1.0000
  Cl  Cl3       1.0  0.26722  0.56952  0.25000  1.0000
  Cl  Cl4       1.0  0.76721  0.93048  0.74999  1.0000
  O   O1        1.0  0.30782  0.17789  0.25001  1.0000
  O   O2        1.0  0.80780  0.32210  0.75000  1.0000
  O   O3        1.0  0.19220  0.67790  0.25000  1.0000
  O   O4        1.0  0.69218  0.82210  0.75000  1.0000
  O   O5        1.0  0.95954  0.06702  0.25000  1.0000
  O   O6        1.0  0.45954  0.43298  0.75000  1.0000
  O   O7        1.0  0.54047  0.56702  0.25000  1.0000
  O   O8        1.0  0.04045  0.93297  0.75000  1.0000
  O   O9        1.0  0.32733  0.02113  0.30868  1.0000
  O   O10       1.0  0.82734  0.47886  0.80867  1.0000
  O   O11       1.0  0.32733  0.02114  0.19133  1.0000
  O   O12       1.0  0.17266  0.52114  0.30867  1.0000
  O   O13       1.0  0.67268  0.97885  0.69132  1.0000
  O   O14       1.0  0.17268  0.52115  0.19132  1.0000
  O   O15       1.0  0.67264  0.97886  0.80867  1.0000
  O   O16       1.0  0.82734  0.47885  0.69132  1.0000
