data_image0
_chemical_formula_structural       Ni2H40C40N4O16
_chemical_formula_sum              "Ni2 H40 C40 N4 O16"
_cell_length_a       7.29342
_cell_length_b       10.7532
_cell_length_c       12.6208
_cell_angle_alpha    88.0539
_cell_angle_beta     73.1504
_cell_angle_gamma    82.6943

_space_group_name_H-M_alt    "P 1"
_space_group_IT_number       1

loop_
  _space_group_symop_operation_xyz
  'x, y, z'

loop_
  _atom_site_type_symbol
  _atom_site_label
  _atom_site_symmetry_multiplicity
  _atom_site_fract_x
  _atom_site_fract_y
  _atom_site_fract_z
  _atom_site_occupancy
  Ni  Ni1       1.0  0.60897  0.16200  0.58698  1.0000
  Ni  Ni2       1.0  0.39087  0.83775  0.41335  1.0000
  H   H1        1.0  0.62405  0.08413  0.38293  1.0000
  H   H2        1.0  0.37558  0.91623  0.61683  1.0000
  H   H3        1.0  0.83985  0.09772  0.38040  1.0000
  H   H4        1.0  0.15988  0.90197  0.61924  1.0000
  H   H5        1.0  0.65779  0.38950  0.49019  1.0000
  H   H6        1.0  0.34212  0.61051  0.51091  1.0000
  H   H7        1.0  0.44395  0.40119  0.57293  1.0000
  H   H8        1.0  0.55583  0.59855  0.42831  1.0000
  H   H9        1.0  0.92954  0.23903  0.60705  1.0000
  H   H10       1.0  0.07086  0.76113  0.39294  1.0000
  H   H11       1.0  0.33251  0.11150  0.50878  1.0000
  H   H12       1.0  0.66711  0.88840  0.49126  1.0000
  H   H13       1.0  0.23881  0.22348  0.59507  1.0000
  H   H14       1.0  0.76095  0.77632  0.40518  1.0000
  H   H15       1.0  0.18412  0.70892  0.78689  1.0000
  H   H16       1.0  0.81610  0.29122  0.21215  1.0000
  H   H17       1.0  0.42130  0.56381  0.80479  1.0000
  H   H18       1.0  0.57852  0.43637  0.19435  1.0000
  H   H19       1.0  0.96038  0.35292  0.86291  1.0000
  H   H20       1.0  0.03911  0.64751  0.13719  1.0000
  H   H21       1.0  0.57337  0.93831  0.86234  1.0000
  H   H22       1.0  0.42682  0.06159  0.13702  1.0000
  H   H23       1.0  0.91173  0.83684  0.90939  1.0000
  H   H24       1.0  0.08848  0.16315  0.08987  1.0000
  H   H25       1.0  0.30887  0.49079  0.04738  1.0000
  H   H26       1.0  0.69075  0.50972  0.95269  1.0000
  H   H27       1.0  0.30316  0.06677  0.98429  1.0000
  H   H28       1.0  0.69713  0.93277  0.01542  1.0000
  H   H29       1.0  0.49257  0.29963  0.00443  1.0000
  H   H30       1.0  0.50715  0.70142  0.99588  1.0000
  H   H31       1.0  0.23381  0.29882  0.74341  1.0000
  H   H32       1.0  0.76552  0.70052  0.25727  1.0000
  H   H33       1.0  0.04697  0.71261  0.61041  1.0000
  H   H34       1.0  0.95367  0.28711  0.38960  1.0000
  H   H35       1.0  0.70738  0.41013  0.72359  1.0000
  H   H36       1.0  0.29267  0.58987  0.27648  1.0000
  H   H37       1.0  0.73554  0.15382  0.83034  1.0000
  H   H38       1.0  0.26412  0.84657  0.17060  1.0000
  H   H39       1.0  0.92194  0.08825  0.61712  1.0000
  H   H40       1.0  0.07888  0.91181  0.38232  1.0000
  C   C1        1.0  0.08227  0.96161  0.96115  1.0000
  C   C2        1.0  0.91805  0.03805  0.03841  1.0000
  C   C3        1.0  0.89828  0.55091  0.66570  1.0000
  C   C4        1.0  0.10188  0.44907  0.33443  1.0000
  C   C5        1.0  0.21111  0.78554  0.83255  1.0000
  C   C6        1.0  0.78907  0.21443  0.16671  1.0000
  C   C7        1.0  0.55817  0.59656  0.76017  1.0000
  C   C8        1.0  0.44182  0.40353  0.23916  1.0000
  C   C9        1.0  0.40156  0.81126  0.81653  1.0000
  C   C10       1.0  0.59862  0.18874  0.18270  1.0000
  C   C11       1.0  0.74673  0.76757  0.69208  1.0000
  C   C12       1.0  0.25362  0.23242  0.30727  1.0000
  C   C13       1.0  0.97946  0.41757  0.92232  1.0000
  C   C14       1.0  0.02025  0.58279  0.07772  1.0000
  C   C15       1.0  0.56862  0.72634  0.75219  1.0000
  C   C16       1.0  0.43154  0.27374  0.24695  1.0000
  C   C17       1.0  0.42800  0.91542  0.87214  1.0000
  C   C18       1.0  0.57223  0.08440  0.12727  1.0000
  C   C19       1.0  0.05609  0.85934  0.90229  1.0000
  C   C20       1.0  0.94415  0.14047  0.09713  1.0000
  C   C21       1.0  0.15436  0.41118  0.94845  1.0000
  C   C22       1.0  0.84536  0.58912  0.05160  1.0000
  C   C23       1.0  0.17365  0.49393  0.02651  1.0000
  C   C24       1.0  0.82607  0.50644  0.97349  1.0000
  C   C25       1.0  0.27286  0.98822  0.94264  1.0000
  C   C26       1.0  0.72740  0.01144  0.05694  1.0000
  C   C27       1.0  0.47761  0.27964  0.92408  1.0000
  C   C28       1.0  0.52200  0.72075  0.07640  1.0000
  C   C29       1.0  0.76740  0.90284  0.66242  1.0000
  C   C30       1.0  0.23313  0.09715  0.33712  1.0000
  C   C31       1.0  0.33815  0.27659  0.78960  1.0000
  C   C32       1.0  0.66140  0.72294  0.21097  1.0000
  C   C33       1.0  0.90966  0.67978  0.65304  1.0000
  C   C34       1.0  0.09072  0.32014  0.34677  1.0000
  C   C35       1.0  0.07658  0.45845  0.63263  1.0000
  C   C36       1.0  0.92353  0.54144  0.36830  1.0000
  C   C37       1.0  0.71874  0.50998  0.71628  1.0000
  C   C38       1.0  0.28130  0.49001  0.28350  1.0000
  C   C39       1.0  0.59576  0.20685  0.83744  1.0000
  C   C40       1.0  0.40391  0.79336  0.16317  1.0000
  N   N1        1.0  0.31351  0.32393  0.89253  1.0000
  N   N2        1.0  0.68606  0.67607  0.10788  1.0000
  N   N3        1.0  0.50733  0.20671  0.75406  1.0000
  N   N4        1.0  0.49241  0.79300  0.24657  1.0000
  O   O1        1.0  0.05768  0.34124  0.64326  1.0000
  O   O2        1.0  0.94239  0.65863  0.35731  1.0000
  O   O3        1.0  0.90715  0.95091  0.67820  1.0000
  O   O4        1.0  0.09371  0.04889  0.32115  1.0000
  O   O5        1.0  0.64136  0.96105  0.61868  1.0000
  O   O6        1.0  0.35888  0.03911  0.38115  1.0000
  O   O7        1.0  0.23986  0.49911  0.60256  1.0000
  O   O8        1.0  0.76030  0.50080  0.39922  1.0000
  O   O9        1.0  0.70319  0.13225  0.41310  1.0000
  O   O10       1.0  0.29681  0.86779  0.58667  1.0000
  O   O11       1.0  0.57608  0.35291  0.55794  1.0000
  O   O12       1.0  0.42371  0.64672  0.44294  1.0000
  O   O13       1.0  0.89571  0.16555  0.57404  1.0000
  O   O14       1.0  0.10405  0.83478  0.42600  1.0000
  O   O15       1.0  0.32916  0.14344  0.58216  1.0000
  O   O16       1.0  0.67083  0.85645  0.41784  1.0000
