data_image0
_chemical_formula_structural       CoH12C16N10O2
_chemical_formula_sum              "Co1 H12 C16 N10 O2"
_cell_length_a       6.1123
_cell_length_b       7.31296
_cell_length_c       11.7728
_cell_angle_alpha    108.218
_cell_angle_beta     87.8499
_cell_angle_gamma    94.0525

_space_group_name_H-M_alt    "P 1"
_space_group_IT_number       1

loop_
  _space_group_symop_operation_xyz
  'x, y, z'

loop_
  _atom_site_type_symbol
  _atom_site_label
  _atom_site_symmetry_multiplicity
  _atom_site_fract_x
  _atom_site_fract_y
  _atom_site_fract_z
  _atom_site_occupancy
  Co  Co1       1.0  0.00001  1.00000  0.00000  1.0000
  H   H1        1.0  0.11852  0.72886  0.39984  1.0000
  H   H2        1.0  0.88147  0.27116  0.60017  1.0000
  H   H3        1.0  0.34544  0.67581  0.30428  1.0000
  H   H4        1.0  0.65455  0.32419  0.69571  1.0000
  H   H5        1.0  0.82802  0.80648  0.76247  1.0000
  H   H6        1.0  0.17199  0.19354  0.23753  1.0000
  H   H7        1.0  0.96478  0.71500  0.55475  1.0000
  H   H8        1.0  0.03521  0.28503  0.44525  1.0000
  H   H9        1.0  0.60959  0.93347  0.69298  1.0000
  H   H10       1.0  0.39041  0.06652  0.30702  1.0000
  H   H11       1.0  0.44063  0.01610  0.89943  1.0000
  H   H12       1.0  0.55939  0.98389  0.10057  1.0000
  C   C1        1.0  0.23403  0.70692  0.07695  1.0000
  C   C2        1.0  0.76597  0.29307  0.92306  1.0000
  C   C3        1.0  0.29022  0.40381  0.08170  1.0000
  C   C4        1.0  0.70978  0.59618  0.91830  1.0000
  C   C5        1.0  0.99996  0.83341  0.74283  1.0000
  C   C6        1.0  0.00005  0.16659  0.25717  1.0000
  C   C7        1.0  0.08149  0.78080  0.62609  1.0000
  C   C8        1.0  0.91850  0.21922  0.37391  1.0000
  C   C9        1.0  0.30568  0.81482  0.60593  1.0000
  C   C10       1.0  0.69431  0.18520  0.39407  1.0000
  C   C11       1.0  0.43574  0.90183  0.70578  1.0000
  C   C12       1.0  0.56426  0.09816  0.29422  1.0000
  C   C13       1.0  0.34362  0.94931  0.82003  1.0000
  C   C14       1.0  0.65639  0.05068  0.17996  1.0000
  C   C15       1.0  0.41602  0.75897  0.48438  1.0000
  C   C16       1.0  0.58398  0.24104  0.51562  1.0000
  N   N1        1.0  0.16303  0.82744  0.04505  1.0000
  N   N2        1.0  0.83697  0.17255  0.95495  1.0000
  N   N3        1.0  0.32584  0.59037  0.12152  1.0000
  N   N4        1.0  0.67416  0.40962  0.87848  1.0000
  N   N5        1.0  0.26687  0.23421  0.05440  1.0000
  N   N6        1.0  0.73313  0.76578  0.94560  1.0000
  N   N7        1.0  0.12732  0.91676  0.83867  1.0000
  N   N8        1.0  0.87270  0.08324  0.16134  1.0000
  N   N9        1.0  0.28209  0.71274  0.38950  1.0000
  N   N10       1.0  0.71790  0.28727  0.61049  1.0000
  O   O1        1.0  0.61913  0.75508  0.47456  1.0000
  O   O2        1.0  0.38087  0.24492  0.52543  1.0000
