data_image0
_chemical_formula_structural       MnH12C16N10O2
_chemical_formula_sum              "Mn1 H12 C16 N10 O2"
_cell_length_a       6.85443
_cell_length_b       7.07172
_cell_length_c       9.43877
_cell_angle_alpha    107.504
_cell_angle_beta     100.647
_cell_angle_gamma    93.3495

_space_group_name_H-M_alt    "P 1"
_space_group_IT_number       1

loop_
  _space_group_symop_operation_xyz
  'x, y, z'

loop_
  _atom_site_type_symbol
  _atom_site_label
  _atom_site_symmetry_multiplicity
  _atom_site_fract_x
  _atom_site_fract_y
  _atom_site_fract_z
  _atom_site_occupancy
  Mn  Mn1       1.0  0.98936  0.99497  0.98984  1.0000
  H   H1        1.0  0.53100  0.42750  0.76254  1.0000
  H   H2        1.0  0.47124  0.57345  0.23950  1.0000
  H   H3        1.0  0.78919  0.48163  0.82727  1.0000
  H   H4        1.0  0.21283  0.52179  0.17501  1.0000
  H   H5        1.0  0.44995  0.98996  0.09281  1.0000
  H   H6        1.0  0.55100  0.00716  0.91015  1.0000
  H   H7        1.0  0.73114  0.11571  0.32097  1.0000
  H   H8        1.0  0.27276  0.88554  0.68226  1.0000
  H   H9        1.0  0.28782  0.31861  0.58658  1.0000
  H   H10       1.0  0.71696  0.68598  0.41672  1.0000
  H   H11       1.0  0.03248  0.18958  0.35296  1.0000
  H   H12       1.0  0.97096  0.81384  0.64925  1.0000
  C   C1        1.0  0.79304  0.37587  0.11129  1.0000
  C   C2        1.0  0.20153  0.62066  0.88385  1.0000
  C   C3        1.0  0.78518  0.68900  0.10827  1.0000
  C   C4        1.0  0.20825  0.30730  0.88606  1.0000
  C   C5        1.0  0.42238  0.06536  0.20467  1.0000
  C   C6        1.0  0.57989  0.93397  0.79851  1.0000
  C   C7        1.0  0.57772  0.13469  0.33134  1.0000
  C   C8        1.0  0.42592  0.86621  0.67140  1.0000
  C   C9        1.0  0.53603  0.23147  0.47321  1.0000
  C   C10       1.0  0.46713  0.77034  0.52915  1.0000
  C   C11       1.0  0.33575  0.24818  0.48126  1.0000
  C   C12       1.0  0.66788  0.75465  0.52190  1.0000
  C   C13       1.0  0.18824  0.17444  0.34856  1.0000
  C   C14       1.0  0.81530  0.82762  0.65429  1.0000
  C   C15       1.0  0.71178  0.31545  0.60510  1.0000
  C   C16       1.0  0.29138  0.68716  0.39747  1.0000
  N   N1        1.0  0.71263  0.54156  0.14781  1.0000
  N   N2        1.0  0.28792  0.45806  0.85375  1.0000
  N   N3        1.0  0.85949  0.22225  0.07787  1.0000
  N   N4        1.0  0.12946  0.77153  0.91142  1.0000
  N   N5        1.0  0.84414  0.82216  0.07047  1.0000
  N   N6        1.0  0.14253  0.17087  0.91710  1.0000
  N   N7        1.0  0.23054  0.08715  0.21215  1.0000
  N   N8        1.0  0.77356  0.91282  0.79235  1.0000
  N   N9        1.0  0.67113  0.41107  0.74148  1.0000
  N   N10       1.0  0.33135  0.59073  0.26088  1.0000
  O   O1        1.0  0.88524  0.29928  0.58565  1.0000
  O   O2        1.0  0.11796  0.70442  0.41690  1.0000
