data_image0
_chemical_formula_structural       Mn2H24C32N20O4
_chemical_formula_sum              "Mn2 H24 C32 N20 O4"
_cell_length_a       9.07688
_cell_length_b       10.3424
_cell_length_c       10.4169
_cell_angle_alpha    117.71
_cell_angle_beta     90.2675
_cell_angle_gamma    90.7243

_space_group_name_H-M_alt    "P 1"
_space_group_IT_number       1

loop_
  _space_group_symop_operation_xyz
  'x, y, z'

loop_
  _atom_site_type_symbol
  _atom_site_label
  _atom_site_symmetry_multiplicity
  _atom_site_fract_x
  _atom_site_fract_y
  _atom_site_fract_z
  _atom_site_occupancy
  Mn  Mn1       1.0  0.49622  0.50122  0.98911  1.0000
  Mn  Mn2       1.0  0.99953  0.00067  0.00026  1.0000
  H   H1        1.0  0.54625  0.78064  0.50525  1.0000
  H   H2        1.0  0.04867  0.71163  0.49868  1.0000
  H   H3        1.0  0.45376  0.21910  0.49658  1.0000
  H   H4        1.0  0.95237  0.28743  0.50107  1.0000
  H   H5        1.0  0.42604  0.75080  0.36297  1.0000
  H   H6        1.0  0.93485  0.74037  0.64286  1.0000
  H   H7        1.0  0.57273  0.24822  0.63953  1.0000
  H   H8        1.0  0.06595  0.25933  0.35691  1.0000
  H   H9        1.0  0.25182  0.44040  0.77720  1.0000
  H   H10       1.0  0.75290  0.04095  0.22136  1.0000
  H   H11       1.0  0.74973  0.55379  0.22081  1.0000
  H   H12       1.0  0.24648  0.95806  0.77828  1.0000
  H   H13       1.0  0.18700  0.50730  0.58361  1.0000
  H   H14       1.0  0.68978  0.97528  0.41885  1.0000
  H   H15       1.0  0.81471  0.48897  0.41824  1.0000
  H   H16       1.0  0.31039  0.02354  0.58098  1.0000
  H   H17       1.0  0.59454  0.75840  0.68487  1.0000
  H   H18       1.0  0.09748  0.73741  0.32549  1.0000
  H   H19       1.0  0.40371  0.24395  0.32199  1.0000
  H   H20       1.0  0.90353  0.26284  0.67434  1.0000
  H   H21       1.0  0.63794  0.69085  0.87702  1.0000
  H   H22       1.0  0.14211  0.81249  0.13572  1.0000
  H   H23       1.0  0.36055  0.31213  0.12795  1.0000
  H   H24       1.0  0.85824  0.18806  0.86407  1.0000
  C   C1        1.0  0.82158  0.53440  0.92087  1.0000
  C   C2        1.0  0.33514  0.98678  0.09519  1.0000
  C   C3        1.0  0.17738  0.46528  0.07273  1.0000
  C   C4        1.0  0.66436  0.01880  0.90622  1.0000
  C   C5        1.0  0.98291  0.66518  0.86146  1.0000
  C   C6        1.0  0.47280  0.83016  0.13664  1.0000
  C   C7        1.0  0.01925  0.33569  0.13870  1.0000
  C   C8        1.0  0.52629  0.17314  0.85929  1.0000
  C   C9        1.0  0.32438  0.51039  0.75268  1.0000
  C   C10       1.0  0.82576  0.97427  0.24893  1.0000
  C   C11       1.0  0.67706  0.48518  0.24738  1.0000
  C   C12       1.0  0.17403  0.02514  0.75086  1.0000
  C   C13       1.0  0.28880  0.54877  0.64569  1.0000
  C   C14       1.0  0.79040  0.93651  0.35698  1.0000
  C   C15       1.0  0.71291  0.44825  0.35593  1.0000
  C   C16       1.0  0.20979  0.06270  0.64277  1.0000
  C   C17       1.0  0.38434  0.63865  0.61557  1.0000
  C   C18       1.0  0.88748  0.85069  0.38831  1.0000
  C   C19       1.0  0.61570  0.36052  0.38663  1.0000
  C   C20       1.0  0.11315  0.14885  0.61146  1.0000
  C   C21       1.0  0.51289  0.68919  0.70082  1.0000
  C   C22       1.0  0.01652  0.80449  0.30740  1.0000
  C   C23       1.0  0.48594  0.31117  0.30379  1.0000
  C   C24       1.0  0.98420  0.19555  0.69237  1.0000
  C   C25       1.0  0.54014  0.64971  0.80865  1.0000
  C   C26       1.0  0.04286  0.84697  0.20094  1.0000
  C   C27       1.0  0.45946  0.35071  0.19543  1.0000
  C   C28       1.0  0.95747  0.15326  0.79886  1.0000
  C   C29       1.0  0.34572  0.67139  0.49429  1.0000
  C   C30       1.0  0.84964  0.81779  0.51082  1.0000
  C   C31       1.0  0.65456  0.32759  0.50863  1.0000
  C   C32       1.0  0.15122  0.18178  0.48909  1.0000
  N   N1        1.0  0.70516  0.51116  0.95615  1.0000
  N   N2        1.0  0.23080  0.02200  0.05184  1.0000
  N   N3        1.0  0.29085  0.48971  0.03311  1.0000
  N   N4        1.0  0.76819  0.98244  0.94927  1.0000
  N   N5        1.0  0.95208  0.55434  0.88235  1.0000
  N   N6        1.0  0.45575  0.95563  0.14127  1.0000
  N   N7        1.0  0.04958  0.44571  0.11655  1.0000
  N   N8        1.0  0.54404  0.05044  0.86039  1.0000
  N   N9        1.0  0.02033  0.76505  0.84204  1.0000
  N   N10       1.0  0.49512  0.71641  0.13408  1.0000
  N   N11       1.0  0.98105  0.23687  0.15958  1.0000
  N   N12       1.0  0.50172  0.28418  0.85683  1.0000
  N   N13       1.0  0.44970  0.55877  0.83506  1.0000
  N   N14       1.0  0.95048  0.93087  0.17199  1.0000
  N   N15       1.0  0.55203  0.43742  0.16812  1.0000
  N   N16       1.0  0.04939  0.06907  0.82783  1.0000
  N   N17       1.0  0.44419  0.74652  0.45753  1.0000
  N   N18       1.0  0.94877  0.74624  0.54830  1.0000
  N   N19       1.0  0.55572  0.25299  0.54492  1.0000
  N   N20       1.0  0.05207  0.25301  0.45127  1.0000
  O   O1        1.0  0.22444  0.62770  0.42810  1.0000
  O   O2        1.0  0.72936  0.85949  0.57468  1.0000
  O   O3        1.0  0.77605  0.37083  0.57377  1.0000
  O   O4        1.0  0.27172  0.14038  0.42557  1.0000
