data_image0
_chemical_formula_structural       Zn2H28C36I4N8O4
_chemical_formula_sum              "Zn2 H28 C36 I4 N8 O4"
_cell_length_a       6.69008
_cell_length_b       12.3755
_cell_length_c       13.4715
_cell_angle_alpha    114.445
_cell_angle_beta     90.0002
_cell_angle_gamma    89.9998

_space_group_name_H-M_alt    "P 1"
_space_group_IT_number       1

loop_
  _space_group_symop_operation_xyz
  'x, y, z'

loop_
  _atom_site_type_symbol
  _atom_site_label
  _atom_site_symmetry_multiplicity
  _atom_site_fract_x
  _atom_site_fract_y
  _atom_site_fract_z
  _atom_site_occupancy
  Zn  Zn1       1.0  0.60586  0.50000  0.75000  1.0000
  Zn  Zn2       1.0  0.39415  0.50000  0.25000  1.0000
  H   H1        1.0  0.55201  0.84944  0.65818  1.0000
  H   H2        1.0  0.55200  0.15057  0.84182  1.0000
  H   H3        1.0  0.44800  0.15056  0.34182  1.0000
  H   H4        1.0  0.44800  0.84943  0.15818  1.0000
  H   H5        1.0  0.48771  0.65817  0.64206  1.0000
  H   H6        1.0  0.48771  0.34184  0.85794  1.0000
  H   H7        1.0  0.51229  0.34183  0.35794  1.0000
  H   H8        1.0  0.51229  0.65817  0.14206  1.0000
  H   H9        1.0  0.29955  0.62161  0.91951  1.0000
  H   H10       1.0  0.29955  0.37839  0.58049  1.0000
  H   H11       1.0  0.70046  0.37840  0.08049  1.0000
  H   H12       1.0  0.70046  0.62161  0.41951  1.0000
  H   H13       1.0  0.05846  0.78960  0.96782  1.0000
  H   H14       1.0  0.05846  0.21040  0.53218  1.0000
  H   H15       1.0  0.94155  0.21041  0.03218  1.0000
  H   H16       1.0  0.94155  0.78959  0.46782  1.0000
  H   H17       1.0  0.03462  0.89704  0.84302  1.0000
  H   H18       1.0  0.03462  0.10296  0.65698  1.0000
  H   H19       1.0  0.96538  0.10296  0.15698  1.0000
  H   H20       1.0  0.96538  0.89704  0.34302  1.0000
  H   H21       1.0  0.21969  0.85565  0.44950  1.0000
  H   H22       1.0  0.21968  0.14435  0.05050  1.0000
  H   H23       1.0  0.78032  0.14435  0.55050  1.0000
  H   H24       1.0  0.78032  0.85565  0.94950  1.0000
  H   H25       1.0  0.72177  0.02262  0.65537  1.0000
  H   H26       1.0  0.72177  0.97739  0.84463  1.0000
  H   H27       1.0  0.27823  0.97738  0.34462  1.0000
  H   H28       1.0  0.27822  0.02262  0.15537  1.0000
  C   C1        1.0  0.25855  0.78630  0.73368  1.0000
  C   C2        1.0  0.25854  0.21370  0.76632  1.0000
  C   C3        1.0  0.74146  0.21369  0.26632  1.0000
  C   C4        1.0  0.74145  0.78630  0.23368  1.0000
  C   C5        1.0  0.39094  0.69261  0.71386  1.0000
  C   C6        1.0  0.39094  0.30739  0.78614  1.0000
  C   C7        1.0  0.60906  0.30738  0.28613  1.0000
  C   C8        1.0  0.60906  0.69262  0.21387  1.0000
  C   C9        1.0  0.28391  0.67051  0.86853  1.0000
  C   C10       1.0  0.28391  0.32949  0.63147  1.0000
  C   C11       1.0  0.71610  0.32950  0.13147  1.0000
  C   C12       1.0  0.71609  0.67051  0.36854  1.0000
  C   C13       1.0  0.14855  0.76357  0.89412  1.0000
  C   C14       1.0  0.14856  0.23642  0.60587  1.0000
  C   C15       1.0  0.85145  0.23642  0.10588  1.0000
  C   C16       1.0  0.85144  0.76357  0.39413  1.0000
  C   C17       1.0  0.13480  0.82196  0.82553  1.0000
  C   C18       1.0  0.13480  0.17805  0.67447  1.0000
  C   C19       1.0  0.86520  0.17804  0.17446  1.0000
  C   C20       1.0  0.86521  0.82196  0.32554  1.0000
  C   C21       1.0  0.24658  0.84827  0.65933  1.0000
  C   C22       1.0  0.24656  0.15173  0.84068  1.0000
  C   C23       1.0  0.75342  0.15173  0.34067  1.0000
  C   C24       1.0  0.75343  0.84827  0.15933  1.0000
  C   C25       1.0  0.46371  0.93316  0.56030  1.0000
  C   C26       1.0  0.46370  0.06684  0.93970  1.0000
  C   C27       1.0  0.53630  0.06683  0.43970  1.0000
  C   C28       1.0  0.53630  0.93316  0.06030  1.0000
  C   C29       1.0  0.34030  0.91993  0.47209  1.0000
  C   C30       1.0  0.34029  0.08007  0.02791  1.0000
  C   C31       1.0  0.65969  0.08006  0.52791  1.0000
  C   C32       1.0  0.65969  0.91994  0.97209  1.0000
  C   C33       1.0  0.62393  0.01316  0.58738  1.0000
  C   C34       1.0  0.62393  0.98684  0.91262  1.0000
  C   C35       1.0  0.37607  0.98684  0.41261  1.0000
  C   C36       1.0  0.37606  0.01316  0.08739  1.0000
  I   I1        1.0  0.79052  0.46705  0.57537  1.0000
  I   I2        1.0  0.79052  0.53295  0.92463  1.0000
  I   I3        1.0  0.20948  0.53295  0.42463  1.0000
  I   I4        1.0  0.20948  0.46705  0.07537  1.0000
  N   N1        1.0  0.42975  0.86792  0.62320  1.0000
  N   N2        1.0  0.42975  0.13208  0.87680  1.0000
  N   N3        1.0  0.57025  0.13207  0.37679  1.0000
  N   N4        1.0  0.57024  0.86792  0.12321  1.0000
  N   N5        1.0  0.40291  0.63644  0.78029  1.0000
  N   N6        1.0  0.40291  0.36356  0.71971  1.0000
  N   N7        1.0  0.59709  0.36356  0.21971  1.0000
  N   N8        1.0  0.59709  0.63644  0.28029  1.0000
  O   O1        1.0  0.08558  0.88139  0.63605  1.0000
  O   O2        1.0  0.08560  0.11861  0.86394  1.0000
  O   O3        1.0  0.91443  0.11860  0.36395  1.0000
  O   O4        1.0  0.91442  0.88139  0.13606  1.0000
