data_image0
_chemical_formula_structural       Ni2H24C32S4N12
_chemical_formula_sum              "Ni2 H24 C32 S4 N12"
_cell_length_a       7.50789
_cell_length_b       10.963
_cell_length_c       11.5901
_cell_angle_alpha    111.976
_cell_angle_beta     108.908
_cell_angle_gamma    89.9986

_space_group_name_H-M_alt    "P 1"
_space_group_IT_number       1

loop_
  _space_group_symop_operation_xyz
  'x, y, z'

loop_
  _atom_site_type_symbol
  _atom_site_label
  _atom_site_symmetry_multiplicity
  _atom_site_fract_x
  _atom_site_fract_y
  _atom_site_fract_z
  _atom_site_occupancy
  Ni  Ni1       1.0  0.00000  0.00000  0.00000  1.0000
  Ni  Ni2       1.0  1.00000  0.50000  1.00000  1.0000
  H   H1        1.0  0.81589  0.49783  0.54116  1.0000
  H   H2        1.0  0.72498  0.99766  0.54098  1.0000
  H   H3        1.0  0.18411  0.50217  0.45885  1.0000
  H   H4        1.0  0.27502  0.00234  0.45902  1.0000
  H   H5        1.0  0.76001  0.58298  0.36304  1.0000
  H   H6        1.0  0.60272  0.08266  0.36278  1.0000
  H   H7        1.0  0.23999  0.41702  0.63696  1.0000
  H   H8        1.0  0.39728  0.91734  0.63722  1.0000
  H   H9        1.0  0.87915  0.81726  0.42147  1.0000
  H   H10       1.0  0.54250  0.31705  0.42120  1.0000
  H   H11       1.0  0.12085  0.18274  0.57853  1.0000
  H   H12       1.0  0.45750  0.68295  0.57880  1.0000
  H   H13       1.0  0.06391  0.96474  0.65722  1.0000
  H   H14       1.0  0.59369  0.46469  0.65691  1.0000
  H   H15       1.0  0.93609  0.03526  0.34278  1.0000
  H   H16       1.0  0.40631  0.53531  0.34309  1.0000
  H   H17       1.0  0.24326  0.85142  0.91205  1.0000
  H   H18       1.0  0.66876  0.35139  0.91173  1.0000
  H   H19       1.0  0.75674  0.14858  0.08795  1.0000
  H   H20       1.0  0.33123  0.64861  0.08827  1.0000
  H   H21       1.0  0.22458  0.98168  0.86848  1.0000
  H   H22       1.0  0.64401  0.48163  0.86813  1.0000
  H   H23       1.0  0.77542  0.01833  0.13152  1.0000
  H   H24       1.0  0.35598  0.51838  0.13187  1.0000
  C   C1        1.0  0.35893  0.22262  0.13350  1.0000
  C   C2        1.0  0.77424  0.72258  0.13343  1.0000
  C   C3        1.0  0.64109  0.77737  0.86650  1.0000
  C   C4        1.0  0.22575  0.27742  0.86656  1.0000
  C   C5        1.0  0.04307  0.81606  0.73205  1.0000
  C   C6        1.0  0.68908  0.31596  0.73182  1.0000
  C   C7        1.0  0.95693  0.18394  0.26795  1.0000
  C   C8        1.0  0.31091  0.68404  0.26817  1.0000
  C   C9        1.0  0.96904  0.68354  0.69853  1.0000
  C   C10       1.0  0.72960  0.18346  0.69836  1.0000
  C   C11       1.0  0.03097  0.31646  0.30146  1.0000
  C   C12       1.0  0.27040  0.81654  0.30164  1.0000
  C   C13       1.0  0.86769  0.60017  0.56518  1.0000
  C   C14       1.0  0.69735  0.10001  0.56499  1.0000
  C   C15       1.0  0.13231  0.39983  0.43482  1.0000
  C   C16       1.0  0.30265  0.89999  0.43501  1.0000
  C   C17       1.0  0.83734  0.64797  0.46605  1.0000
  C   C18       1.0  0.62856  0.14773  0.46580  1.0000
  C   C19       1.0  0.16265  0.35203  0.53395  1.0000
  C   C20       1.0  0.37144  0.85227  0.53420  1.0000
  C   C21       1.0  0.90495  0.77977  0.49956  1.0000
  C   C22       1.0  0.59476  0.27960  0.49933  1.0000
  C   C23       1.0  0.09505  0.22023  0.50044  1.0000
  C   C24       1.0  0.40524  0.72040  0.50067  1.0000
  C   C25       1.0  0.00548  0.86291  0.63099  1.0000
  C   C26       1.0  0.62564  0.36279  0.63074  1.0000
  C   C27       1.0  0.99452  0.13709  0.36901  1.0000
  C   C28       1.0  0.37436  0.63721  0.36926  1.0000
  C   C29       1.0  0.99431  0.63348  0.79820  1.0000
  C   C30       1.0  0.80395  0.13336  0.79802  1.0000
  C   C31       1.0  0.00569  0.36653  0.20180  1.0000
  C   C32       1.0  0.19605  0.86664  0.20199  1.0000
  S   S1        1.0  0.54044  0.33562  0.18800  1.0000
  S   S2        1.0  0.64709  0.83548  0.18785  1.0000
  S   S3        1.0  0.45956  0.66437  0.81200  1.0000
  S   S4        1.0  0.35291  0.16452  0.81214  1.0000
  N   N1        1.0  0.22573  0.14170  0.09489  1.0000
  N   N2        1.0  0.86887  0.64169  0.09481  1.0000
  N   N3        1.0  0.77427  0.85830  0.90511  1.0000
  N   N4        1.0  0.13113  0.35831  0.90519  1.0000
  N   N5        1.0  0.15016  0.90007  0.86396  1.0000
  N   N6        1.0  0.71393  0.40002  0.86371  1.0000
  N   N7        1.0  0.84984  0.09994  0.13603  1.0000
  N   N8        1.0  0.28607  0.59998  0.13629  1.0000
  N   N9        1.0  0.00941  0.59102  0.87880  1.0000
  N   N10       1.0  0.86947  0.09092  0.87862  1.0000
  N   N11       1.0  0.99060  0.40898  0.12120  1.0000
  N   N12       1.0  0.13053  0.90907  0.12138  1.0000
