data_image0
_chemical_formula_structural       Fe2H52C68S4N16O8
_chemical_formula_sum              "Fe2 H52 C68 S4 N16 O8"
_cell_length_a       11.513
_cell_length_b       12.2207
_cell_length_c       13.1931
_cell_angle_alpha    101.673
_cell_angle_beta     89.9603
_cell_angle_gamma    118.049

_space_group_name_H-M_alt    "P 1"
_space_group_IT_number       1

loop_
  _space_group_symop_operation_xyz
  'x, y, z'

loop_
  _atom_site_type_symbol
  _atom_site_label
  _atom_site_symmetry_multiplicity
  _atom_site_fract_x
  _atom_site_fract_y
  _atom_site_fract_z
  _atom_site_occupancy
  Fe  Fe1       1.0  0.73765  0.00005  0.74992  1.0000
  Fe  Fe2       1.0  0.26235  0.99996  0.25009  1.0000
  H   H1        1.0  0.68036  0.15077  0.93920  1.0000
  H   H2        1.0  0.52967  0.84955  0.56094  1.0000
  H   H3        1.0  0.31964  0.84923  0.06080  1.0000
  H   H4        1.0  0.47033  0.15045  0.43906  1.0000
  H   H5        1.0  0.78837  0.36555  0.05057  1.0000
  H   H6        1.0  0.42272  0.63471  0.44971  1.0000
  H   H7        1.0  0.21162  0.63444  0.94943  1.0000
  H   H8        1.0  0.57728  0.36529  0.55029  1.0000
  H   H9        1.0  0.11172  0.45745  0.85702  1.0000
  H   H10       1.0  0.65434  0.54238  0.64251  1.0000
  H   H11       1.0  0.88828  0.54255  0.14298  1.0000
  H   H12       1.0  0.34567  0.45763  0.35749  1.0000
  H   H13       1.0  0.98694  0.23943  0.75209  1.0000
  H   H14       1.0  0.74790  0.76055  0.74728  1.0000
  H   H15       1.0  0.01306  0.76057  0.24791  1.0000
  H   H16       1.0  0.25210  0.23945  0.25272  1.0000
  H   H17       1.0  0.94414  0.05429  0.91143  1.0000
  H   H18       1.0  0.89033  0.94582  0.58861  1.0000
  H   H19       1.0  0.05586  0.94571  0.08858  1.0000
  H   H20       1.0  0.10967  0.05418  0.41140  1.0000
  H   H21       1.0  0.16194  0.05934  0.91799  1.0000
  H   H22       1.0  0.10319  0.94102  0.58208  1.0000
  H   H23       1.0  0.83806  0.94067  0.08201  1.0000
  H   H24       1.0  0.89682  0.05898  0.41792  1.0000
  H   H25       1.0  0.54809  0.06556  0.61436  1.0000
  H   H26       1.0  0.48250  0.93453  0.88563  1.0000
  H   H27       1.0  0.45190  0.93443  0.38563  1.0000
  H   H28       1.0  0.51751  0.06548  0.11437  1.0000
  H   H29       1.0  0.33298  0.06775  0.60819  1.0000
  H   H30       1.0  0.26519  0.93238  0.89182  1.0000
  H   H31       1.0  0.66702  0.93225  0.39181  1.0000
  H   H32       1.0  0.73482  0.06762  0.10818  1.0000
  H   H33       1.0  0.30755  0.70345  0.31300  1.0000
  H   H34       1.0  0.60373  0.29597  0.18741  1.0000
  H   H35       1.0  0.69244  0.29654  0.68699  1.0000
  H   H36       1.0  0.39627  0.70403  0.81259  1.0000
  H   H37       1.0  0.49082  0.71778  0.20525  1.0000
  H   H38       1.0  0.77306  0.28170  0.29457  1.0000
  H   H39       1.0  0.50917  0.28221  0.79474  1.0000
  H   H40       1.0  0.22694  0.71829  0.70543  1.0000
  H   H41       1.0  0.46287  0.52843  0.07293  1.0000
  H   H42       1.0  0.93428  0.47109  0.42675  1.0000
  H   H43       1.0  0.53711  0.47157  0.92706  1.0000
  H   H44       1.0  0.06573  0.52891  0.57325  1.0000
  H   H45       1.0  0.24820  0.32688  0.04147  1.0000
  H   H46       1.0  0.92111  0.67279  0.45817  1.0000
  H   H47       1.0  0.75179  0.67311  0.95853  1.0000
  H   H48       1.0  0.07889  0.32721  0.54183  1.0000
  H   H49       1.0  0.09570  0.50087  0.28489  1.0000
  H   H50       1.0  0.59452  0.49876  0.21543  1.0000
  H   H51       1.0  0.90429  0.49912  0.71511  1.0000
  H   H52       1.0  0.40548  0.50124  0.78457  1.0000
  C   C1        1.0  0.63529  0.85370  0.92140  1.0000
  C   C2        1.0  0.78187  0.14633  0.57847  1.0000
  C   C3        1.0  0.36472  0.14631  0.07861  1.0000
  C   C4        1.0  0.21813  0.85367  0.42153  1.0000
  C   C5        1.0  0.77669  0.22124  0.92394  1.0000
  C   C6        1.0  0.55555  0.77899  0.57606  1.0000
  C   C7        1.0  0.22330  0.77876  0.07607  1.0000
  C   C8        1.0  0.44445  0.22102  0.42394  1.0000
  C   C9        1.0  0.83949  0.34360  0.98667  1.0000
  C   C10       1.0  0.49582  0.65657  0.51345  1.0000
  C   C11       1.0  0.16051  0.65641  0.01333  1.0000
  C   C12       1.0  0.50419  0.34344  0.48655  1.0000
  C   C13       1.0  0.96436  0.43478  0.96712  1.0000
  C   C14       1.0  0.52953  0.56525  0.53281  1.0000
  C   C15       1.0  0.03564  0.56522  0.03288  1.0000
  C   C16       1.0  0.47047  0.43475  0.46719  1.0000
  C   C17       1.0  0.01679  0.39406  0.88006  1.0000
  C   C18       1.0  0.62283  0.60590  0.61959  1.0000
  C   C19       1.0  0.98321  0.60594  0.11994  1.0000
  C   C20       1.0  0.37718  0.39410  0.38041  1.0000
  C   C21       1.0  0.94765  0.27083  0.82018  1.0000
  C   C22       1.0  0.67713  0.72921  0.67937  1.0000
  C   C23       1.0  0.05235  0.72917  0.17982  1.0000
  C   C24       1.0  0.32288  0.27079  0.32063  1.0000
  C   C25       1.0  0.98352  0.03042  0.84056  1.0000
  C   C26       1.0  0.95342  0.96977  0.65952  1.0000
  C   C27       1.0  0.01648  0.96958  0.15944  1.0000
  C   C28       1.0  0.04658  0.03024  0.34049  1.0000
  C   C29       1.0  0.10438  0.03161  0.84313  1.0000
  C   C30       1.0  0.07315  0.96868  0.65697  1.0000
  C   C31       1.0  0.89562  0.96839  0.15688  1.0000
  C   C32       1.0  0.92685  0.03132  0.34304  1.0000
  C   C33       1.0  0.15238  0.00015  0.75005  1.0000
  C   C34       1.0  0.84763  0.99986  0.24996  1.0000
  C   C35       1.0  0.48198  0.03595  0.67415  1.0000
  C   C36       1.0  0.44601  0.96412  0.82586  1.0000
  C   C37       1.0  0.51801  0.96405  0.32584  1.0000
  C   C38       1.0  0.55399  0.03588  0.17414  1.0000
  C   C39       1.0  0.36150  0.03620  0.67069  1.0000
  C   C40       1.0  0.32529  0.96393  0.82932  1.0000
  C   C41       1.0  0.63850  0.96380  0.32931  1.0000
  C   C42       1.0  0.67471  0.03607  0.17069  1.0000
  C   C43       1.0  0.28005  0.00012  0.75002  1.0000
  C   C44       1.0  0.71995  0.99988  0.24998  1.0000
  C   C45       1.0  0.29565  0.62172  0.25354  1.0000
  C   C46       1.0  0.67362  0.37776  0.24667  1.0000
  C   C47       1.0  0.70435  0.37827  0.74646  1.0000
  C   C48       1.0  0.32638  0.62224  0.75333  1.0000
  C   C49       1.0  0.39792  0.62924  0.19325  1.0000
  C   C50       1.0  0.76848  0.37021  0.30670  1.0000
  C   C51       1.0  0.60207  0.37075  0.80675  1.0000
  C   C52       1.0  0.23153  0.62979  0.69330  1.0000
  C   C53       1.0  0.38182  0.52309  0.11799  1.0000
  C   C54       1.0  0.85854  0.47641  0.38176  1.0000
  C   C55       1.0  0.61817  0.47690  0.88200  1.0000
  C   C56       1.0  0.14147  0.52360  0.61824  1.0000
  C   C57       1.0  0.26245  0.41017  0.10000  1.0000
  C   C58       1.0  0.85209  0.58946  0.39975  1.0000
  C   C59       1.0  0.73755  0.58983  0.90000  1.0000
  C   C60       1.0  0.14791  0.41054  0.60025  1.0000
  C   C61       1.0  0.16155  0.40526  0.16082  1.0000
  C   C62       1.0  0.75606  0.59444  0.33914  1.0000
  C   C63       1.0  0.83845  0.59473  0.83918  1.0000
  C   C64       1.0  0.24395  0.40556  0.66086  1.0000
  C   C65       1.0  0.17641  0.50876  0.23861  1.0000
  C   C66       1.0  0.66738  0.49085  0.26157  1.0000
  C   C67       1.0  0.82359  0.49123  0.76140  1.0000
  C   C68       1.0  0.33263  0.50915  0.73842  1.0000
  S   S1        1.0  0.55405  0.75606  0.99363  1.0000
  S   S2        1.0  0.79803  0.24392  0.50624  1.0000
  S   S3        1.0  0.44596  0.24395  0.00638  1.0000
  S   S4        1.0  0.20197  0.75608  0.49375  1.0000
  N   N1        1.0  0.69171  0.92674  0.86821  1.0000
  N   N2        1.0  0.76520  0.07330  0.63169  1.0000
  N   N3        1.0  0.30829  0.07327  0.13179  1.0000
  N   N4        1.0  0.23480  0.92670  0.36832  1.0000
  N   N5        1.0  0.82912  0.18296  0.84135  1.0000
  N   N6        1.0  0.64640  0.81720  0.65841  1.0000
  N   N7        1.0  0.17087  0.81704  0.15865  1.0000
  N   N8        1.0  0.35361  0.18281  0.34160  1.0000
  N   N9        1.0  0.90762  0.00004  0.75003  1.0000
  N   N10       1.0  0.09237  0.99996  0.24998  1.0000
  N   N11       1.0  0.52412  0.00006  0.75002  1.0000
  N   N12       1.0  0.47589  0.99994  0.24998  1.0000
  N   N13       1.0  0.03529  0.28782  0.14178  1.0000
  N   N14       1.0  0.74726  0.71204  0.35812  1.0000
  N   N15       1.0  0.96470  0.71217  0.85822  1.0000
  N   N16       1.0  0.25274  0.28797  0.64187  1.0000
  O   O1        1.0  0.95228  0.27881  0.20440  1.0000
  O   O2        1.0  0.67303  0.72094  0.29568  1.0000
  O   O3        1.0  0.04771  0.72119  0.79560  1.0000
  O   O4        1.0  0.32697  0.27907  0.70430  1.0000
  O   O5        1.0  0.01647  0.20277  0.06346  1.0000
  O   O6        1.0  0.81370  0.79726  0.43624  1.0000
  O   O7        1.0  0.98352  0.79722  0.93655  1.0000
  O   O8        1.0  0.18629  0.20273  0.56376  1.0000
