data_image0
_chemical_formula_structural       Li4Mn4H16C24O32
_chemical_formula_sum              "Li4 Mn4 H16 C24 O32"
_cell_length_a       8.57391
_cell_length_b       9.07374
_cell_length_c       11.236
_cell_angle_alpha    90.0001
_cell_angle_beta     90
_cell_angle_gamma    117.061

_space_group_name_H-M_alt    "P 1"
_space_group_IT_number       1

loop_
  _space_group_symop_operation_xyz
  'x, y, z'

loop_
  _atom_site_type_symbol
  _atom_site_label
  _atom_site_symmetry_multiplicity
  _atom_site_fract_x
  _atom_site_fract_y
  _atom_site_fract_z
  _atom_site_occupancy
  Li  Li1       1.0  0.07885  0.97020  0.67544  1.0000
  Li  Li2       1.0  0.92115  0.52980  0.17544  1.0000
  Li  Li3       1.0  0.92115  0.02980  0.32457  1.0000
  Li  Li4       1.0  0.07885  0.47020  0.82456  1.0000
  Mn  Mn1       1.0  0.44660  0.20632  0.60487  1.0000
  Mn  Mn2       1.0  0.55340  0.29368  0.10487  1.0000
  Mn  Mn3       1.0  0.55340  0.79368  0.39513  1.0000
  Mn  Mn4       1.0  0.44659  0.70632  0.89513  1.0000
  H   H1        1.0  0.71775  0.35966  0.74678  1.0000
  H   H2        1.0  0.28225  0.14034  0.24678  1.0000
  H   H3        1.0  0.28225  0.64034  0.25322  1.0000
  H   H4        1.0  0.71775  0.85966  0.75322  1.0000
  H   H5        1.0  0.60810  0.45188  0.77926  1.0000
  H   H6        1.0  0.39190  0.04812  0.27926  1.0000
  H   H7        1.0  0.39190  0.54812  0.22074  1.0000
  H   H8        1.0  0.60810  0.95188  0.72074  1.0000
  H   H9        1.0  0.77638  0.72999  0.60911  1.0000
  H   H10       1.0  0.22362  0.77001  0.10911  1.0000
  H   H11       1.0  0.22362  0.27001  0.39089  1.0000
  H   H12       1.0  0.77638  0.22999  0.89089  1.0000
  H   H13       1.0  0.85596  0.69219  0.72564  1.0000
  H   H14       1.0  0.14404  0.80781  0.22564  1.0000
  H   H15       1.0  0.14404  0.30781  0.27436  1.0000
  H   H16       1.0  0.85596  0.19219  0.77436  1.0000
  C   C1        1.0  0.11395  0.27294  0.60353  1.0000
  C   C2        1.0  0.88605  0.22706  0.10353  1.0000
  C   C3        1.0  0.88605  0.72706  0.39647  1.0000
  C   C4        1.0  0.11395  0.77294  0.89647  1.0000
  C   C5        1.0  0.04932  0.39073  0.55656  1.0000
  C   C6        1.0  0.95069  0.10927  0.05656  1.0000
  C   C7        1.0  0.95068  0.60927  0.44345  1.0000
  C   C8        1.0  0.04931  0.89073  0.94344  1.0000
  C   C9        1.0  0.88092  0.32872  0.50729  1.0000
  C   C10       1.0  0.11908  0.17128  0.00729  1.0000
  C   C11       1.0  0.11908  0.67129  0.49271  1.0000
  C   C12       1.0  0.88092  0.82872  0.99271  1.0000
  C   C13       1.0  0.75309  0.14638  0.51855  1.0000
  C   C14       1.0  0.24691  0.35362  0.01855  1.0000
  C   C15       1.0  0.24691  0.85362  0.48145  1.0000
  C   C16       1.0  0.75309  0.64638  0.98145  1.0000
  C   C17       1.0  0.16577  0.56073  0.55141  1.0000
  C   C18       1.0  0.83423  0.93927  0.05141  1.0000
  C   C19       1.0  0.83423  0.43927  0.44859  1.0000
  C   C20       1.0  0.16577  0.06073  0.94859  1.0000
  C   C21       1.0  0.33232  0.62423  0.62252  1.0000
  C   C22       1.0  0.66769  0.87577  0.12252  1.0000
  C   C23       1.0  0.66769  0.37577  0.37748  1.0000
  C   C24       1.0  0.33231  0.12423  0.87748  1.0000
  O   O1        1.0  0.01682  0.15409  0.67010  1.0000
  O   O2        1.0  0.98318  0.34591  0.17010  1.0000
  O   O3        1.0  0.98318  0.84591  0.32990  1.0000
  O   O4        1.0  0.01682  0.65410  0.82990  1.0000
  O   O5        1.0  0.26511  0.30006  0.56480  1.0000
  O   O6        1.0  0.73489  0.19993  0.06479  1.0000
  O   O7        1.0  0.73489  0.69994  0.43520  1.0000
  O   O8        1.0  0.26511  0.80006  0.93521  1.0000
  O   O9        1.0  0.77221  0.04436  0.45044  1.0000
  O   O10       1.0  0.22779  0.45564  0.95044  1.0000
  O   O11       1.0  0.22779  0.95565  0.54956  1.0000
  O   O12       1.0  0.77221  0.54436  0.04956  1.0000
  O   O13       1.0  0.63269  0.10652  0.59633  1.0000
  O   O14       1.0  0.36731  0.39348  0.09632  1.0000
  O   O15       1.0  0.36731  0.89348  0.40368  1.0000
  O   O16       1.0  0.63269  0.60652  0.90367  1.0000
  O   O17       1.0  0.30985  0.58285  0.73274  1.0000
  O   O18       1.0  0.69015  0.91715  0.23274  1.0000
  O   O19       1.0  0.69015  0.41715  0.26726  1.0000
  O   O20       1.0  0.30985  0.08284  0.76726  1.0000
  O   O21       1.0  0.47778  0.71569  0.57526  1.0000
  O   O22       1.0  0.52222  0.78430  0.07526  1.0000
  O   O23       1.0  0.52222  0.28431  0.42474  1.0000
  O   O24       1.0  0.47778  0.21568  0.92474  1.0000
  O   O25       1.0  0.64480  0.40781  0.71026  1.0000
  O   O26       1.0  0.35519  0.09219  0.21026  1.0000
  O   O27       1.0  0.35519  0.59219  0.28973  1.0000
  O   O28       1.0  0.64480  0.90781  0.78974  1.0000
  O   O29       1.0  0.84665  0.78132  0.68069  1.0000
  O   O30       1.0  0.15335  0.71868  0.18069  1.0000
  O   O31       1.0  0.15335  0.21868  0.31931  1.0000
  O   O32       1.0  0.84665  0.28133  0.81931  1.0000
