data_image0
_chemical_formula_structural       Cu4H36C36N8O8
_chemical_formula_sum              "Cu4 H36 C36 N8 O8"
_cell_length_a       9.18212
_cell_length_b       9.48027
_cell_length_c       12.4498
_cell_angle_alpha    67.5525
_cell_angle_beta     89.2279
_cell_angle_gamma    87.7978

_space_group_name_H-M_alt    "P 1"
_space_group_IT_number       1

loop_
  _space_group_symop_operation_xyz
  'x, y, z'

loop_
  _atom_site_type_symbol
  _atom_site_label
  _atom_site_symmetry_multiplicity
  _atom_site_fract_x
  _atom_site_fract_y
  _atom_site_fract_z
  _atom_site_occupancy
  Cu  Cu1       1.0  0.44292  0.88016  0.93564  1.0000
  Cu  Cu2       1.0  0.05696  0.18513  0.93521  1.0000
  Cu  Cu3       1.0  0.55710  0.11984  0.06435  1.0000
  Cu  Cu4       1.0  0.94305  0.81488  0.06479  1.0000
  H   H1        1.0  0.61133  0.15223  0.83006  1.0000
  H   H2        1.0  0.88822  0.01914  0.82955  1.0000
  H   H3        1.0  0.38869  0.84778  0.16993  1.0000
  H   H4        1.0  0.11182  0.98084  0.17046  1.0000
  H   H5        1.0  0.31449  0.94468  0.69440  1.0000
  H   H6        1.0  0.18551  0.36186  0.69387  1.0000
  H   H7        1.0  0.68551  0.05533  0.30560  1.0000
  H   H8        1.0  0.81451  0.63814  0.30615  1.0000
  H   H9        1.0  0.35860  0.12681  0.49242  1.0000
  H   H10       1.0  0.14196  0.38102  0.49208  1.0000
  H   H11       1.0  0.64138  0.87319  0.50757  1.0000
  H   H12       1.0  0.85806  0.61898  0.50793  1.0000
  H   H13       1.0  0.66852  0.34439  0.63087  1.0000
  H   H14       1.0  0.83164  0.02555  0.63055  1.0000
  H   H15       1.0  0.33150  0.65562  0.36911  1.0000
  H   H16       1.0  0.16838  0.97444  0.36945  1.0000
  H   H17       1.0  0.37080  0.52971  0.19512  1.0000
  H   H18       1.0  0.12899  0.27410  0.19521  1.0000
  H   H19       1.0  0.62918  0.47027  0.80487  1.0000
  H   H20       1.0  0.87101  0.72592  0.80478  1.0000
  H   H21       1.0  0.54709  0.57167  0.23230  1.0000
  H   H22       1.0  0.95274  0.19518  0.23263  1.0000
  H   H23       1.0  0.45288  0.42834  0.76769  1.0000
  H   H24       1.0  0.04727  0.80480  0.76738  1.0000
  H   H25       1.0  0.57950  0.47536  0.07544  1.0000
  H   H26       1.0  0.92031  0.44831  0.07515  1.0000
  H   H27       1.0  0.42049  0.52462  0.92455  1.0000
  H   H28       1.0  0.07964  0.55167  0.92488  1.0000
  H   H29       1.0  0.47678  0.31125  0.15236  1.0000
  H   H30       1.0  0.02319  0.53576  0.15174  1.0000
  H   H31       1.0  0.52320  0.68872  0.84765  1.0000
  H   H32       1.0  0.97677  0.46423  0.84827  1.0000
  H   H33       1.0  0.65049  0.33398  0.20532  1.0000
  H   H34       1.0  0.84950  0.46027  0.20462  1.0000
  H   H35       1.0  0.34949  0.66603  0.79468  1.0000
  H   H36       1.0  0.15047  0.53969  0.79541  1.0000
  C   C1        1.0  0.12471  0.82532  0.99856  1.0000
  C   C2        1.0  0.37535  0.17630  0.99811  1.0000
  C   C3        1.0  0.87530  0.17467  0.00146  1.0000
  C   C4        1.0  0.62466  0.82371  0.00188  1.0000
  C   C5        1.0  0.55854  0.15089  0.75242  1.0000
  C   C6        1.0  0.94132  0.09785  0.75198  1.0000
  C   C7        1.0  0.44147  0.84912  0.24757  1.0000
  C   C8        1.0  0.05870  0.90215  0.24802  1.0000
  C   C9        1.0  0.51762  0.25081  0.54622  1.0000
  C   C10       1.0  0.98280  0.20330  0.54591  1.0000
  C   C11       1.0  0.48238  0.74920  0.45376  1.0000
  C   C12       1.0  0.01723  0.79670  0.45410  1.0000
  C   C13       1.0  0.39283  0.03416  0.67749  1.0000
  C   C14       1.0  0.10724  0.28923  0.67704  1.0000
  C   C15       1.0  0.60718  0.96585  0.32250  1.0000
  C   C16       1.0  0.89279  0.71077  0.32298  1.0000
  C   C17       1.0  0.41750  0.13645  0.56440  1.0000
  C   C18       1.0  0.08292  0.29952  0.56406  1.0000
  C   C19       1.0  0.58250  0.86355  0.43559  1.0000
  C   C20       1.0  0.91711  0.70047  0.43596  1.0000
  C   C21       1.0  0.58963  0.25689  0.64258  1.0000
  C   C22       1.0  0.91053  0.10130  0.64225  1.0000
  C   C23       1.0  0.41037  0.74312  0.35740  1.0000
  C   C24       1.0  0.08948  0.89871  0.35776  1.0000
  C   C25       1.0  0.55215  0.36702  0.42940  1.0000
  C   C26       1.0  0.94802  0.20375  0.42916  1.0000
  C   C27       1.0  0.44782  0.63299  0.57059  1.0000
  C   C28       1.0  0.05200  0.79627  0.57085  1.0000
  C   C29       1.0  0.47858  0.48083  0.22990  1.0000
  C   C30       1.0  0.02135  0.28846  0.22990  1.0000
  C   C31       1.0  0.52139  0.51915  0.77010  1.0000
  C   C32       1.0  0.97865  0.71155  0.77010  1.0000
  C   C33       1.0  0.55016  0.39446  0.16222  1.0000
  C   C34       1.0  0.94978  0.44262  0.16183  1.0000
  C   C35       1.0  0.44981  0.60553  0.83778  1.0000
  C   C36       1.0  0.05019  0.55736  0.83819  1.0000
  N   N1        1.0  0.24686  0.83292  0.96716  1.0000
  N   N2        1.0  0.25307  0.20048  0.96687  1.0000
  N   N3        1.0  0.75314  0.16710  0.03283  1.0000
  N   N4        1.0  0.74695  0.79954  0.03312  1.0000
  N   N5        1.0  0.46151  0.04080  0.77038  1.0000
  N   N6        1.0  0.03814  0.19017  0.76986  1.0000
  N   N7        1.0  0.53850  0.95921  0.22961  1.0000
  N   N8        1.0  0.96188  0.80982  0.23015  1.0000
  O   O1        1.0  0.45092  0.37584  0.34937  1.0000
  O   O2        1.0  0.04941  0.27406  0.34930  1.0000
  O   O3        1.0  0.54905  0.62414  0.65062  1.0000
  O   O4        1.0  0.95061  0.72593  0.65070  1.0000
  O   O5        1.0  0.65941  0.44628  0.41081  1.0000
  O   O6        1.0  0.84028  0.14370  0.41059  1.0000
  O   O7        1.0  0.34054  0.55375  0.58918  1.0000
  O   O8        1.0  0.15972  0.85635  0.58942  1.0000
