data_image0
_chemical_formula_structural       CuH16C16N4O4
_chemical_formula_sum              "Cu1 H16 C16 N4 O4"
_cell_length_a       7.95222
_cell_length_b       7.44171
_cell_length_c       8.38308
_cell_angle_alpha    105.596
_cell_angle_beta     92.647
_cell_angle_gamma    116.038

_space_group_name_H-M_alt    "P 1"
_space_group_IT_number       1

loop_
  _space_group_symop_operation_xyz
  'x, y, z'

loop_
  _atom_site_type_symbol
  _atom_site_label
  _atom_site_symmetry_multiplicity
  _atom_site_fract_x
  _atom_site_fract_y
  _atom_site_fract_z
  _atom_site_occupancy
  Cu  Cu1       1.0  0.49999  0.50000  0.50001  1.0000
  H   H1        1.0  0.41348  0.04072  0.29619  1.0000
  H   H2        1.0  0.58650  0.95928  0.70381  1.0000
  H   H3        1.0  0.27020  0.80708  0.99707  1.0000
  H   H4        1.0  0.72978  0.19290  0.00291  1.0000
  H   H5        1.0  0.15386  0.94201  0.79677  1.0000
  H   H6        1.0  0.84615  0.05801  0.20322  1.0000
  H   H7        1.0  0.18846  0.30729  0.90141  1.0000
  H   H8        1.0  0.81154  0.69272  0.09861  1.0000
  H   H9        1.0  0.43179  0.67959  0.15892  1.0000
  H   H10       1.0  0.56825  0.32039  0.84109  1.0000
  H   H11       1.0  0.19768  0.57865  0.20164  1.0000
  H   H12       1.0  0.80236  0.42139  0.79836  1.0000
  H   H13       1.0  0.31975  0.70849  0.47192  1.0000
  H   H14       1.0  0.68024  0.29150  0.52808  1.0000
  H   H15       1.0  0.53631  0.82001  0.42900  1.0000
  H   H16       1.0  0.46368  0.18001  0.57102  1.0000
  C   C1        1.0  0.35990  0.09280  0.20543  1.0000
  C   C2        1.0  0.64010  0.90719  0.79460  1.0000
  C   C3        1.0  0.27978  0.96355  0.03937  1.0000
  C   C4        1.0  0.72022  0.03645  0.96065  1.0000
  C   C5        1.0  0.21478  0.03893  0.92799  1.0000
  C   C6        1.0  0.78522  0.96110  0.07203  1.0000
  C   C7        1.0  0.23314  0.24150  0.98656  1.0000
  C   C8        1.0  0.76687  0.75851  0.01345  1.0000
  C   C9        1.0  0.31254  0.36155  0.15584  1.0000
  C   C10       1.0  0.68747  0.63843  0.84416  1.0000
  C   C11       1.0  0.33607  0.58129  0.22690  1.0000
  C   C12       1.0  0.66394  0.41875  0.77310  1.0000
  C   C13       1.0  0.08986  0.16442  0.55475  1.0000
  C   C14       1.0  0.91010  0.83555  0.44521  1.0000
  C   C15       1.0  0.88358  0.02757  0.48523  1.0000
  C   C16       1.0  0.11641  0.97241  0.51475  1.0000
  N   N1        1.0  0.37468  0.28746  0.26299  1.0000
  N   N2        1.0  0.62532  0.71253  0.73702  1.0000
  N   N3        1.0  0.41567  0.67477  0.40849  1.0000
  N   N4        1.0  0.58433  0.32521  0.59151  1.0000
  O   O1        1.0  0.19679  0.35965  0.62068  1.0000
  O   O2        1.0  0.80320  0.64032  0.37927  1.0000
  O   O3        1.0  0.74154  0.05979  0.46506  1.0000
  O   O4        1.0  0.25844  0.94022  0.53494  1.0000
