data_image0
_chemical_formula_structural       Cd2H32C24N8O12
_chemical_formula_sum              "Cd2 H32 C24 N8 O12"
_cell_length_a       8.42935
_cell_length_b       8.66737
_cell_length_c       11.2716
_cell_angle_alpha    102.854
_cell_angle_beta     90.0003
_cell_angle_gamma    90.0001

_space_group_name_H-M_alt    "P 1"
_space_group_IT_number       1

loop_
  _space_group_symop_operation_xyz
  'x, y, z'

loop_
  _atom_site_type_symbol
  _atom_site_label
  _atom_site_symmetry_multiplicity
  _atom_site_fract_x
  _atom_site_fract_y
  _atom_site_fract_z
  _atom_site_occupancy
  Cd  Cd1       1.0  0.50000  0.00000  0.50000  1.0000
  Cd  Cd2       1.0  1.00000  0.50000  0.00000  1.0000
  H   H1        1.0  0.48797  0.18430  0.26197  1.0000
  H   H2        1.0  0.98796  0.31571  0.23803  1.0000
  H   H3        1.0  0.51203  0.81570  0.73803  1.0000
  H   H4        1.0  0.01203  0.68429  0.76197  1.0000
  H   H5        1.0  0.31331  0.46076  0.26591  1.0000
  H   H6        1.0  0.81331  0.03924  0.23409  1.0000
  H   H7        1.0  0.68669  0.53924  0.73409  1.0000
  H   H8        1.0  0.18669  0.96076  0.76591  1.0000
  H   H9        1.0  0.32050  0.36323  0.61814  1.0000
  H   H10       1.0  0.82051  0.13678  0.88186  1.0000
  H   H11       1.0  0.67950  0.63678  0.38186  1.0000
  H   H12       1.0  0.17949  0.86322  0.11814  1.0000
  H   H13       1.0  0.17117  0.60100  0.59735  1.0000
  H   H14       1.0  0.67118  0.89901  0.90265  1.0000
  H   H15       1.0  0.82883  0.39901  0.40265  1.0000
  H   H16       1.0  0.32883  0.10099  0.09735  1.0000
  H   H17       1.0  0.09085  0.59522  0.44876  1.0000
  H   H18       1.0  0.59085  0.90479  0.05124  1.0000
  H   H19       1.0  0.90916  0.40479  0.55124  1.0000
  H   H20       1.0  0.40916  0.09521  0.94876  1.0000
  H   H21       1.0  0.27090  0.69967  0.49628  1.0000
  H   H22       1.0  0.77090  0.80033  0.00372  1.0000
  H   H23       1.0  0.72910  0.30033  0.50372  1.0000
  H   H24       1.0  0.22910  0.19966  0.99628  1.0000
  H   H25       1.0  0.47630  0.78257  0.26077  1.0000
  H   H26       1.0  0.97630  0.71743  0.23924  1.0000
  H   H27       1.0  0.52370  0.21743  0.73923  1.0000
  H   H28       1.0  0.02370  0.28257  0.76077  1.0000
  H   H29       1.0  0.30225  0.85519  0.30342  1.0000
  H   H30       1.0  0.80225  0.64481  0.19658  1.0000
  H   H31       1.0  0.69775  0.14481  0.69658  1.0000
  H   H32       1.0  0.19775  0.35519  0.80342  1.0000
  C   C1        1.0  0.42682  0.26268  0.33606  1.0000
  C   C2        1.0  0.92682  0.23732  0.16394  1.0000
  C   C3        1.0  0.57318  0.73732  0.66393  1.0000
  C   C4        1.0  0.07317  0.76268  0.83606  1.0000
  C   C5        1.0  0.34248  0.39874  0.33697  1.0000
  C   C6        1.0  0.84248  0.10127  0.16304  1.0000
  C   C7        1.0  0.65752  0.60127  0.66304  1.0000
  C   C8        1.0  0.15752  0.89873  0.83696  1.0000
  C   C9        1.0  0.34303  0.34912  0.52162  1.0000
  C   C10       1.0  0.84303  0.15089  0.97839  1.0000
  C   C11       1.0  0.65698  0.65089  0.47839  1.0000
  C   C12       1.0  0.15697  0.84911  0.02161  1.0000
  C   C13       1.0  0.19997  0.59554  0.50184  1.0000
  C   C14       1.0  0.69997  0.90447  0.99816  1.0000
  C   C15       1.0  0.80003  0.40447  0.49816  1.0000
  C   C16       1.0  0.30003  0.09553  0.00184  1.0000
  C   C17       1.0  0.11212  0.00463  0.54077  1.0000
  C   C18       1.0  0.61212  0.49537  0.95923  1.0000
  C   C19       1.0  0.88787  0.99539  0.45923  1.0000
  C   C20       1.0  0.38788  0.50461  0.04076  1.0000
  C   C21       1.0  0.95233  0.06336  0.58191  1.0000
  C   C22       1.0  0.45233  0.43665  0.91809  1.0000
  C   C23       1.0  0.04767  0.93665  0.41809  1.0000
  C   C24       1.0  0.54766  0.56335  0.08190  1.0000
  N   N1        1.0  0.42615  0.23290  0.45148  1.0000
  N   N2        1.0  0.92615  0.26710  0.04852  1.0000
  N   N3        1.0  0.57385  0.76710  0.54852  1.0000
  N   N4        1.0  0.07384  0.73290  0.95148  1.0000
  N   N5        1.0  0.29039  0.45172  0.45541  1.0000
  N   N6        1.0  0.79039  0.04828  0.04459  1.0000
  N   N7        1.0  0.70961  0.54828  0.54459  1.0000
  N   N8        1.0  0.20961  0.95172  0.95540  1.0000
  O   O1        1.0  0.24492  0.00971  0.59284  1.0000
  O   O2        1.0  0.74493  0.49029  0.90716  1.0000
  O   O3        1.0  0.75507  0.99029  0.40716  1.0000
  O   O4        1.0  0.25507  0.50971  0.09284  1.0000
  O   O5        1.0  0.89676  0.14245  0.68119  1.0000
  O   O6        1.0  0.39676  0.35755  0.81880  1.0000
  O   O7        1.0  0.10324  0.85755  0.31881  1.0000
  O   O8        1.0  0.60324  0.64245  0.18119  1.0000
  O   O9        1.0  0.41768  0.88029  0.30041  1.0000
  O   O10       1.0  0.91768  0.61971  0.19959  1.0000
  O   O11       1.0  0.58232  0.11971  0.69959  1.0000
  O   O12       1.0  0.08232  0.38029  0.80041  1.0000
