data_image0
_chemical_formula_structural       Cd4H40C40N16Cl8
_chemical_formula_sum              "Cd4 H40 C40 N16 Cl8"
_cell_length_a       7.04457
_cell_length_b       9.53275
_cell_length_c       18.0885
_cell_angle_alpha    90.003
_cell_angle_beta     89.993
_cell_angle_gamma    90.0042

_space_group_name_H-M_alt    "P 1"
_space_group_IT_number       1

loop_
  _space_group_symop_operation_xyz
  'x, y, z'

loop_
  _atom_site_type_symbol
  _atom_site_label
  _atom_site_symmetry_multiplicity
  _atom_site_fract_x
  _atom_site_fract_y
  _atom_site_fract_z
  _atom_site_occupancy
  Cd  Cd1       1.0  0.75000  0.91290  0.00000  1.0000
  Cd  Cd2       1.0  0.74997  0.41288  0.50000  1.0000
  Cd  Cd3       1.0  0.25004  0.08711  0.99999  1.0000
  Cd  Cd4       1.0  0.25001  0.58711  0.50000  1.0000
  H   H1        1.0  0.69969  0.36039  0.94596  1.0000
  H   H2        1.0  0.80032  0.86040  0.44598  1.0000
  H   H3        1.0  0.19969  0.63961  0.94600  1.0000
  H   H4        1.0  0.69973  0.86037  0.55405  1.0000
  H   H5        1.0  0.30030  0.63962  0.05405  1.0000
  H   H6        1.0  0.19968  0.13962  0.55401  1.0000
  H   H7        1.0  0.80031  0.36040  0.05401  1.0000
  H   H8        1.0  0.30025  0.13960  0.44596  1.0000
  H   H9        1.0  0.55524  0.37468  0.82380  1.0000
  H   H10       1.0  0.94482  0.87464  0.32382  1.0000
  H   H11       1.0  0.05523  0.62533  0.82383  1.0000
  H   H12       1.0  0.55523  0.87467  0.67622  1.0000
  H   H13       1.0  0.44477  0.62534  0.17620  1.0000
  H   H14       1.0  0.05517  0.12535  0.67618  1.0000
  H   H15       1.0  0.94477  0.37467  0.17617  1.0000
  H   H16       1.0  0.44476  0.12532  0.32378  1.0000
  H   H17       1.0  0.53645  0.82587  0.84924  1.0000
  H   H18       1.0  0.96360  0.32585  0.34922  1.0000
  H   H19       1.0  0.03647  0.17413  0.84923  1.0000
  H   H20       1.0  0.53627  0.32586  0.65075  1.0000
  H   H21       1.0  0.46362  0.17413  0.15075  1.0000
  H   H22       1.0  0.03637  0.67414  0.65078  1.0000
  H   H23       1.0  0.96356  0.82589  0.15077  1.0000
  H   H24       1.0  0.46371  0.67413  0.34924  1.0000
  H   H25       1.0  0.47722  0.54923  0.71508  1.0000
  H   H26       1.0  0.02284  0.04919  0.21508  1.0000
  H   H27       1.0  0.97723  0.45076  0.71510  1.0000
  H   H28       1.0  0.47709  0.04928  0.78493  1.0000
  H   H29       1.0  0.52280  0.45078  0.28491  1.0000
  H   H30       1.0  0.97716  0.95080  0.78492  1.0000
  H   H31       1.0  0.02278  0.54923  0.28490  1.0000
  H   H32       1.0  0.52290  0.95073  0.21507  1.0000
  H   H33       1.0  0.42623  0.71489  0.73798  1.0000
  H   H34       1.0  0.07379  0.21488  0.23795  1.0000
  H   H35       1.0  0.92624  0.28508  0.73798  1.0000
  H   H36       1.0  0.42603  0.21491  0.76203  1.0000
  H   H37       1.0  0.57378  0.28511  0.26202  1.0000
  H   H38       1.0  0.92618  0.78512  0.76204  1.0000
  H   H39       1.0  0.07376  0.71491  0.26203  1.0000
  H   H40       1.0  0.57395  0.78509  0.23797  1.0000
  C   C1        1.0  0.79645  0.58667  0.03655  1.0000
  C   C2        1.0  0.70354  0.08666  0.53656  1.0000
  C   C3        1.0  0.29647  0.41334  0.03656  1.0000
  C   C4        1.0  0.79646  0.08667  0.46346  1.0000
  C   C5        1.0  0.20355  0.41334  0.96346  1.0000
  C   C6        1.0  0.29645  0.91332  0.46344  1.0000
  C   C7        1.0  0.70354  0.58667  0.96345  1.0000
  C   C8        1.0  0.20353  0.91332  0.53655  1.0000
  C   C9        1.0  0.66590  0.46333  0.92344  1.0000
  C   C10       1.0  0.83411  0.96333  0.42345  1.0000
  C   C11       1.0  0.16590  0.53667  0.92346  1.0000
  C   C12       1.0  0.66589  0.96332  0.57656  1.0000
  C   C13       1.0  0.33410  0.53667  0.07657  1.0000
  C   C14       1.0  0.16590  0.03667  0.57654  1.0000
  C   C15       1.0  0.83410  0.46334  0.07655  1.0000
  C   C16       1.0  0.33409  0.03666  0.42343  1.0000
  C   C17       1.0  0.58333  0.47107  0.85418  1.0000
  C   C18       1.0  0.91670  0.97105  0.35418  1.0000
  C   C19       1.0  0.08333  0.52893  0.85420  1.0000
  C   C20       1.0  0.58332  0.97106  0.64584  1.0000
  C   C21       1.0  0.41667  0.52894  0.14583  1.0000
  C   C22       1.0  0.08330  0.02894  0.64582  1.0000
  C   C23       1.0  0.91667  0.47109  0.14581  1.0000
  C   C24       1.0  0.41667  0.02892  0.35416  1.0000
  C   C25       1.0  0.53457  0.60223  0.82384  1.0000
  C   C26       1.0  0.96550  0.10220  0.32383  1.0000
  C   C27       1.0  0.03458  0.39777  0.82384  1.0000
  C   C28       1.0  0.53449  0.10222  0.67617  1.0000
  C   C29       1.0  0.46545  0.39778  0.17616  1.0000
  C   C30       1.0  0.03449  0.89780  0.67616  1.0000
  C   C31       1.0  0.96545  0.60224  0.17616  1.0000
  C   C32       1.0  0.46550  0.89777  0.32382  1.0000
  C   C33       1.0  0.57365  0.72028  0.86783  1.0000
  C   C34       1.0  0.92638  0.22026  0.36782  1.0000
  C   C35       1.0  0.07367  0.27972  0.86783  1.0000
  C   C36       1.0  0.57351  0.22027  0.63216  1.0000
  C   C37       1.0  0.42639  0.27973  0.13217  1.0000
  C   C38       1.0  0.07360  0.77973  0.63218  1.0000
  C   C39       1.0  0.92635  0.72029  0.13217  1.0000
  C   C40       1.0  0.42648  0.77972  0.36783  1.0000
  N   N1        1.0  0.84478  0.71181  0.06576  1.0000
  N   N2        1.0  0.65511  0.21179  0.56576  1.0000
  N   N3        1.0  0.34481  0.28821  0.06576  1.0000
  N   N4        1.0  0.84477  0.21180  0.43423  1.0000
  N   N5        1.0  0.15525  0.28820  0.93424  1.0000
  N   N6        1.0  0.34486  0.78819  0.43424  1.0000
  N   N7        1.0  0.65522  0.71180  0.93424  1.0000
  N   N8        1.0  0.15521  0.78819  0.56577  1.0000
  N   N9        1.0  0.44200  0.61554  0.75714  1.0000
  N   N10       1.0  0.05803  0.11552  0.25712  1.0000
  N   N11       1.0  0.94201  0.38444  0.75714  1.0000
  N   N12       1.0  0.44186  0.11555  0.74287  1.0000
  N   N13       1.0  0.55801  0.38447  0.24286  1.0000
  N   N14       1.0  0.94195  0.88448  0.74287  1.0000
  N   N15       1.0  0.05799  0.61556  0.24286  1.0000
  N   N16       1.0  0.55812  0.88445  0.25713  1.0000
  Cl  Cl1       1.0  0.57586  0.08780  0.91426  1.0000
  Cl  Cl2       1.0  0.92425  0.58780  0.41427  1.0000
  Cl  Cl3       1.0  0.07583  0.91220  0.91427  1.0000
  Cl  Cl4       1.0  0.57576  0.58780  0.58573  1.0000
  Cl  Cl5       1.0  0.42418  0.91222  0.08573  1.0000
  Cl  Cl6       1.0  0.07573  0.41219  0.58573  1.0000
  Cl  Cl7       1.0  0.92420  0.08781  0.08573  1.0000
  Cl  Cl8       1.0  0.42422  0.41219  0.41427  1.0000
