data_image0
_chemical_formula_structural       ZnH16C16N4O4
_chemical_formula_sum              "Zn1 H16 C16 N4 O4"
_cell_length_a       8.17669
_cell_length_b       7.47211
_cell_length_c       8.67962
_cell_angle_alpha    110.958
_cell_angle_beta     95.9797
_cell_angle_gamma    117.408

_space_group_name_H-M_alt    "P 1"
_space_group_IT_number       1

loop_
  _space_group_symop_operation_xyz
  'x, y, z'

loop_
  _atom_site_type_symbol
  _atom_site_label
  _atom_site_symmetry_multiplicity
  _atom_site_fract_x
  _atom_site_fract_y
  _atom_site_fract_z
  _atom_site_occupancy
  Zn  Zn1       1.0  0.50000  0.50000  0.50000  1.0000
  H   H1        1.0  0.80333  0.47191  0.84878  1.0000
  H   H2        1.0  0.19669  0.52812  0.15122  1.0000
  H   H3        1.0  0.56210  0.36124  0.85279  1.0000
  H   H4        1.0  0.43793  0.63876  0.14722  1.0000
  H   H5        1.0  0.83746  0.78048  0.14148  1.0000
  H   H6        1.0  0.16253  0.21952  0.85852  1.0000
  H   H7        1.0  0.88220  0.16536  0.26497  1.0000
  H   H8        1.0  0.11779  0.83463  0.73503  1.0000
  H   H9        1.0  0.76790  0.28256  0.06163  1.0000
  H   H10       1.0  0.23210  0.71744  0.93837  1.0000
  H   H11       1.0  0.61931  0.01141  0.74009  1.0000
  H   H12       1.0  0.38069  0.98859  0.25990  1.0000
  H   H13       1.0  0.46845  0.17819  0.56835  1.0000
  H   H14       1.0  0.53156  0.82182  0.43165  1.0000
  H   H15       1.0  0.69157  0.31250  0.56100  1.0000
  H   H16       1.0  0.30843  0.68751  0.43900  1.0000
  C   C1        1.0  0.66627  0.45871  0.79984  1.0000
  C   C2        1.0  0.33374  0.54130  0.20017  1.0000
  C   C3        1.0  0.70203  0.69541  0.87748  1.0000
  C   C4        1.0  0.29796  0.30459  0.12252  1.0000
  C   C5        1.0  0.78985  0.83783  0.05708  1.0000
  C   C6        1.0  0.21014  0.16217  0.94292  1.0000
  C   C7        1.0  0.81577  0.05181  0.12542  1.0000
  C   C8        1.0  0.18422  0.94819  0.87458  1.0000
  C   C9        1.0  0.75303  0.11789  0.01195  1.0000
  C   C10       1.0  0.24697  0.88212  0.98805  1.0000
  C   C11       1.0  0.66868  0.96782  0.83480  1.0000
  C   C12       1.0  0.33132  0.03219  0.16519  1.0000
  C   C13       1.0  0.89892  0.83142  0.47095  1.0000
  C   C14       1.0  0.10107  0.16856  0.52904  1.0000
  C   C15       1.0  0.10958  0.96436  0.49644  1.0000
  C   C16       1.0  0.89041  0.03561  0.50355  1.0000
  N   N1        1.0  0.59068  0.33876  0.60897  1.0000
  N   N2        1.0  0.40933  0.66124  0.39104  1.0000
  N   N3        1.0  0.64407  0.76114  0.76933  1.0000
  N   N4        1.0  0.35593  0.23886  0.23067  1.0000
  O   O1        1.0  0.78039  0.62795  0.43541  1.0000
  O   O2        1.0  0.21960  0.37202  0.56458  1.0000
  O   O3        1.0  0.24160  0.92119  0.49485  1.0000
  O   O4        1.0  0.75840  0.07880  0.50517  1.0000
