data_image0
_chemical_formula_structural       Cd2H32C32N8O8
_chemical_formula_sum              "Cd2 H32 C32 N8 O8"
_cell_length_a       7.99674
_cell_length_b       8.57578
_cell_length_c       12.072
_cell_angle_alpha    90.0002
_cell_angle_beta     90
_cell_angle_gamma    94.6264

_space_group_name_H-M_alt    "P 1"
_space_group_IT_number       1

loop_
  _space_group_symop_operation_xyz
  'x, y, z'

loop_
  _atom_site_type_symbol
  _atom_site_label
  _atom_site_symmetry_multiplicity
  _atom_site_fract_x
  _atom_site_fract_y
  _atom_site_fract_z
  _atom_site_occupancy
  Cd  Cd1       1.0  0.50000  0.50000  0.50000  1.0000
  Cd  Cd2       1.0  0.50000  1.00000  0.00000  1.0000
  H   H1        1.0  0.29319  0.61176  0.20035  1.0000
  H   H2        1.0  0.70681  0.88825  0.70034  1.0000
  H   H3        1.0  0.70681  0.38825  0.79965  1.0000
  H   H4        1.0  0.29319  0.11176  0.29966  1.0000
  H   H5        1.0  0.27543  0.72137  0.32255  1.0000
  H   H6        1.0  0.72457  0.77864  0.82254  1.0000
  H   H7        1.0  0.72457  0.27863  0.67745  1.0000
  H   H8        1.0  0.27543  0.22137  0.17746  1.0000
  H   H9        1.0  0.00738  0.48875  0.20513  1.0000
  H   H10       1.0  0.99262  0.01126  0.70512  1.0000
  H   H11       1.0  0.99262  0.51126  0.79488  1.0000
  H   H12       1.0  0.00738  0.98873  0.29488  1.0000
  H   H13       1.0  0.80349  0.29016  0.29438  1.0000
  H   H14       1.0  0.19651  0.20985  0.79438  1.0000
  H   H15       1.0  0.19651  0.70985  0.70562  1.0000
  H   H16       1.0  0.80349  0.79014  0.20562  1.0000
  H   H17       1.0  0.87993  0.17114  0.47488  1.0000
  H   H18       1.0  0.12007  0.32886  0.97488  1.0000
  H   H19       1.0  0.12008  0.82885  0.52512  1.0000
  H   H20       1.0  0.87994  0.67113  0.02511  1.0000
  H   H21       1.0  0.15726  0.26175  0.56218  1.0000
  H   H22       1.0  0.84273  0.23826  0.06218  1.0000
  H   H23       1.0  0.84274  0.73825  0.43782  1.0000
  H   H24       1.0  0.15728  0.76174  0.93782  1.0000
  H   H25       1.0  0.55140  0.70040  0.31923  1.0000
  H   H26       1.0  0.44860  0.79960  0.81923  1.0000
  H   H27       1.0  0.44860  0.29960  0.68077  1.0000
  H   H28       1.0  0.55140  0.20040  0.18077  1.0000
  H   H29       1.0  0.54210  0.51887  0.26772  1.0000
  H   H30       1.0  0.45790  0.98113  0.76772  1.0000
  H   H31       1.0  0.45790  0.48113  0.73228  1.0000
  H   H32       1.0  0.54210  0.01887  0.23228  1.0000
  C   C1        1.0  0.31033  0.60784  0.29080  1.0000
  C   C2        1.0  0.68967  0.89217  0.79080  1.0000
  C   C3        1.0  0.68968  0.39217  0.70920  1.0000
  C   C4        1.0  0.31033  0.10783  0.20920  1.0000
  C   C5        1.0  0.18696  0.48188  0.33867  1.0000
  C   C6        1.0  0.81304  0.01813  0.83867  1.0000
  C   C7        1.0  0.81304  0.51813  0.66133  1.0000
  C   C8        1.0  0.18696  0.98187  0.16133  1.0000
  C   C9        1.0  0.03642  0.43588  0.28430  1.0000
  C   C10       1.0  0.96358  0.06413  0.78429  1.0000
  C   C11       1.0  0.96358  0.56413  0.71570  1.0000
  C   C12       1.0  0.03642  0.93587  0.21571  1.0000
  C   C13       1.0  0.92353  0.32439  0.33331  1.0000
  C   C14       1.0  0.07647  0.17562  0.83331  1.0000
  C   C15       1.0  0.07648  0.67562  0.66669  1.0000
  C   C16       1.0  0.92353  0.82437  0.16669  1.0000
  C   C17       1.0  0.96520  0.25906  0.43467  1.0000
  C   C18       1.0  0.03480  0.24095  0.93467  1.0000
  C   C19       1.0  0.03481  0.74094  0.56533  1.0000
  C   C20       1.0  0.96521  0.75905  0.06533  1.0000
  C   C21       1.0  0.11719  0.31002  0.48365  1.0000
  C   C22       1.0  0.88281  0.18999  0.98365  1.0000
  C   C23       1.0  0.88281  0.68998  0.51635  1.0000
  C   C24       1.0  0.11720  0.81001  0.01635  1.0000
  C   C25       1.0  0.52773  0.11362  0.46898  1.0000
  C   C26       1.0  0.47227  0.38638  0.96898  1.0000
  C   C27       1.0  0.47227  0.88638  0.53102  1.0000
  C   C28       1.0  0.52773  0.61361  0.03102  1.0000
  C   C29       1.0  0.56225  0.95428  0.43235  1.0000
  C   C30       1.0  0.43774  0.54571  0.93235  1.0000
  C   C31       1.0  0.43774  0.04572  0.56765  1.0000
  C   C32       1.0  0.56225  0.45428  0.06765  1.0000
  N   N1        1.0  0.22424  0.41997  0.43697  1.0000
  N   N2        1.0  0.77576  0.08004  0.93697  1.0000
  N   N3        1.0  0.77576  0.58003  0.56303  1.0000
  N   N4        1.0  0.22425  0.91996  0.06303  1.0000
  N   N5        1.0  0.48544  0.59164  0.32161  1.0000
  N   N6        1.0  0.51456  0.90836  0.82161  1.0000
  N   N7        1.0  0.51457  0.40836  0.67839  1.0000
  N   N8        1.0  0.48543  0.09164  0.17839  1.0000
  O   O1        1.0  0.56392  0.24786  0.42919  1.0000
  O   O2        1.0  0.43609  0.25214  0.92919  1.0000
  O   O3        1.0  0.43608  0.75214  0.57081  1.0000
  O   O4        1.0  0.56391  0.74785  0.07081  1.0000
  O   O5        1.0  0.63671  0.90182  0.34964  1.0000
  O   O6        1.0  0.36328  0.59818  0.84964  1.0000
  O   O7        1.0  0.36328  0.09819  0.65036  1.0000
  O   O8        1.0  0.63671  0.40181  0.15036  1.0000
