data_image0
_chemical_formula_structural       Ag4H60C52S12O12
_chemical_formula_sum              "Ag4 H60 C52 S12 O12"
_cell_length_a       8.31534
_cell_length_b       8.82844
_cell_length_c       21.2113
_cell_angle_alpha    90.0001
_cell_angle_beta     90.0001
_cell_angle_gamma    110.876

_space_group_name_H-M_alt    "P 1"
_space_group_IT_number       1

loop_
  _space_group_symop_operation_xyz
  'x, y, z'

loop_
  _atom_site_type_symbol
  _atom_site_label
  _atom_site_symmetry_multiplicity
  _atom_site_fract_x
  _atom_site_fract_y
  _atom_site_fract_z
  _atom_site_occupancy
  Ag  Ag1       1.0  0.81115  0.45454  0.48416  1.0000
  Ag  Ag2       1.0  0.18885  0.04546  0.98416  1.0000
  Ag  Ag3       1.0  0.18885  0.54546  0.51584  1.0000
  Ag  Ag4       1.0  0.81115  0.95454  0.01584  1.0000
  H   H1        1.0  0.00739  0.14270  0.50077  1.0000
  H   H2        1.0  0.99261  0.35730  0.00077  1.0000
  H   H3        1.0  0.99261  0.85730  0.49923  1.0000
  H   H4        1.0  0.00739  0.64270  0.99923  1.0000
  H   H5        1.0  0.89665  0.03858  0.56979  1.0000
  H   H6        1.0  0.10335  0.46143  0.06979  1.0000
  H   H7        1.0  0.10335  0.96142  0.43021  1.0000
  H   H8        1.0  0.89665  0.53858  0.93021  1.0000
  H   H9        1.0  0.59032  0.01105  0.60185  1.0000
  H   H10       1.0  0.40968  0.48895  0.10185  1.0000
  H   H11       1.0  0.40968  0.98895  0.39815  1.0000
  H   H12       1.0  0.59032  0.51105  0.89815  1.0000
  H   H13       1.0  0.48481  0.14062  0.57097  1.0000
  H   H14       1.0  0.51520  0.35938  0.07097  1.0000
  H   H15       1.0  0.51519  0.85938  0.42903  1.0000
  H   H16       1.0  0.48481  0.64062  0.92903  1.0000
  H   H17       1.0  0.67167  0.22625  0.61930  1.0000
  H   H18       1.0  0.32833  0.27375  0.11930  1.0000
  H   H19       1.0  0.32833  0.77375  0.38070  1.0000
  H   H20       1.0  0.67167  0.72625  0.88070  1.0000
  H   H21       1.0  0.27897  0.22326  0.57290  1.0000
  H   H22       1.0  0.72104  0.27674  0.07290  1.0000
  H   H23       1.0  0.72103  0.77674  0.42710  1.0000
  H   H24       1.0  0.27897  0.72326  0.92710  1.0000
  H   H25       1.0  0.31649  0.36025  0.63779  1.0000
  H   H26       1.0  0.68352  0.13976  0.13779  1.0000
  H   H27       1.0  0.68351  0.63975  0.36221  1.0000
  H   H28       1.0  0.31649  0.86025  0.86221  1.0000
  H   H29       1.0  0.16887  0.15506  0.64733  1.0000
  H   H30       1.0  0.83114  0.34495  0.14733  1.0000
  H   H31       1.0  0.83113  0.84495  0.35268  1.0000
  H   H32       1.0  0.16887  0.65506  0.85268  1.0000
  H   H33       1.0  0.98328  0.71835  0.59174  1.0000
  H   H34       1.0  0.01672  0.78164  0.09174  1.0000
  H   H35       1.0  0.01672  0.28164  0.40826  1.0000
  H   H36       1.0  0.98328  0.21836  0.90826  1.0000
  H   H37       1.0  0.28837  0.81773  0.62258  1.0000
  H   H38       1.0  0.71163  0.68227  0.12258  1.0000
  H   H39       1.0  0.71163  0.18226  0.37742  1.0000
  H   H40       1.0  0.28837  0.31774  0.87742  1.0000
  H   H41       1.0  0.38486  0.97803  0.72177  1.0000
  H   H42       1.0  0.61514  0.52197  0.22176  1.0000
  H   H43       1.0  0.61514  0.02197  0.27823  1.0000
  H   H44       1.0  0.38486  0.47803  0.77823  1.0000
  H   H45       1.0  0.16862  0.02523  0.79237  1.0000
  H   H46       1.0  0.83139  0.47478  0.29237  1.0000
  H   H47       1.0  0.83139  0.97477  0.20763  1.0000
  H   H48       1.0  0.16861  0.52523  0.70763  1.0000
  H   H49       1.0  0.87046  0.98228  0.81905  1.0000
  H   H50       1.0  0.12953  0.51772  0.31905  1.0000
  H   H51       1.0  0.12954  0.01772  0.18095  1.0000
  H   H52       1.0  0.87046  0.48228  0.68094  1.0000
  H   H53       1.0  0.56144  0.87473  0.79242  1.0000
  H   H54       1.0  0.43856  0.62526  0.29242  1.0000
  H   H55       1.0  0.43856  0.12526  0.20758  1.0000
  H   H56       1.0  0.56144  0.37473  0.70758  1.0000
  H   H57       1.0  0.46425  0.73011  0.68967  1.0000
  H   H58       1.0  0.53575  0.76988  0.18967  1.0000
  H   H59       1.0  0.53575  0.26989  0.31033  1.0000
  H   H60       1.0  0.46425  0.23011  0.81033  1.0000
  C   C1        1.0  0.92883  0.14953  0.54146  1.0000
  C   C2        1.0  0.07118  0.35048  0.04146  1.0000
  C   C3        1.0  0.07117  0.85048  0.45854  1.0000
  C   C4        1.0  0.92883  0.64953  0.95854  1.0000
  C   C5        1.0  0.60879  0.13299  0.58431  1.0000
  C   C6        1.0  0.39122  0.36702  0.08431  1.0000
  C   C7        1.0  0.39121  0.86702  0.41569  1.0000
  C   C8        1.0  0.60879  0.63298  0.91569  1.0000
  C   C9        1.0  0.22099  0.25643  0.61452  1.0000
  C   C10       1.0  0.77902  0.24357  0.11452  1.0000
  C   C11       1.0  0.77901  0.74357  0.38548  1.0000
  C   C12       1.0  0.22099  0.75643  0.88548  1.0000
  C   C13       1.0  0.71720  0.75681  0.65976  1.0000
  C   C14       1.0  0.28279  0.74318  0.15976  1.0000
  C   C15       1.0  0.28279  0.24318  0.34025  1.0000
  C   C16       1.0  0.71721  0.25682  0.84024  1.0000
  C   C17       1.0  0.89695  0.81362  0.67417  1.0000
  C   C18       1.0  0.10304  0.68637  0.17417  1.0000
  C   C19       1.0  0.10305  0.18637  0.32583  1.0000
  C   C20       1.0  0.89695  0.31363  0.82583  1.0000
  C   C21       1.0  0.02358  0.78750  0.63516  1.0000
  C   C22       1.0  0.97641  0.71250  0.13516  1.0000
  C   C23       1.0  0.97643  0.21250  0.36484  1.0000
  C   C24       1.0  0.02358  0.28750  0.86484  1.0000
  C   C25       1.0  0.19462  0.84278  0.65276  1.0000
  C   C26       1.0  0.80538  0.65723  0.15276  1.0000
  C   C27       1.0  0.80538  0.15721  0.34724  1.0000
  C   C28       1.0  0.19462  0.34278  0.84724  1.0000
  C   C29       1.0  0.24867  0.93091  0.70936  1.0000
  C   C30       1.0  0.75133  0.56909  0.20936  1.0000
  C   C31       1.0  0.75134  0.06909  0.29064  1.0000
  C   C32       1.0  0.24867  0.43091  0.79064  1.0000
  C   C33       1.0  0.12915  0.95771  0.74850  1.0000
  C   C34       1.0  0.87085  0.54230  0.24850  1.0000
  C   C35       1.0  0.87084  0.04229  0.25150  1.0000
  C   C36       1.0  0.12916  0.45771  0.75150  1.0000
  C   C37       1.0  0.95139  0.89830  0.73286  1.0000
  C   C38       1.0  0.04860  0.60169  0.23286  1.0000
  C   C39       1.0  0.04861  0.10170  0.26714  1.0000
  C   C40       1.0  0.95140  0.39830  0.76714  1.0000
  C   C41       1.0  0.82765  0.91964  0.77453  1.0000
  C   C42       1.0  0.17235  0.58036  0.27453  1.0000
  C   C43       1.0  0.17236  0.08036  0.22547  1.0000
  C   C44       1.0  0.82764  0.41963  0.72547  1.0000
  C   C45       1.0  0.65529  0.85936  0.75962  1.0000
  C   C46       1.0  0.34470  0.64063  0.25962  1.0000
  C   C47       1.0  0.34471  0.14063  0.24039  1.0000
  C   C48       1.0  0.65530  0.35936  0.74038  1.0000
  C   C49       1.0  0.60017  0.77758  0.70197  1.0000
  C   C50       1.0  0.39982  0.72242  0.20197  1.0000
  C   C51       1.0  0.39983  0.22242  0.29803  1.0000
  C   C52       1.0  0.60017  0.27758  0.79803  1.0000
  S   S1        1.0  0.73289  0.16478  0.51262  1.0000
  S   S2        1.0  0.26711  0.33523  0.01262  1.0000
  S   S3        1.0  0.26711  0.83522  0.48738  1.0000
  S   S4        1.0  0.73289  0.66478  0.98738  1.0000
  S   S5        1.0  0.04980  0.32309  0.58930  1.0000
  S   S6        1.0  0.95021  0.17691  0.08930  1.0000
  S   S7        1.0  0.95021  0.67691  0.41071  1.0000
  S   S8        1.0  0.04980  0.82309  0.91071  1.0000
  S   S9        1.0  0.63599  0.66006  0.58614  1.0000
  S   S10       1.0  0.36401  0.83994  0.08614  1.0000
  S   S11       1.0  0.36401  0.33994  0.41386  1.0000
  S   S12       1.0  0.63599  0.16006  0.91386  1.0000
  O   O1        1.0  0.68338  0.51375  0.58345  1.0000
  O   O2        1.0  0.31662  0.98625  0.08346  1.0000
  O   O3        1.0  0.31662  0.48625  0.41655  1.0000
  O   O4        1.0  0.68338  0.01375  0.91655  1.0000
  O   O5        1.0  0.72068  0.77875  0.53690  1.0000
  O   O6        1.0  0.27932  0.72125  0.03690  1.0000
  O   O7        1.0  0.27932  0.22125  0.46310  1.0000
  O   O8        1.0  0.72067  0.27875  0.96310  1.0000
  O   O9        1.0  0.44906  0.62213  0.58959  1.0000
  O   O10       1.0  0.55094  0.87788  0.08960  1.0000
  O   O11       1.0  0.55094  0.37788  0.41041  1.0000
  O   O12       1.0  0.44906  0.12213  0.91040  1.0000
