data_image0
_chemical_formula_structural       Cd2H40C56N8Cl12O8
_chemical_formula_sum              "Cd2 H40 C56 N8 Cl12 O8"
_cell_length_a       9.32731
_cell_length_b       13.9812
_cell_length_c       13.9812
_cell_angle_alpha    77.1019
_cell_angle_beta     70.5518
_cell_angle_gamma    70.5515

_space_group_name_H-M_alt    "P 1"
_space_group_IT_number       1

loop_
  _space_group_symop_operation_xyz
  'x, y, z'

loop_
  _atom_site_type_symbol
  _atom_site_label
  _atom_site_symmetry_multiplicity
  _atom_site_fract_x
  _atom_site_fract_y
  _atom_site_fract_z
  _atom_site_occupancy
  Cd  Cd1       1.0  0.50000  0.22808  0.77193  1.0000
  Cd  Cd2       1.0  0.50000  0.72777  0.27223  1.0000
  H   H1        1.0  0.27918  0.45068  0.83958  1.0000
  H   H2        1.0  0.72082  0.16042  0.54932  1.0000
  H   H3        1.0  0.43026  0.95060  0.33985  1.0000
  H   H4        1.0  0.56972  0.66016  0.04940  1.0000
  H   H5        1.0  0.28990  0.62784  0.82619  1.0000
  H   H6        1.0  0.71010  0.17381  0.37216  1.0000
  H   H7        1.0  0.25633  0.12789  0.32621  1.0000
  H   H8        1.0  0.74367  0.67379  0.87211  1.0000
  H   H9        1.0  0.74651  0.54687  0.60276  1.0000
  H   H10       1.0  0.25349  0.39725  0.45313  1.0000
  H   H11       1.0  0.10420  0.04701  0.10237  1.0000
  H   H12       1.0  0.89580  0.89763  0.95299  1.0000
  H   H13       1.0  0.72280  0.36742  0.63427  1.0000
  H   H14       1.0  0.27720  0.36573  0.63258  1.0000
  H   H15       1.0  0.27562  0.86743  0.13405  1.0000
  H   H16       1.0  0.72438  0.86595  0.13257  1.0000
  H   H17       1.0  0.63418  0.72362  0.64268  1.0000
  H   H18       1.0  0.36582  0.35731  0.27639  1.0000
  H   H19       1.0  0.99982  0.22371  0.14270  1.0000
  H   H20       1.0  0.00018  0.85729  0.77629  1.0000
  H   H21       1.0  0.38200  0.73672  0.85362  1.0000
  H   H22       1.0  0.61801  0.14638  0.26328  1.0000
  H   H23       1.0  0.02809  0.23643  0.35384  1.0000
  H   H24       1.0  0.97192  0.64615  0.76357  1.0000
  H   H25       1.0  0.70333  0.85155  0.65930  1.0000
  H   H26       1.0  0.29667  0.34070  0.14846  1.0000
  H   H27       1.0  0.78622  0.35117  0.15944  1.0000
  H   H28       1.0  0.21379  0.84056  0.64883  1.0000
  H   H29       1.0  0.71438  0.02342  0.66676  1.0000
  H   H30       1.0  0.28562  0.33324  0.97659  1.0000
  H   H31       1.0  0.59567  0.52295  0.16708  1.0000
  H   H32       1.0  0.40433  0.83292  0.47704  1.0000
  H   H33       1.0  0.30671  0.07374  0.91027  1.0000
  H   H34       1.0  0.69328  0.08973  0.92626  1.0000
  H   H35       1.0  0.70929  0.57332  0.41083  1.0000
  H   H36       1.0  0.29072  0.58918  0.42668  1.0000
  H   H37       1.0  0.28332  0.89877  0.91754  1.0000
  H   H38       1.0  0.71668  0.08246  0.10123  1.0000
  H   H39       1.0  0.90060  0.39846  0.41800  1.0000
  H   H40       1.0  0.09941  0.58201  0.60153  1.0000
  C   C1        1.0  0.38354  0.47395  0.79106  1.0000
  C   C2        1.0  0.61646  0.20894  0.52605  1.0000
  C   C3        1.0  0.35143  0.97394  0.29109  1.0000
  C   C4        1.0  0.64857  0.70892  0.02605  1.0000
  C   C5        1.0  0.38993  0.57315  0.78239  1.0000
  C   C6        1.0  0.61006  0.21761  0.42686  1.0000
  C   C7        1.0  0.25493  0.07320  0.28223  1.0000
  C   C8        1.0  0.74506  0.71777  0.92680  1.0000
  C   C9        1.0  0.52455  0.60147  0.71670  1.0000
  C   C10       1.0  0.47544  0.28329  0.39854  1.0000
  C   C11       1.0  0.15776  0.10150  0.21648  1.0000
  C   C12       1.0  0.84225  0.78351  0.89850  1.0000
  C   C13       1.0  0.64293  0.52739  0.65802  1.0000
  C   C14       1.0  0.35707  0.34197  0.47262  1.0000
  C   C15       1.0  0.17199  0.02748  0.15773  1.0000
  C   C16       1.0  0.82801  0.84227  0.97252  1.0000
  C   C17       1.0  0.62937  0.42863  0.67375  1.0000
  C   C18       1.0  0.37063  0.32625  0.57137  1.0000
  C   C19       1.0  0.26826  0.92868  0.17362  1.0000
  C   C20       1.0  0.73174  0.82638  0.07131  1.0000
  C   C21       1.0  0.54643  0.70120  0.71105  1.0000
  C   C22       1.0  0.45356  0.28894  0.29881  1.0000
  C   C23       1.0  0.04167  0.20120  0.21105  1.0000
  C   C24       1.0  0.95835  0.78894  0.79880  1.0000
  C   C25       1.0  0.46843  0.76186  0.78619  1.0000
  C   C26       1.0  0.53157  0.21381  0.23815  1.0000
  C   C27       1.0  0.98391  0.26160  0.28643  1.0000
  C   C28       1.0  0.01610  0.71357  0.73840  1.0000
  C   C29       1.0  0.48857  0.86041  0.78691  1.0000
  C   C30       1.0  0.51143  0.21309  0.13960  1.0000
  C   C31       1.0  0.86435  0.36009  0.28725  1.0000
  C   C32       1.0  0.13565  0.71276  0.63990  1.0000
  C   C33       1.0  0.61243  0.89718  0.71662  1.0000
  C   C34       1.0  0.38756  0.28338  0.10283  1.0000
  C   C35       1.0  0.77407  0.39678  0.21689  1.0000
  C   C36       1.0  0.22593  0.78312  0.60321  1.0000
  C   C37       1.0  0.61908  0.99374  0.72023  1.0000
  C   C38       1.0  0.38092  0.27976  0.00627  1.0000
  C   C39       1.0  0.66729  0.49326  0.22055  1.0000
  C   C40       1.0  0.33271  0.77945  0.50674  1.0000
  C   C41       1.0  0.39360  0.02069  0.85758  1.0000
  C   C42       1.0  0.60640  0.14241  0.97932  1.0000
  C   C43       1.0  0.72831  0.52026  0.35803  1.0000
  C   C44       1.0  0.27170  0.64197  0.47974  1.0000
  C   C45       1.0  0.38030  0.92402  0.86022  1.0000
  C   C46       1.0  0.61969  0.13978  0.07599  1.0000
  C   C47       1.0  0.83566  0.42365  0.36066  1.0000
  C   C48       1.0  0.16435  0.63935  0.57634  1.0000
  C   C49       1.0  0.89446  0.11202  0.71778  1.0000
  C   C50       1.0  0.10554  0.28222  0.88798  1.0000
  C   C51       1.0  0.27576  0.61170  0.21806  1.0000
  C   C52       1.0  0.72425  0.78194  0.38830  1.0000
  C   C53       1.0  0.04693  0.10809  0.62159  1.0000
  C   C54       1.0  0.95307  0.37841  0.89191  1.0000
  C   C55       1.0  0.22323  0.60792  0.12185  1.0000
  C   C56       1.0  0.77677  0.87816  0.39208  1.0000
  N   N1        1.0  0.50293  0.40152  0.74032  1.0000
  N   N2        1.0  0.49707  0.25968  0.59848  1.0000
  N   N3        1.0  0.35489  0.90150  0.24042  1.0000
  N   N4        1.0  0.64510  0.75959  0.09849  1.0000
  N   N5        1.0  0.51052  0.05569  0.78796  1.0000
  N   N6        1.0  0.48946  0.21204  0.94432  1.0000
  N   N7        1.0  0.64610  0.55521  0.28833  1.0000
  N   N8        1.0  0.35390  0.71167  0.44477  1.0000
  Cl  Cl1       1.0  0.02605  0.03834  0.53513  1.0000
  Cl  Cl2       1.0  0.97395  0.46487  0.96166  1.0000
  Cl  Cl3       1.0  0.40012  0.53831  0.03532  1.0000
  Cl  Cl4       1.0  0.59987  0.96468  0.46169  1.0000
  Cl  Cl5       1.0  0.05678  0.23253  0.55782  1.0000
  Cl  Cl6       1.0  0.94322  0.44218  0.76747  1.0000
  Cl  Cl7       1.0  0.15277  0.73246  0.05830  1.0000
  Cl  Cl8       1.0  0.84722  0.94171  0.26753  1.0000
  Cl  Cl9       1.0  0.22614  0.04399  0.65452  1.0000
  Cl  Cl10      1.0  0.77385  0.34548  0.95601  1.0000
  Cl  Cl11      1.0  0.07514  0.54386  0.15458  1.0000
  Cl  Cl12      1.0  0.92487  0.84542  0.45613  1.0000
  O   O1        1.0  0.77696  0.18627  0.70446  1.0000
  O   O2        1.0  0.22304  0.29554  0.81373  1.0000
  O   O3        1.0  0.33278  0.68580  0.20465  1.0000
  O   O4        1.0  0.66723  0.79535  0.31419  1.0000
  O   O5        1.0  0.90708  0.04111  0.78868  1.0000
  O   O6        1.0  0.09293  0.21131  0.95889  1.0000
  O   O7        1.0  0.26280  0.54090  0.28904  1.0000
  O   O8        1.0  0.73721  0.71097  0.45910  1.0000
