data_image0
_chemical_formula_structural       Li8H24C24N8O24
_chemical_formula_sum              "Li8 H24 C24 N8 O24"
_cell_length_a       7.32658
_cell_length_b       7.32831
_cell_length_c       15.1983
_cell_angle_alpha    89.9999
_cell_angle_beta     101.283
_cell_angle_gamma    89.9998

_space_group_name_H-M_alt    "P 1"
_space_group_IT_number       1

loop_
  _space_group_symop_operation_xyz
  'x, y, z'

loop_
  _atom_site_type_symbol
  _atom_site_label
  _atom_site_symmetry_multiplicity
  _atom_site_fract_x
  _atom_site_fract_y
  _atom_site_fract_z
  _atom_site_occupancy
  Li  Li1       1.0  0.97051  0.03052  0.73844  1.0000
  Li  Li2       1.0  0.52948  0.53052  0.76157  1.0000
  Li  Li3       1.0  0.02949  0.96947  0.26156  1.0000
  Li  Li4       1.0  0.47051  0.46948  0.23843  1.0000
  Li  Li5       1.0  0.32855  0.81556  0.83646  1.0000
  Li  Li6       1.0  0.17145  0.31556  0.66354  1.0000
  Li  Li7       1.0  0.67144  0.18445  0.16354  1.0000
  Li  Li8       1.0  0.82855  0.68444  0.33647  1.0000
  H   H1        1.0  0.69249  0.29353  0.60449  1.0000
  H   H2        1.0  0.80750  0.79355  0.89551  1.0000
  H   H3        1.0  0.30751  0.70646  0.39551  1.0000
  H   H4        1.0  0.19249  0.20646  0.10448  1.0000
  H   H5        1.0  0.68064  0.93284  0.51612  1.0000
  H   H6        1.0  0.81937  0.43285  0.98388  1.0000
  H   H7        1.0  0.31936  0.06715  0.48388  1.0000
  H   H8        1.0  0.18063  0.56715  0.01612  1.0000
  H   H9        1.0  0.10264  0.71780  0.70573  1.0000
  H   H10       1.0  0.39736  0.21780  0.79427  1.0000
  H   H11       1.0  0.89736  0.28220  0.29427  1.0000
  H   H12       1.0  0.60264  0.78221  0.20573  1.0000
  H   H13       1.0  0.10100  0.97261  0.59542  1.0000
  H   H14       1.0  0.39901  0.47262  0.90458  1.0000
  H   H15       1.0  0.89900  0.02738  0.40458  1.0000
  H   H16       1.0  0.60099  0.52739  0.09542  1.0000
  H   H17       1.0  0.00455  0.69038  0.78805  1.0000
  H   H18       1.0  0.49545  0.19038  0.71195  1.0000
  H   H19       1.0  0.99545  0.30962  0.21195  1.0000
  H   H20       1.0  0.50456  0.80962  0.28805  1.0000
  H   H21       1.0  0.94256  0.11843  0.56843  1.0000
  H   H22       1.0  0.55744  0.61843  0.93157  1.0000
  H   H23       1.0  0.05744  0.88157  0.43157  1.0000
  H   H24       1.0  0.44256  0.38157  0.06843  1.0000
  C   C1        1.0  0.81029  0.35737  0.44330  1.0000
  C   C2        1.0  0.68971  0.85738  0.05671  1.0000
  C   C3        1.0  0.18972  0.64264  0.55670  1.0000
  C   C4        1.0  0.31028  0.14263  0.94329  1.0000
  C   C5        1.0  0.63674  0.73565  0.61656  1.0000
  C   C6        1.0  0.86326  0.23566  0.88344  1.0000
  C   C7        1.0  0.36326  0.26434  0.38344  1.0000
  C   C8        1.0  0.13674  0.76434  0.11656  1.0000
  C   C9        1.0  0.57314  0.87170  0.67954  1.0000
  C   C10       1.0  0.92686  0.37170  0.82046  1.0000
  C   C11       1.0  0.42686  0.12830  0.32046  1.0000
  C   C12       1.0  0.07313  0.62830  0.17954  1.0000
  C   C13       1.0  0.69425  0.43709  0.58579  1.0000
  C   C14       1.0  0.80575  0.93711  0.91421  1.0000
  C   C15       1.0  0.30576  0.56290  0.41421  1.0000
  C   C16       1.0  0.19424  0.06289  0.08579  1.0000
  C   C17       1.0  0.74748  0.49219  0.50631  1.0000
  C   C18       1.0  0.75252  0.99220  0.99369  1.0000
  C   C19       1.0  0.25253  0.50781  0.49369  1.0000
  C   C20       1.0  0.24749  0.00780  0.00631  1.0000
  C   C21       1.0  0.68689  0.78969  0.53599  1.0000
  C   C22       1.0  0.81312  0.28971  0.96402  1.0000
  C   C23       1.0  0.31311  0.21030  0.46402  1.0000
  C   C24       1.0  0.18688  0.71029  0.03598  1.0000
  N   N1        1.0  0.63769  0.55906  0.64042  1.0000
  N   N2        1.0  0.86230  0.05907  0.85958  1.0000
  N   N3        1.0  0.36230  0.44094  0.35958  1.0000
  N   N4        1.0  0.13770  0.94094  0.14042  1.0000
  N   N5        1.0  0.74102  0.66814  0.48078  1.0000
  N   N6        1.0  0.75898  0.16815  0.01922  1.0000
  N   N7        1.0  0.25898  0.33185  0.51922  1.0000
  N   N8        1.0  0.24102  0.83185  0.98077  1.0000
  O   O1        1.0  0.07838  0.78329  0.76035  1.0000
  O   O2        1.0  0.42162  0.28329  0.73965  1.0000
  O   O3        1.0  0.92162  0.21671  0.23965  1.0000
  O   O4        1.0  0.57839  0.71671  0.26035  1.0000
  O   O5        1.0  0.49196  0.80603  0.73882  1.0000
  O   O6        1.0  0.00804  0.30604  0.76118  1.0000
  O   O7        1.0  0.50804  0.19397  0.26118  1.0000
  O   O8        1.0  0.99196  0.69396  0.23883  1.0000
  O   O9        1.0  0.03566  0.07439  0.62062  1.0000
  O   O10       1.0  0.46434  0.57439  0.87939  1.0000
  O   O11       1.0  0.96434  0.92561  0.37939  1.0000
  O   O12       1.0  0.53566  0.42561  0.12061  1.0000
  O   O13       1.0  0.85299  0.42221  0.37274  1.0000
  O   O14       1.0  0.64701  0.92222  0.12726  1.0000
  O   O15       1.0  0.14701  0.57778  0.62725  1.0000
  O   O16       1.0  0.35298  0.07778  0.87274  1.0000
  O   O17       1.0  0.81513  0.18958  0.46513  1.0000
  O   O18       1.0  0.68487  0.68959  0.03488  1.0000
  O   O19       1.0  0.18487  0.81042  0.53487  1.0000
  O   O20       1.0  0.31513  0.31042  0.96512  1.0000
  O   O21       1.0  0.61005  0.03791  0.66730  1.0000
  O   O22       1.0  0.88995  0.53791  0.83270  1.0000
  O   O23       1.0  0.38995  0.96210  0.33270  1.0000
  O   O24       1.0  0.11005  0.46210  0.16730  1.0000
