data_image0
_chemical_formula_structural       Cu2H34C22S4I2O4
_chemical_formula_sum              "Cu2 H34 C22 S4 I2 O4"
_cell_length_a       8.1679
_cell_length_b       9.39037
_cell_length_c       10.1585
_cell_angle_alpha    83.2995
_cell_angle_beta     66.308
_cell_angle_gamma    73.1055

_space_group_name_H-M_alt    "P 1"
_space_group_IT_number       1

loop_
  _space_group_symop_operation_xyz
  'x, y, z'

loop_
  _atom_site_type_symbol
  _atom_site_label
  _atom_site_symmetry_multiplicity
  _atom_site_fract_x
  _atom_site_fract_y
  _atom_site_fract_z
  _atom_site_occupancy
  Cu  Cu1       1.0  0.82702  0.55409  0.99991  1.0000
  Cu  Cu2       1.0  0.17299  0.44591  0.00009  1.0000
  H   H1        1.0  0.75494  0.61719  0.31775  1.0000
  H   H2        1.0  0.92734  0.38257  0.31801  1.0000
  H   H3        1.0  0.24505  0.38280  0.68227  1.0000
  H   H4        1.0  0.07266  0.61743  0.68198  1.0000
  H   H5        1.0  0.65301  0.79562  0.26766  1.0000
  H   H6        1.0  0.07931  0.20420  0.26779  1.0000
  H   H7        1.0  0.34699  0.20437  0.73234  1.0000
  H   H8        1.0  0.92069  0.79580  0.73220  1.0000
  H   H9        1.0  0.32969  0.68563  0.11281  1.0000
  H   H10       1.0  0.55734  0.31452  0.11286  1.0000
  H   H11       1.0  0.67031  0.31437  0.88720  1.0000
  H   H12       1.0  0.44266  0.68548  0.88714  1.0000
  H   H13       1.0  0.27540  0.78584  0.26848  1.0000
  H   H14       1.0  0.45637  0.21419  0.26850  1.0000
  H   H15       1.0  0.72461  0.21416  0.73152  1.0000
  H   H16       1.0  0.54363  0.78582  0.73149  1.0000
  H   H17       1.0  0.43574  0.62160  0.52387  1.0000
  H   H18       1.0  0.04064  0.37794  0.52412  1.0000
  H   H19       1.0  0.56425  0.37840  0.47613  1.0000
  H   H20       1.0  0.95937  0.62206  0.47588  1.0000
  H   H21       1.0  0.56306  0.74221  0.53457  1.0000
  H   H22       1.0  0.90234  0.25763  0.53472  1.0000
  H   H23       1.0  0.43693  0.25779  0.46544  1.0000
  H   H24       1.0  0.09766  0.74237  0.46527  1.0000
  H   H25       1.0  0.36756  0.99993  0.26526  1.0000
  H   H26       1.0  0.63245  0.00006  0.73473  1.0000
  H   H27       1.0  0.38929  0.96850  0.61227  1.0000
  H   H28       1.0  0.99818  0.03099  0.61221  1.0000
  H   H29       1.0  0.61070  0.03150  0.38774  1.0000
  H   H30       1.0  0.00181  0.96901  0.38779  1.0000
  H   H31       1.0  0.22131  0.86757  0.71014  1.0000
  H   H32       1.0  0.06831  0.13168  0.71030  1.0000
  H   H33       1.0  0.77868  0.13243  0.28987  1.0000
  H   H34       1.0  0.93168  0.86833  0.28970  1.0000
  C   C1        1.0  0.62227  0.69204  0.32015  1.0000
  C   C2        1.0  0.05765  0.30774  0.32034  1.0000
  C   C3        1.0  0.37773  0.30796  0.67985  1.0000
  C   C4        1.0  0.94235  0.69226  0.67965  1.0000
  C   C5        1.0  0.38517  0.74564  0.16452  1.0000
  C   C6        1.0  0.45038  0.25435  0.16459  1.0000
  C   C7        1.0  0.61484  0.25436  0.83548  1.0000
  C   C8        1.0  0.54963  0.74565  0.83541  1.0000
  C   C9        1.0  0.48626  0.71997  0.47495  1.0000
  C   C10       1.0  0.03880  0.27970  0.47513  1.0000
  C   C11       1.0  0.51373  0.28002  0.52506  1.0000
  C   C12       1.0  0.96120  0.72030  0.52487  1.0000
  C   C13       1.0  0.44799  0.87307  0.07586  1.0000
  C   C14       1.0  0.47618  0.12692  0.07589  1.0000
  C   C15       1.0  0.55200  0.12691  0.92415  1.0000
  C   C16       1.0  0.52383  0.87306  0.92409  1.0000
  C   C17       1.0  0.42619  0.99999  0.14780  1.0000
  C   C18       1.0  0.57382  0.00002  0.85219  1.0000
  C   C19       1.0  0.27195  0.93294  0.61138  1.0000
  C   C20       1.0  0.11640  0.06648  0.61144  1.0000
  C   C21       1.0  0.72804  0.06706  0.38862  1.0000
  C   C22       1.0  0.88359  0.93353  0.38857  1.0000
  S   S1        1.0  0.56402  0.59881  0.20485  1.0000
  S   S2        1.0  0.23101  0.40107  0.20509  1.0000
  S   S3        1.0  0.43598  0.40120  0.79515  1.0000
  S   S4        1.0  0.76899  0.59894  0.79490  1.0000
  I   I1        1.0  0.97869  0.26224  0.99994  1.0000
  I   I2        1.0  0.02132  0.73776  0.00005  1.0000
  O   O1        1.0  0.33337  0.84633  0.48486  1.0000
  O   O2        1.0  0.18159  0.15317  0.48503  1.0000
  O   O3        1.0  0.66662  0.15367  0.51515  1.0000
  O   O4        1.0  0.81841  0.84683  0.51497  1.0000
