data_image0
_chemical_formula_structural       Ag4H32C24N8Cl4O16
_chemical_formula_sum              "Ag4 H32 C24 N8 Cl4 O16"
_cell_length_a       7.36481
_cell_length_b       11.1453
_cell_length_c       11.4428
_cell_angle_alpha    91.6652
_cell_angle_beta     105.651
_cell_angle_gamma    89.9563

_space_group_name_H-M_alt    "P 1"
_space_group_IT_number       1

loop_
  _space_group_symop_operation_xyz
  'x, y, z'

loop_
  _atom_site_type_symbol
  _atom_site_label
  _atom_site_symmetry_multiplicity
  _atom_site_fract_x
  _atom_site_fract_y
  _atom_site_fract_z
  _atom_site_occupancy
  Ag  Ag1       1.0  0.61511  0.08370  0.36630  1.0000
  Ag  Ag2       1.0  0.38490  0.91630  0.63370  1.0000
  Ag  Ag3       1.0  0.49669  0.57973  0.22189  1.0000
  Ag  Ag4       1.0  0.50331  0.42027  0.77811  1.0000
  H   H1        1.0  0.52812  0.83487  0.36128  1.0000
  H   H2        1.0  0.47188  0.16512  0.63872  1.0000
  H   H3        1.0  0.73455  0.83743  0.31296  1.0000
  H   H4        1.0  0.26545  0.16257  0.68704  1.0000
  H   H5        1.0  0.80947  0.64178  0.38891  1.0000
  H   H6        1.0  0.19053  0.35822  0.61109  1.0000
  H   H7        1.0  0.62773  0.63949  0.44783  1.0000
  H   H8        1.0  0.37227  0.36051  0.55217  1.0000
  H   H9        1.0  0.89590  0.69706  0.59188  1.0000
  H   H10       1.0  0.10409  0.30293  0.40812  1.0000
  H   H11       1.0  0.05977  0.80327  0.78757  1.0000
  H   H12       1.0  0.94023  0.19672  0.21242  1.0000
  H   H13       1.0  0.02993  0.02584  0.80542  1.0000
  H   H14       1.0  0.97008  0.97415  0.19457  1.0000
  H   H15       1.0  0.84034  0.13537  0.62452  1.0000
  H   H16       1.0  0.15967  0.86463  0.37548  1.0000
  H   H17       1.0  0.56624  0.34331  0.23501  1.0000
  H   H18       1.0  0.43376  0.65670  0.76500  1.0000
  H   H19       1.0  0.35901  0.32469  0.27995  1.0000
  H   H20       1.0  0.64098  0.67532  0.72004  1.0000
  H   H21       1.0  0.32700  0.12356  0.18056  1.0000
  H   H22       1.0  0.67300  0.87644  0.81945  1.0000
  H   H23       1.0  0.52096  0.14698  0.14060  1.0000
  H   H24       1.0  0.47903  0.85303  0.85940  1.0000
  H   H25       1.0  0.18840  0.18203  0.00530  1.0000
  H   H26       1.0  0.81159  0.81797  0.99470  1.0000
  H   H27       1.0  0.00853  0.27811  0.81577  1.0000
  H   H28       1.0  0.99146  0.72190  0.18424  1.0000
  H   H29       1.0  0.04448  0.49883  0.79412  1.0000
  H   H30       1.0  0.95553  0.50117  0.20588  1.0000
  H   H31       1.0  0.25017  0.61783  0.97043  1.0000
  H   H32       1.0  0.74984  0.38218  0.02957  1.0000
  C   C1        1.0  0.78000  0.86004  0.50498  1.0000
  C   C2        1.0  0.21999  0.13995  0.49502  1.0000
  C   C3        1.0  0.67474  0.80368  0.38411  1.0000
  C   C4        1.0  0.32526  0.19632  0.61589  1.0000
  C   C5        1.0  0.88470  0.79393  0.60177  1.0000
  C   C6        1.0  0.11530  0.20606  0.39823  1.0000
  C   C7        1.0  0.97720  0.85296  0.71068  1.0000
  C   C8        1.0  0.02280  0.14702  0.28932  1.0000
  C   C9        1.0  0.96218  0.97738  0.72101  1.0000
  C   C10       1.0  0.03782  0.02261  0.27899  1.0000
  C   C11       1.0  0.85596  0.03825  0.62135  1.0000
  C   C12       1.0  0.14404  0.96174  0.37865  1.0000
  C   C13       1.0  0.31405  0.34953  0.08926  1.0000
  C   C14       1.0  0.68595  0.65047  0.91074  1.0000
  C   C15       1.0  0.42670  0.29954  0.20822  1.0000
  C   C16       1.0  0.57329  0.70046  0.79179  1.0000
  C   C17       1.0  0.19901  0.27855  0.99593  1.0000
  C   C18       1.0  0.80099  0.72146  0.00407  1.0000
  C   C19       1.0  0.10023  0.33171  0.88895  1.0000
  C   C20       1.0  0.89977  0.66830  0.11105  1.0000
  C   C21       1.0  0.11856  0.45492  0.87710  1.0000
  C   C22       1.0  0.88145  0.54509  0.12290  1.0000
  C   C23       1.0  0.23262  0.52107  0.97416  1.0000
  C   C24       1.0  0.76738  0.47893  0.02584  1.0000
  N   N1        1.0  0.76742  0.98113  0.51551  1.0000
  N   N2        1.0  0.23258  0.01886  0.48449  1.0000
  N   N3        1.0  0.67448  0.67213  0.37814  1.0000
  N   N4        1.0  0.32552  0.32787  0.62185  1.0000
  N   N5        1.0  0.32861  0.46962  0.07785  1.0000
  N   N6        1.0  0.67140  0.53038  0.92215  1.0000
  N   N7        1.0  0.45335  0.16876  0.20618  1.0000
  N   N8        1.0  0.54665  0.83125  0.79382  1.0000
  Cl  Cl1       1.0  0.76946  0.38694  0.52498  1.0000
  Cl  Cl2       1.0  0.23055  0.61306  0.47502  1.0000
  Cl  Cl3       1.0  0.33783  0.87476  0.07340  1.0000
  Cl  Cl4       1.0  0.66217  0.12524  0.92660  1.0000
  O   O1        1.0  0.61048  0.30195  0.49207  1.0000
  O   O2        1.0  0.38953  0.69804  0.50794  1.0000
  O   O3        1.0  0.92909  0.32790  0.60791  1.0000
  O   O4        1.0  0.07091  0.67210  0.39210  1.0000
  O   O5        1.0  0.71763  0.49310  0.58630  1.0000
  O   O6        1.0  0.28236  0.50690  0.41370  1.0000
  O   O7        1.0  0.82028  0.42074  0.41580  1.0000
  O   O8        1.0  0.17974  0.57926  0.58421  1.0000
  O   O9        1.0  0.29529  0.79602  0.16295  1.0000
  O   O10       1.0  0.70471  0.20398  0.83705  1.0000
  O   O11       1.0  0.31393  0.80575  0.95838  1.0000
  O   O12       1.0  0.68606  0.19426  0.04162  1.0000
  O   O13       1.0  0.53172  0.91814  0.11594  1.0000
  O   O14       1.0  0.46828  0.08187  0.88406  1.0000
  O   O15       1.0  0.20650  0.97497  0.05303  1.0000
  O   O16       1.0  0.79350  0.02504  0.94697  1.0000
