data_image0
_chemical_formula_structural       Ag2H22C24N12O8
_chemical_formula_sum              "Ag2 H22 C24 N12 O8"
_cell_length_a       4.95502
_cell_length_b       11.2213
_cell_length_c       13.0764
_cell_angle_alpha    90
_cell_angle_beta     89.9973
_cell_angle_gamma    102.267

_space_group_name_H-M_alt    "P 1"
_space_group_IT_number       1

loop_
  _space_group_symop_operation_xyz
  'x, y, z'

loop_
  _atom_site_type_symbol
  _atom_site_label
  _atom_site_symmetry_multiplicity
  _atom_site_fract_x
  _atom_site_fract_y
  _atom_site_fract_z
  _atom_site_occupancy
  Ag  Ag1       1.0  0.32442  0.50632  0.25496  1.0000
  Ag  Ag2       1.0  0.67557  0.49368  0.75497  1.0000
  H   H1        1.0  0.89854  0.62687  0.13546  1.0000
  H   H2        1.0  0.10150  0.37315  0.63546  1.0000
  H   H3        1.0  0.65800  0.61654  0.96499  1.0000
  H   H4        1.0  0.34201  0.38346  0.46499  1.0000
  H   H5        1.0  0.03661  0.33911  0.87270  1.0000
  H   H6        1.0  0.96338  0.66087  0.37270  1.0000
  H   H7        1.0  0.22822  0.12385  0.02471  1.0000
  H   H8        1.0  0.77168  0.87615  0.52471  1.0000
  H   H9        1.0  0.55842  0.20730  0.98649  1.0000
  H   H10       1.0  0.44153  0.79265  0.48649  1.0000
  H   H11       1.0  0.26490  0.21840  0.91459  1.0000
  H   H12       1.0  0.73512  0.78160  0.41459  1.0000
  H   H13       1.0  0.83346  0.22398  0.47501  1.0000
  H   H14       1.0  0.16651  0.77604  0.97503  1.0000
  H   H15       1.0  0.15983  0.08544  0.51648  1.0000
  H   H16       1.0  0.84013  0.91457  0.01649  1.0000
  H   H17       1.0  0.28486  0.95532  0.37240  1.0000
  H   H18       1.0  0.71512  0.04469  0.87240  1.0000
  H   H19       1.0  0.10024  0.97344  0.19996  1.0000
  H   H20       1.0  0.89978  0.02656  0.69996  1.0000
  H   H21       1.0  0.61000  0.18495  0.14781  1.0000
  H   H22       1.0  0.38999  0.81503  0.64783  1.0000
  C   C1        1.0  0.92824  0.56051  0.07804  1.0000
  C   C2        1.0  0.07179  0.43949  0.57804  1.0000
  C   C3        1.0  0.79755  0.55664  0.98330  1.0000
  C   C4        1.0  0.20247  0.44336  0.48331  1.0000
  C   C5        1.0  0.00719  0.40119  0.93362  1.0000
  C   C6        1.0  0.99282  0.59880  0.43362  1.0000
  C   C7        1.0  0.13011  0.40133  0.03027  1.0000
  C   C8        1.0  0.86990  0.59867  0.53028  1.0000
  C   C9        1.0  0.30203  0.31432  0.06017  1.0000
  C   C10       1.0  0.69798  0.68568  0.56018  1.0000
  C   C11       1.0  0.33901  0.21127  0.99255  1.0000
  C   C12       1.0  0.66097  0.78872  0.49256  1.0000
  C   C13       1.0  0.66070  0.27062  0.28652  1.0000
  C   C14       1.0  0.33932  0.72938  0.78654  1.0000
  C   C15       1.0  0.82683  0.17935  0.31483  1.0000
  C   C16       1.0  0.17318  0.82065  0.81484  1.0000
  C   C17       1.0  0.90703  0.17011  0.41636  1.0000
  C   C18       1.0  0.09295  0.82990  0.91637  1.0000
  C   C19       1.0  0.07952  0.09034  0.43916  1.0000
  C   C20       1.0  0.92045  0.90967  0.93917  1.0000
  C   C21       1.0  0.15198  0.01983  0.36012  1.0000
  C   C22       1.0  0.84800  0.98017  0.86012  1.0000
  C   C23       1.0  0.04927  0.03067  0.26145  1.0000
  C   C24       1.0  0.95076  0.96932  0.76145  1.0000
  N   N1        1.0  0.42386  0.78563  0.19293  1.0000
  N   N2        1.0  0.57615  0.21438  0.69293  1.0000
  N   N3        1.0  0.08827  0.48307  0.10155  1.0000
  N   N4        1.0  0.91177  0.51694  0.60156  1.0000
  N   N5        1.0  0.83905  0.47740  0.91128  1.0000
  N   N6        1.0  0.16095  0.52259  0.41128  1.0000
  N   N7        1.0  0.41187  0.33278  0.15075  1.0000
  N   N8        1.0  0.58816  0.66722  0.65077  1.0000
  N   N9        1.0  0.56366  0.25717  0.18744  1.0000
  N   N10       1.0  0.43635  0.74282  0.68746  1.0000
  N   N11       1.0  0.89284  0.11051  0.23810  1.0000
  N   N12       1.0  0.10718  0.88950  0.73811  1.0000
  O   O1        1.0  0.56100  0.70183  0.17811  1.0000
  O   O2        1.0  0.43903  0.29818  0.67811  1.0000
  O   O3        1.0  0.45910  0.87585  0.13353  1.0000
  O   O4        1.0  0.54091  0.12416  0.63353  1.0000
  O   O5        1.0  0.61452  0.35000  0.34563  1.0000
  O   O6        1.0  0.38551  0.65001  0.84566  1.0000
  O   O7        1.0  0.25465  0.77528  0.26659  1.0000
  O   O8        1.0  0.74535  0.22473  0.76659  1.0000
