data_image0
_chemical_formula_structural       Zn2H20C16O8
_chemical_formula_sum              "Zn2 H20 C16 O8"
_cell_length_a       4.79025
_cell_length_b       9.39375
_cell_length_c       10.9909
_cell_angle_alpha    102.348
_cell_angle_beta     102.346
_cell_angle_gamma    90.1459

_space_group_name_H-M_alt    "P 1"
_space_group_IT_number       1

loop_
  _space_group_symop_operation_xyz
  'x, y, z'

loop_
  _atom_site_type_symbol
  _atom_site_label
  _atom_site_symmetry_multiplicity
  _atom_site_fract_x
  _atom_site_fract_y
  _atom_site_fract_z
  _atom_site_occupancy
  Zn  Zn1       1.0  0.91002  0.54996  0.75155  1.0000
  Zn  Zn2       1.0  0.84220  0.04980  0.75185  1.0000
  H   H1        1.0  0.23228  0.83664  0.90933  1.0000
  H   H2        1.0  0.67568  0.33711  0.90856  1.0000
  H   H3        1.0  0.27016  0.74109  0.03172  1.0000
  H   H4        1.0  0.75972  0.24216  0.03127  1.0000
  H   H5        1.0  0.50705  0.90459  0.23180  1.0000
  H   H6        1.0  0.72068  0.40614  0.23152  1.0000
  H   H7        1.0  0.80697  0.03256  0.23525  1.0000
  H   H8        1.0  0.42388  0.53305  0.23480  1.0000
  H   H9        1.0  0.54329  0.88531  0.48290  1.0000
  H   H10       1.0  0.94251  0.38471  0.48192  1.0000
  H   H11       1.0  0.33485  0.89074  0.59756  1.0000
  H   H12       1.0  0.26416  0.39211  0.59676  1.0000
  H   H13       1.0  0.92190  0.65541  0.25928  1.0000
  H   H14       1.0  0.33650  0.15418  0.25731  1.0000
  H   H15       1.0  0.14011  0.82764  0.29022  1.0000
  H   H16       1.0  0.13751  0.32236  0.28631  1.0000
  H   H17       1.0  0.76131  0.94206  0.00498  1.0000
  H   H18       1.0  0.24178  0.44156  0.00482  1.0000
  H   H19       1.0  0.16189  0.61397  0.46989  1.0000
  H   H20       1.0  0.32221  0.11791  0.47180  1.0000
  C   C1        1.0  0.50307  0.66213  0.88766  1.0000
  C   C2        1.0  0.38398  0.16218  0.88790  1.0000
  C   C3        1.0  0.67374  0.75008  0.61485  1.0000
  C   C4        1.0  0.94364  0.25033  0.61485  1.0000
  C   C5        1.0  0.61675  0.89861  0.05442  1.0000
  C   C6        1.0  0.43549  0.39884  0.05418  1.0000
  C   C7        1.0  0.21936  0.71037  0.43804  1.0000
  C   C8        1.0  0.22397  0.21116  0.43797  1.0000
  C   C9        1.0  0.39224  0.78668  0.97352  1.0000
  C   C10       1.0  0.57976  0.28719  0.97329  1.0000
  C   C11       1.0  0.64503  0.94827  0.17981  1.0000
  C   C12       1.0  0.53115  0.44902  0.17947  1.0000
  C   C13       1.0  0.43995  0.81564  0.53114  1.0000
  C   C14       1.0  0.09417  0.31608  0.53065  1.0000
  C   C15       1.0  0.08862  0.73152  0.32368  1.0000
  C   C16       1.0  0.23203  0.22935  0.32158  1.0000
  O   O1        1.0  0.33094  0.57250  0.79931  1.0000
  O   O2        1.0  0.46872  0.07211  0.79987  1.0000
  O   O3        1.0  0.77316  0.65096  0.90322  1.0000
  O   O4        1.0  0.12898  0.15108  0.90340  1.0000
  O   O5        1.0  0.68271  0.61182  0.59879  1.0000
  O   O6        1.0  0.91879  0.11204  0.59902  1.0000
  O   O7        1.0  0.85550  0.83459  0.70370  1.0000
  O   O8        1.0  0.84923  0.33461  0.70362  1.0000
