data_image0
_chemical_formula_structural       Cd2H40C56N4O8
_chemical_formula_sum              "Cd2 H40 C56 N4 O8"
_cell_length_a       8.45505
_cell_length_b       12.4848
_cell_length_c       12.236
_cell_angle_alpha    95.2062
_cell_angle_beta     90.0407
_cell_angle_gamma    109.801

_space_group_name_H-M_alt    "P 1"
_space_group_IT_number       1

loop_
  _space_group_symop_operation_xyz
  'x, y, z'

loop_
  _atom_site_type_symbol
  _atom_site_label
  _atom_site_symmetry_multiplicity
  _atom_site_fract_x
  _atom_site_fract_y
  _atom_site_fract_z
  _atom_site_occupancy
  Cd  Cd1       1.0  0.63719  0.99982  0.49984  1.0000
  Cd  Cd2       1.0  0.25620  0.00012  0.99981  1.0000
  H   H1        1.0  0.86219  0.32220  0.33914  1.0000
  H   H2        1.0  0.53938  0.67742  0.66088  1.0000
  H   H3        1.0  0.92668  0.63249  0.13576  1.0000
  H   H4        1.0  0.29381  0.36771  0.86479  1.0000
  H   H5        1.0  0.83383  0.79101  0.21935  1.0000
  H   H6        1.0  0.04249  0.20885  0.78130  1.0000
  H   H7        1.0  0.02002  0.33948  0.04326  1.0000
  H   H8        1.0  0.68078  0.66054  0.95680  1.0000
  H   H9        1.0  0.78910  0.45778  0.42775  1.0000
  H   H10       1.0  0.33013  0.54186  0.57245  1.0000
  H   H11       1.0  0.07532  0.02377  0.23495  1.0000
  H   H12       1.0  0.05118  0.97606  0.76473  1.0000
  H   H13       1.0  0.94572  0.15713  0.33423  1.0000
  H   H14       1.0  0.78811  0.84242  0.66554  1.0000
  H   H15       1.0  0.72507  0.34609  0.00197  1.0000
  H   H16       1.0  0.37912  0.65426  0.99785  1.0000
  H   H17       1.0  0.69106  0.39174  0.60449  1.0000
  H   H18       1.0  0.29933  0.60869  0.39530  1.0000
  H   H19       1.0  0.48419  0.22571  0.68418  1.0000
  H   H20       1.0  0.25856  0.77466  0.31540  1.0000
  H   H21       1.0  0.92765  0.51567  0.92579  1.0000
  H   H22       1.0  0.41206  0.48472  0.07420  1.0000
  H   H23       1.0  0.69497  0.61575  0.50882  1.0000
  H   H24       1.0  0.07823  0.38351  0.49142  1.0000
  H   H25       1.0  0.97762  0.46587  0.14269  1.0000
  H   H26       1.0  0.51127  0.53411  0.85762  1.0000
  H   H27       1.0  0.14693  0.20133  0.95903  1.0000
  H   H28       1.0  0.94602  0.79899  0.04097  1.0000
  H   H29       1.0  0.24277  0.88011  0.47219  1.0000
  H   H30       1.0  0.36194  0.11968  0.52755  1.0000
  H   H31       1.0  0.03796  0.71504  0.55065  1.0000
  H   H32       1.0  0.32257  0.28502  0.44923  1.0000
  H   H33       1.0  0.36268  0.80189  0.84336  1.0000
  H   H34       1.0  0.56045  0.19854  0.15670  1.0000
  H   H35       1.0  0.55569  0.96351  0.75068  1.0000
  H   H36       1.0  0.59169  0.03673  0.24927  1.0000
  H   H37       1.0  0.11055  0.64254  0.84306  1.0000
  H   H38       1.0  0.46765  0.35776  0.15703  1.0000
  H   H39       1.0  0.91029  0.56486  0.62246  1.0000
  H   H40       1.0  0.34543  0.43554  0.37752  1.0000
  C   C1        1.0  0.91344  0.34526  0.25919  1.0000
  C   C2        1.0  0.56772  0.65452  0.74090  1.0000
  C   C3        1.0  0.87426  0.62853  0.21740  1.0000
  C   C4        1.0  0.24527  0.37142  0.78306  1.0000
  C   C5        1.0  0.97684  0.26294  0.19938  1.0000
  C   C6        1.0  0.71374  0.73685  0.80060  1.0000
  C   C7        1.0  0.86355  0.53374  0.27514  1.0000
  C   C8        1.0  0.32914  0.46608  0.72518  1.0000
  C   C9        1.0  0.82332  0.71691  0.26320  1.0000
  C   C10       1.0  0.10605  0.28285  0.73731  1.0000
  C   C11       1.0  0.70688  0.80864  0.41920  1.0000
  C   C12       1.0  0.89815  0.19049  0.58110  1.0000
  C   C13       1.0  0.75885  0.71265  0.36864  1.0000
  C   C14       1.0  0.04578  0.28677  0.63173  1.0000
  C   C15       1.0  0.03107  0.27248  0.09062  1.0000
  C   C16       1.0  0.75878  0.72746  0.90938  1.0000
  C   C17       1.0  0.79902  0.53045  0.38156  1.0000
  C   C18       1.0  0.26761  0.46923  0.61873  1.0000
  C   C19       1.0  0.46901  0.17515  0.89350  1.0000
  C   C20       1.0  0.29378  0.82509  0.10610  1.0000
  C   C21       1.0  0.59293  0.27563  0.84720  1.0000
  C   C22       1.0  0.31718  0.72459  0.15246  1.0000
  C   C23       1.0  0.06107  0.09564  0.19654  1.0000
  C   C24       1.0  0.96522  0.90423  0.80324  1.0000
  C   C25       1.0  0.98911  0.16949  0.25088  1.0000
  C   C26       1.0  0.81937  0.83018  0.74893  1.0000
  C   C27       1.0  0.82483  0.46575  0.75900  1.0000
  C   C28       1.0  0.35884  0.53453  0.24088  1.0000
  C   C29       1.0  0.71878  0.35771  0.91500  1.0000
  C   C30       1.0  0.36118  0.64262  0.08481  1.0000
  C   C31       1.0  0.69827  0.38251  0.69200  1.0000
  C   C32       1.0  0.31571  0.61783  0.30779  1.0000
  C   C33       1.0  0.58342  0.28932  0.73540  1.0000
  C   C34       1.0  0.29424  0.71106  0.26429  1.0000
  C   C35       1.0  0.83214  0.45183  0.87188  1.0000
  C   C36       1.0  0.38022  0.54847  0.12803  1.0000
  C   C37       1.0  0.74643  0.61820  0.42698  1.0000
  C   C38       1.0  0.12740  0.38125  0.57331  1.0000
  C   C39       1.0  0.92076  0.44554  0.22182  1.0000
  C   C40       1.0  0.47466  0.55435  0.77841  1.0000
  C   C41       1.0  0.10154  0.19558  0.04254  1.0000
  C   C42       1.0  0.90615  0.80453  0.95742  1.0000
  C   C43       1.0  0.26486  0.85892  0.55418  1.0000
  C   C44       1.0  0.40541  0.14106  0.44563  1.0000
  C   C45       1.0  0.15142  0.76624  0.59849  1.0000
  C   C46       1.0  0.38490  0.23391  0.40141  1.0000
  C   C47       1.0  0.18487  0.74099  0.70432  1.0000
  C   C48       1.0  0.44377  0.25933  0.29570  1.0000
  C   C49       1.0  0.33238  0.81507  0.76017  1.0000
  C   C50       1.0  0.51718  0.18532  0.23987  1.0000
  C   C51       1.0  0.43920  0.90616  0.70969  1.0000
  C   C52       1.0  0.53270  0.09412  0.29024  1.0000
  C   C53       1.0  0.07513  0.64523  0.75773  1.0000
  C   C54       1.0  0.42971  0.35511  0.24234  1.0000
  C   C55       1.0  0.93944  0.56211  0.70899  1.0000
  C   C56       1.0  0.37716  0.43819  0.29099  1.0000
  N   N1        1.0  0.11962  0.10948  0.09468  1.0000
  N   N2        1.0  0.01005  0.89065  0.90520  1.0000
  N   N3        1.0  0.40803  0.92765  0.60755  1.0000
  N   N4        1.0  0.47983  0.07240  0.39228  1.0000
  O   O1        1.0  0.63414  0.79836  0.51058  1.0000
  O   O2        1.0  0.83600  0.20053  0.48942  1.0000
  O   O3        1.0  0.74014  0.89926  0.36877  1.0000
  O   O4        1.0  0.84048  0.10007  0.63175  1.0000
  O   O5        1.0  0.33279  0.11881  0.83998  1.0000
  O   O6        1.0  0.21391  0.88137  0.15956  1.0000
  O   O7        1.0  0.50550  0.15039  0.98777  1.0000
  O   O8        1.0  0.35541  0.84997  0.01198  1.0000
