data_image0
_chemical_formula_structural       Fe2H8C8N16
_chemical_formula_sum              "Fe2 H8 C8 N16"
_cell_length_a       6.41635
_cell_length_b       6.84996
_cell_length_c       8.37072
_cell_angle_alpha    114.136
_cell_angle_beta     90.1846
_cell_angle_gamma    89.5201

_space_group_name_H-M_alt    "P 1"
_space_group_IT_number       1

loop_
  _space_group_symop_operation_xyz
  'x, y, z'

loop_
  _atom_site_type_symbol
  _atom_site_label
  _atom_site_symmetry_multiplicity
  _atom_site_fract_x
  _atom_site_fract_y
  _atom_site_fract_z
  _atom_site_occupancy
  Fe  Fe1       1.0  0.00000  0.00000  0.00000  1.0000
  Fe  Fe2       1.0  0.50000  0.00000  1.00000  1.0000
  H   H1        1.0  0.00411  0.54350  0.72595  1.0000
  H   H2        1.0  0.49627  0.54048  0.72606  1.0000
  H   H3        1.0  0.50375  0.18573  0.72607  1.0000
  H   H4        1.0  0.00415  0.81726  0.27413  1.0000
  H   H5        1.0  0.99589  0.45650  0.27405  1.0000
  H   H6        1.0  0.50373  0.45952  0.27394  1.0000
  H   H7        1.0  0.49626  0.81427  0.27393  1.0000
  H   H8        1.0  0.99585  0.18274  0.72587  1.0000
  C   C1        1.0  0.00071  0.52504  0.84886  1.0000
  C   C2        1.0  0.49994  0.52660  0.85067  1.0000
  C   C3        1.0  0.50001  0.32414  0.85068  1.0000
  C   C4        1.0  0.00073  0.67602  0.15122  1.0000
  C   C5        1.0  0.99928  0.47496  0.15114  1.0000
  C   C6        1.0  0.50006  0.47340  0.14933  1.0000
  C   C7        1.0  0.49999  0.67586  0.14932  1.0000
  C   C8        1.0  0.99927  0.32398  0.84878  1.0000
  N   N1        1.0  0.00139  0.70275  0.00005  1.0000
  N   N2        1.0  0.50041  0.70855  0.99999  1.0000
  N   N3        1.0  0.49959  0.29145  0.00001  1.0000
  N   N4        1.0  0.99861  0.29724  0.99995  1.0000
  N   N5        1.0  0.73203  0.09525  0.17666  1.0000
  N   N6        1.0  0.26795  0.08127  0.17670  1.0000
  N   N7        1.0  0.73205  0.91873  0.82330  1.0000
  N   N8        1.0  0.26797  0.90475  0.82333  1.0000
  N   N9        1.0  0.73298  0.11929  0.32867  1.0000
  N   N10       1.0  0.26699  0.20933  0.32869  1.0000
  N   N11       1.0  0.73301  0.79067  0.67131  1.0000
  N   N12       1.0  0.26703  0.88071  0.67134  1.0000
  N   N13       1.0  0.74292  0.14527  0.47482  1.0000
  N   N14       1.0  0.25701  0.32956  0.47483  1.0000
  N   N15       1.0  0.74299  0.67044  0.52517  1.0000
  N   N16       1.0  0.25707  0.85473  0.52518  1.0000
