data_image0
_chemical_formula_structural       Sn8P4H16C16O28
_chemical_formula_sum              "Sn8 P4 H16 C16 O28"
_cell_length_a       4.81016
_cell_length_b       8.18509
_cell_length_c       23.3747
_cell_angle_alpha    90.0001
_cell_angle_beta     89.9998
_cell_angle_gamma    93.8803

_space_group_name_H-M_alt    "P 1"
_space_group_IT_number       1

loop_
  _space_group_symop_operation_xyz
  'x, y, z'

loop_
  _atom_site_type_symbol
  _atom_site_label
  _atom_site_symmetry_multiplicity
  _atom_site_fract_x
  _atom_site_fract_y
  _atom_site_fract_z
  _atom_site_occupancy
  Sn  Sn1       1.0  0.01322  0.35847  0.40967  1.0000
  Sn  Sn2       1.0  0.01322  0.85847  0.09033  1.0000
  Sn  Sn3       1.0  0.98678  0.64153  0.59033  1.0000
  Sn  Sn4       1.0  0.98678  0.14153  0.90967  1.0000
  Sn  Sn5       1.0  0.83253  0.82595  0.40958  1.0000
  Sn  Sn6       1.0  0.83253  0.32595  0.09042  1.0000
  Sn  Sn7       1.0  0.16747  0.17405  0.59042  1.0000
  Sn  Sn8       1.0  0.16747  0.67405  0.90958  1.0000
  P   P1        1.0  0.48864  0.12635  0.34404  1.0000
  P   P2        1.0  0.48865  0.62635  0.15596  1.0000
  P   P3        1.0  0.51135  0.87365  0.65596  1.0000
  P   P4        1.0  0.51135  0.37365  0.84404  1.0000
  H   H1        1.0  0.17901  0.02683  0.27164  1.0000
  H   H2        1.0  0.17900  0.52683  0.22836  1.0000
  H   H3        1.0  0.82100  0.97317  0.72836  1.0000
  H   H4        1.0  0.82100  0.47317  0.77164  1.0000
  H   H5        1.0  0.22434  0.24269  0.27018  1.0000
  H   H6        1.0  0.22434  0.74268  0.22982  1.0000
  H   H7        1.0  0.77566  0.75731  0.72982  1.0000
  H   H8        1.0  0.77567  0.25731  0.77018  1.0000
  H   H9        1.0  0.67571  0.23380  0.22027  1.0000
  H   H10       1.0  0.67571  0.73379  0.27973  1.0000
  H   H11       1.0  0.32428  0.76620  0.77974  1.0000
  H   H12       1.0  0.32429  0.26621  0.72027  1.0000
  H   H13       1.0  0.69533  0.02373  0.23491  1.0000
  H   H14       1.0  0.69533  0.52373  0.26509  1.0000
  H   H15       1.0  0.30467  0.97627  0.76509  1.0000
  H   H16       1.0  0.30468  0.47627  0.73491  1.0000
  C   C1        1.0  0.33601  0.13049  0.27368  1.0000
  C   C2        1.0  0.33601  0.63048  0.22632  1.0000
  C   C3        1.0  0.66399  0.86951  0.72632  1.0000
  C   C4        1.0  0.66400  0.36951  0.77368  1.0000
  C   C5        1.0  0.54904  0.11848  0.22562  1.0000
  C   C6        1.0  0.54903  0.61848  0.27438  1.0000
  C   C7        1.0  0.45096  0.88152  0.77438  1.0000
  C   C8        1.0  0.45097  0.38152  0.72562  1.0000
  C   C9        1.0  0.42137  0.06664  0.16874  1.0000
  C   C10       1.0  0.42136  0.56664  0.33126  1.0000
  C   C11       1.0  0.57863  0.93336  0.83126  1.0000
  C   C12       1.0  0.57863  0.43336  0.66874  1.0000
  C   C13       1.0  0.58646  0.08231  0.49643  1.0000
  C   C14       1.0  0.58646  0.58230  0.00357  1.0000
  C   C15       1.0  0.41352  0.91770  0.50357  1.0000
  C   C16       1.0  0.41352  0.41770  0.99643  1.0000
  O   O1        1.0  0.26382  0.15428  0.38985  1.0000
  O   O2        1.0  0.26382  0.65428  0.11015  1.0000
  O   O3        1.0  0.73618  0.84571  0.61015  1.0000
  O   O4        1.0  0.73618  0.34572  0.88985  1.0000
  O   O5        1.0  0.73117  0.25937  0.34535  1.0000
  O   O6        1.0  0.73117  0.75937  0.15465  1.0000
  O   O7        1.0  0.26883  0.74063  0.65465  1.0000
  O   O8        1.0  0.26883  0.24063  0.84535  1.0000
  O   O9        1.0  0.58671  0.95036  0.35049  1.0000
  O   O10       1.0  0.58672  0.45037  0.14951  1.0000
  O   O11       1.0  0.41330  0.04963  0.64951  1.0000
  O   O12       1.0  0.41329  0.54963  0.85049  1.0000
  O   O13       1.0  0.54829  0.09958  0.12184  1.0000
  O   O14       1.0  0.54827  0.59958  0.37816  1.0000
  O   O15       1.0  0.45171  0.90042  0.87816  1.0000
  O   O16       1.0  0.45172  0.40042  0.62184  1.0000
  O   O17       1.0  0.18938  0.98047  0.17052  1.0000
  O   O18       1.0  0.18937  0.48046  0.32948  1.0000
  O   O19       1.0  0.81062  0.01953  0.82948  1.0000
  O   O20       1.0  0.81063  0.51953  0.67052  1.0000
  O   O21       1.0  0.79080  0.08398  0.46236  1.0000
  O   O22       1.0  0.79080  0.58398  0.03764  1.0000
  O   O23       1.0  0.20921  0.91603  0.53764  1.0000
  O   O24       1.0  0.20920  0.41603  0.96236  1.0000
  O   O25       1.0  0.51739  0.20439  0.52533  1.0000
  O   O26       1.0  0.51739  0.70439  0.97467  1.0000
  O   O27       1.0  0.48260  0.79562  0.47467  1.0000
  O   O28       1.0  0.48260  0.29562  0.02533  1.0000
