data_image0
_chemical_formula_structural       Mn2H16C32N20O4
_chemical_formula_sum              "Mn2 H16 C32 N20 O4"
_cell_length_a       6.83806
_cell_length_b       7.32251
_cell_length_c       19.1359
_cell_angle_alpha    89.9987
_cell_angle_beta     90.0006
_cell_angle_gamma    116.64

_space_group_name_H-M_alt    "P 1"
_space_group_IT_number       1

loop_
  _space_group_symop_operation_xyz
  'x, y, z'

loop_
  _atom_site_type_symbol
  _atom_site_label
  _atom_site_symmetry_multiplicity
  _atom_site_fract_x
  _atom_site_fract_y
  _atom_site_fract_z
  _atom_site_occupancy
  Mn  Mn1       1.0  0.49999  1.00000  1.00000  1.0000
  Mn  Mn2       1.0  0.00001  0.50001  0.50000  1.0000
  H   H1        1.0  0.70457  0.03377  0.81685  1.0000
  H   H2        1.0  0.20459  0.53378  0.68315  1.0000
  H   H3        1.0  0.29542  0.96621  0.18315  1.0000
  H   H4        1.0  0.79541  0.46622  0.31685  1.0000
  H   H5        1.0  0.69289  0.76053  0.73603  1.0000
  H   H6        1.0  0.19289  0.26053  0.76397  1.0000
  H   H7        1.0  0.30712  0.23946  0.26397  1.0000
  H   H8        1.0  0.80712  0.73947  0.23603  1.0000
  H   H9        1.0  0.89660  0.50747  0.91081  1.0000
  H   H10       1.0  0.39659  0.00747  0.58920  1.0000
  H   H11       1.0  0.10340  0.49253  0.08919  1.0000
  H   H12       1.0  0.60341  0.99253  0.41080  1.0000
  H   H13       1.0  0.92020  0.80464  0.98262  1.0000
  H   H14       1.0  0.42020  0.30465  0.51738  1.0000
  H   H15       1.0  0.07978  0.19535  0.01738  1.0000
  H   H16       1.0  0.57980  0.69535  0.48262  1.0000
  C   C1        1.0  0.74684  0.91403  0.83347  1.0000
  C   C2        1.0  0.24686  0.41404  0.66654  1.0000
  C   C3        1.0  0.25315  0.08597  0.16653  1.0000
  C   C4        1.0  0.75315  0.58596  0.33347  1.0000
  C   C5        1.0  0.74039  0.76057  0.79028  1.0000
  C   C6        1.0  0.24040  0.26057  0.70972  1.0000
  C   C7        1.0  0.25962  0.23942  0.20972  1.0000
  C   C8        1.0  0.75961  0.73943  0.29028  1.0000
  C   C9        1.0  0.79322  0.60966  0.81722  1.0000
  C   C10       1.0  0.29321  0.10965  0.68278  1.0000
  C   C11       1.0  0.20679  0.39035  0.18278  1.0000
  C   C12       1.0  0.70680  0.89035  0.31722  1.0000
  C   C13       1.0  0.85537  0.62139  0.88771  1.0000
  C   C14       1.0  0.35536  0.12139  0.61230  1.0000
  C   C15       1.0  0.14463  0.37860  0.11229  1.0000
  C   C16       1.0  0.64464  0.87861  0.38771  1.0000
  C   C17       1.0  0.86365  0.77919  0.92873  1.0000
  C   C18       1.0  0.36366  0.27920  0.57128  1.0000
  C   C19       1.0  0.13633  0.22080  0.07127  1.0000
  C   C20       1.0  0.63634  0.72080  0.42873  1.0000
  C   C21       1.0  0.78548  0.44714  0.77504  1.0000
  C   C22       1.0  0.28547  0.94712  0.72497  1.0000
  C   C23       1.0  0.21454  0.55287  0.22496  1.0000
  C   C24       1.0  0.71454  0.05288  0.27504  1.0000
  C   C25       1.0  0.31459  0.55912  0.92344  1.0000
  C   C26       1.0  0.81458  0.05911  0.57656  1.0000
  C   C27       1.0  0.68541  0.44089  0.07655  1.0000
  C   C28       1.0  0.18541  0.94090  0.42344  1.0000
  C   C29       1.0  0.34287  0.26469  0.90359  1.0000
  C   C30       1.0  0.84288  0.76469  0.59641  1.0000
  C   C31       1.0  0.65711  0.73531  0.09641  1.0000
  C   C32       1.0  0.15712  0.23533  0.40359  1.0000
  N   N1        1.0  0.80579  0.92113  0.90189  1.0000
  N   N2        1.0  0.30581  0.42114  0.59812  1.0000
  N   N3        1.0  0.19419  0.07886  0.09811  1.0000
  N   N4        1.0  0.69419  0.57886  0.40189  1.0000
  N   N5        1.0  0.77810  0.31074  0.74155  1.0000
  N   N6        1.0  0.27807  0.81072  0.75846  1.0000
  N   N7        1.0  0.22194  0.68927  0.25845  1.0000
  N   N8        1.0  0.72194  0.18928  0.24154  1.0000
  N   N9        1.0  0.33230  0.70425  0.95502  1.0000
  N   N10       1.0  0.83230  0.20425  0.54499  1.0000
  N   N11       1.0  0.66769  0.29574  0.04498  1.0000
  N   N12       1.0  0.16769  0.79576  0.45501  1.0000
  N   N13       1.0  0.28349  0.40284  0.88539  1.0000
  N   N14       1.0  0.78350  0.90283  0.61461  1.0000
  N   N15       1.0  0.71649  0.59715  0.11461  1.0000
  N   N16       1.0  0.21650  0.09718  0.38539  1.0000
  N   N17       1.0  0.39077  0.13143  0.91509  1.0000
  N   N18       1.0  0.89079  0.63144  0.58491  1.0000
  N   N19       1.0  0.60921  0.86856  0.08491  1.0000
  N   N20       1.0  0.10922  0.36858  0.41510  1.0000
  O   O1        1.0  0.80118  0.06324  0.94303  1.0000
  O   O2        1.0  0.30120  0.56326  0.55697  1.0000
  O   O3        1.0  0.19880  0.93675  0.05696  1.0000
  O   O4        1.0  0.69881  0.43675  0.44303  1.0000
