data_image0
_chemical_formula_structural       CuH12C14N4O4
_chemical_formula_sum              "Cu1 H12 C14 N4 O4"
_cell_length_a       4.77811
_cell_length_b       7.68287
_cell_length_c       10.276
_cell_angle_alpha    74.2976
_cell_angle_beta     77.4526
_cell_angle_gamma    84.4411

_space_group_name_H-M_alt    "P 1"
_space_group_IT_number       1

loop_
  _space_group_symop_operation_xyz
  'x, y, z'

loop_
  _atom_site_type_symbol
  _atom_site_label
  _atom_site_symmetry_multiplicity
  _atom_site_fract_x
  _atom_site_fract_y
  _atom_site_fract_z
  _atom_site_occupancy
  Cu  Cu1       1.0  0.00000  1.00000  0.00000  1.0000
  H   H1        1.0  0.54879  0.74591  0.03920  1.0000
  H   H2        1.0  0.45121  0.25409  0.96080  1.0000
  H   H3        1.0  0.89003  0.62463  0.85921  1.0000
  H   H4        1.0  0.10997  0.37538  0.14079  1.0000
  H   H5        1.0  0.71002  0.77692  0.61309  1.0000
  H   H6        1.0  0.28998  0.22309  0.38690  1.0000
  H   H7        1.0  0.22414  0.98275  0.68905  1.0000
  H   H8        1.0  0.77586  0.01725  0.31094  1.0000
  H   H9        1.0  0.32021  0.59897  0.62463  1.0000
  H   H10       1.0  0.67980  0.40102  0.37537  1.0000
  H   H11       1.0  0.71779  0.22495  0.61725  1.0000
  H   H12       1.0  0.28221  0.77504  0.38275  1.0000
  C   C1        1.0  0.70885  0.71613  0.83678  1.0000
  C   C2        1.0  0.29114  0.28387  0.16322  1.0000
  C   C3        1.0  0.61423  0.79540  0.71431  1.0000
  C   C4        1.0  0.38577  0.20460  0.28569  1.0000
  C   C5        1.0  0.36941  0.90116  0.75118  1.0000
  C   C6        1.0  0.63059  0.09884  0.24882  1.0000
  C   C7        1.0  0.05409  0.29987  0.77687  1.0000
  C   C8        1.0  0.94591  0.70013  0.22313  1.0000
  C   C9        1.0  0.02231  0.40277  0.63399  1.0000
  C   C10       1.0  0.97769  0.59722  0.36601  1.0000
  C   C11       1.0  0.18043  0.55788  0.56857  1.0000
  C   C12       1.0  0.81958  0.44211  0.43144  1.0000
  C   C13       1.0  0.84119  0.34497  0.56467  1.0000
  C   C14       1.0  0.15881  0.65503  0.43533  1.0000
  N   N1        1.0  0.31818  0.88798  0.88762  1.0000
  N   N2        1.0  0.68182  0.11202  0.11238  1.0000
  N   N3        1.0  0.52632  0.77422  0.93765  1.0000
  N   N4        1.0  0.47369  0.22578  0.06234  1.0000
  O   O1        1.0  0.90084  0.15777  0.82986  1.0000
  O   O2        1.0  0.09916  0.84222  0.17015  1.0000
  O   O3        1.0  0.22260  0.35248  0.83530  1.0000
  O   O4        1.0  0.77741  0.64751  0.16471  1.0000
