data_image0
_chemical_formula_structural       Zn3H18C42N12O36
_chemical_formula_sum              "Zn3 H18 C42 N12 O36"
_cell_length_a       11.1646
_cell_length_b       11.1646
_cell_length_c       11.5307
_cell_angle_alpha    90.0003
_cell_angle_beta     89.9998
_cell_angle_gamma    120

_space_group_name_H-M_alt    "P 1"
_space_group_IT_number       1

loop_
  _space_group_symop_operation_xyz
  'x, y, z'

loop_
  _atom_site_type_symbol
  _atom_site_label
  _atom_site_symmetry_multiplicity
  _atom_site_fract_x
  _atom_site_fract_y
  _atom_site_fract_z
  _atom_site_occupancy
  Zn  Zn1       1.0  0.05094  0.00001  0.83332  1.0000
  Zn  Zn2       1.0  0.00001  0.05094  0.16667  1.0000
  Zn  Zn3       1.0  0.94906  0.94906  0.50000  1.0000
  H   H1        1.0  0.57919  0.70710  0.57426  1.0000
  H   H2        1.0  0.29291  0.87209  0.90759  1.0000
  H   H3        1.0  0.12791  0.42082  0.24094  1.0000
  H   H4        1.0  0.87209  0.29291  0.09241  1.0000
  H   H5        1.0  0.42082  0.12791  0.75905  1.0000
  H   H6        1.0  0.70710  0.57919  0.42574  1.0000
  H   H7        1.0  0.31030  0.31955  0.74643  1.0000
  H   H8        1.0  0.68045  0.99074  0.07976  1.0000
  H   H9        1.0  0.00925  0.68971  0.41311  1.0000
  H   H10       1.0  0.99074  0.68045  0.92024  1.0000
  H   H11       1.0  0.68970  0.00925  0.58689  1.0000
  H   H12       1.0  0.31955  0.31030  0.25357  1.0000
  H   H13       1.0  0.71617  0.59816  0.88579  1.0000
  H   H14       1.0  0.40184  0.11800  0.21912  1.0000
  H   H15       1.0  0.88198  0.28383  0.55247  1.0000
  H   H16       1.0  0.11801  0.40184  0.78088  1.0000
  H   H17       1.0  0.28383  0.88199  0.44753  1.0000
  H   H18       1.0  0.59816  0.71617  0.11421  1.0000
  C   C1        1.0  0.66258  0.66589  0.72833  1.0000
  C   C2        1.0  0.33411  0.99670  0.06166  1.0000
  C   C3        1.0  0.00330  0.33742  0.39500  1.0000
  C   C4        1.0  0.99670  0.33412  0.93834  1.0000
  C   C5        1.0  0.33742  0.00331  0.60499  1.0000
  C   C6        1.0  0.66589  0.66258  0.27167  1.0000
  C   C7        1.0  0.56054  0.63541  0.64500  1.0000
  C   C8        1.0  0.36460  0.92513  0.97833  1.0000
  C   C9        1.0  0.07487  0.43946  0.31168  1.0000
  C   C10       1.0  0.92513  0.36460  0.02167  1.0000
  C   C11       1.0  0.43946  0.07488  0.68832  1.0000
  C   C12       1.0  0.63541  0.56054  0.35500  1.0000
  C   C13       1.0  0.43526  0.51202  0.65409  1.0000
  C   C14       1.0  0.48798  0.92323  0.98742  1.0000
  C   C15       1.0  0.07676  0.56475  0.32077  1.0000
  C   C16       1.0  0.92324  0.48798  0.01258  1.0000
  C   C17       1.0  0.56475  0.07677  0.67923  1.0000
  C   C18       1.0  0.51202  0.43526  0.34591  1.0000
  C   C19       1.0  0.40815  0.41635  0.74171  1.0000
  C   C20       1.0  0.58365  0.99179  0.07504  1.0000
  C   C21       1.0  0.00821  0.59186  0.40839  1.0000
  C   C22       1.0  0.99180  0.58365  0.92496  1.0000
  C   C23       1.0  0.59186  0.00821  0.59161  1.0000
  C   C24       1.0  0.41635  0.40815  0.25829  1.0000
  C   C25       1.0  0.51239  0.45062  0.82303  1.0000
  C   C26       1.0  0.54938  0.06176  0.15637  1.0000
  C   C27       1.0  0.93823  0.48762  0.48971  1.0000
  C   C28       1.0  0.06177  0.54939  0.84363  1.0000
  C   C29       1.0  0.48761  0.93822  0.51029  1.0000
  C   C30       1.0  0.45061  0.51238  0.17696  1.0000
  C   C31       1.0  0.63839  0.57368  0.81912  1.0000
  C   C32       1.0  0.42632  0.06470  0.15246  1.0000
  C   C33       1.0  0.93529  0.36161  0.48580  1.0000
  C   C34       1.0  0.06471  0.42633  0.84754  1.0000
  C   C35       1.0  0.36161  0.93529  0.51420  1.0000
  C   C36       1.0  0.57368  0.63839  0.18087  1.0000
  C   C37       1.0  0.79799  0.79846  0.72006  1.0000
  C   C38       1.0  0.20155  0.99953  0.05338  1.0000
  C   C39       1.0  0.00046  0.20201  0.38673  1.0000
  C   C40       1.0  0.99954  0.20155  0.94661  1.0000
  C   C41       1.0  0.20201  0.00047  0.61326  1.0000
  C   C42       1.0  0.79846  0.79798  0.27994  1.0000
  N   N1        1.0  0.32720  0.47835  0.56641  1.0000
  N   N2        1.0  0.52164  0.84884  0.89973  1.0000
  N   N3        1.0  0.15116  0.67280  0.23308  1.0000
  N   N4        1.0  0.84884  0.52165  0.10027  1.0000
  N   N5        1.0  0.67279  0.15115  0.76692  1.0000
  N   N6        1.0  0.47836  0.32721  0.43360  1.0000
  N   N7        1.0  0.48484  0.35312  0.91859  1.0000
  N   N8        1.0  0.64688  0.13171  0.25192  1.0000
  N   N9        1.0  0.86828  0.51517  0.58527  1.0000
  N   N10       1.0  0.13172  0.64689  0.74807  1.0000
  N   N11       1.0  0.51516  0.86828  0.41473  1.0000
  N   N12       1.0  0.35312  0.48483  0.08141  1.0000
  O   O1        1.0  0.88156  0.82545  0.80430  1.0000
  O   O2        1.0  0.17455  0.05611  0.13763  1.0000
  O   O3        1.0  0.94387  0.11843  0.47098  1.0000
  O   O4        1.0  0.05613  0.17457  0.86236  1.0000
  O   O5        1.0  0.11843  0.94388  0.52901  1.0000
  O   O6        1.0  0.82545  0.88157  0.19569  1.0000
  O   O7        1.0  0.81795  0.87425  0.63178  1.0000
  O   O8        1.0  0.12576  0.94372  0.96510  1.0000
  O   O9        1.0  0.05629  0.18206  0.29847  1.0000
  O   O10       1.0  0.94372  0.12576  0.03489  1.0000
  O   O11       1.0  0.18205  0.05630  0.70153  1.0000
  O   O12       1.0  0.87425  0.81795  0.36821  1.0000
  O   O13       1.0  0.35219  0.56268  0.48700  1.0000
  O   O14       1.0  0.43732  0.78951  0.82034  1.0000
  O   O15       1.0  0.21049  0.64781  0.15368  1.0000
  O   O16       1.0  0.78951  0.43732  0.17967  1.0000
  O   O17       1.0  0.64780  0.21048  0.84632  1.0000
  O   O18       1.0  0.56267  0.35219  0.51299  1.0000
  O   O19       1.0  0.21818  0.36630  0.57627  1.0000
  O   O20       1.0  0.63371  0.85188  0.90960  1.0000
  O   O21       1.0  0.14812  0.78182  0.24295  1.0000
  O   O22       1.0  0.85189  0.63371  0.09040  1.0000
  O   O23       1.0  0.78182  0.14811  0.75706  1.0000
  O   O24       1.0  0.36629  0.21817  0.42373  1.0000
  O   O25       1.0  0.37580  0.24008  0.91444  1.0000
  O   O26       1.0  0.75992  0.13573  0.24777  1.0000
  O   O27       1.0  0.86427  0.62420  0.58111  1.0000
  O   O28       1.0  0.13573  0.75993  0.75223  1.0000
  O   O29       1.0  0.62420  0.86427  0.41889  1.0000
  O   O30       1.0  0.24007  0.37579  0.08556  1.0000
  O   O31       1.0  0.56992  0.38944  0.99871  1.0000
  O   O32       1.0  0.61057  0.18048  0.33205  1.0000
  O   O33       1.0  0.81951  0.43008  0.66539  1.0000
  O   O34       1.0  0.18048  0.61057  0.66795  1.0000
  O   O35       1.0  0.43008  0.81951  0.33461  1.0000
  O   O36       1.0  0.38943  0.56991  0.00129  1.0000
