data_image0
_chemical_formula_structural       Zn2H46C64N10O8
_chemical_formula_sum              "Zn2 H46 C64 N10 O8"
_cell_length_a       9.9431
_cell_length_b       11.9555
_cell_length_c       12.0935
_cell_angle_alpha    98.3695
_cell_angle_beta     100.129
_cell_angle_gamma    91.9181

_space_group_name_H-M_alt    "P 1"
_space_group_IT_number       1

loop_
  _space_group_symop_operation_xyz
  'x, y, z'

loop_
  _atom_site_type_symbol
  _atom_site_label
  _atom_site_symmetry_multiplicity
  _atom_site_fract_x
  _atom_site_fract_y
  _atom_site_fract_z
  _atom_site_occupancy
  Zn  Zn1       1.0  0.82655  0.41300  0.17550  1.0000
  Zn  Zn2       1.0  0.17345  0.58700  0.82450  1.0000
  H   H1        1.0  0.82864  0.05125  0.12276  1.0000
  H   H2        1.0  0.17136  0.94875  0.87724  1.0000
  H   H3        1.0  0.86593  0.84729  0.05927  1.0000
  H   H4        1.0  0.13407  0.15271  0.94074  1.0000
  H   H5        1.0  0.52536  0.32541  0.36886  1.0000
  H   H6        1.0  0.47464  0.67459  0.63114  1.0000
  H   H7        1.0  0.37511  0.32066  0.51610  1.0000
  H   H8        1.0  0.62488  0.67935  0.48390  1.0000
  H   H9        1.0  0.02285  0.44502  0.41669  1.0000
  H   H10       1.0  0.97715  0.55498  0.58331  1.0000
  H   H11       1.0  0.20067  0.63447  0.49043  1.0000
  H   H12       1.0  0.79933  0.36553  0.50957  1.0000
  H   H13       1.0  0.02418  0.62535  0.14119  1.0000
  H   H14       1.0  0.97582  0.37464  0.85880  1.0000
  H   H15       1.0  0.08651  0.80309  0.16214  1.0000
  H   H16       1.0  0.91349  0.19690  0.83786  1.0000
  H   H17       1.0  0.24672  0.95197  0.13417  1.0000
  H   H18       1.0  0.75328  0.04803  0.86583  1.0000
  H   H19       1.0  0.52425  0.89520  0.43508  1.0000
  H   H20       1.0  0.47574  0.10480  0.56492  1.0000
  H   H21       1.0  0.36664  0.74160  0.45909  1.0000
  H   H22       1.0  0.63335  0.25840  0.54091  1.0000
  H   H23       1.0  0.29328  0.13851  0.30433  1.0000
  H   H24       1.0  0.70672  0.86150  0.69567  1.0000
  H   H25       1.0  0.22405  0.31071  0.22014  1.0000
  H   H26       1.0  0.77595  0.68930  0.77987  1.0000
  H   H27       1.0  0.53151  0.26332  0.01036  1.0000
  H   H28       1.0  0.46849  0.73668  0.98964  1.0000
  H   H29       1.0  0.59884  0.08998  0.09171  1.0000
  H   H30       1.0  0.40116  0.91002  0.90828  1.0000
  H   H31       1.0  0.28528  0.34975  0.88976  1.0000
  H   H32       1.0  0.71472  0.65025  0.11024  1.0000
  H   H33       1.0  0.28692  0.67053  0.08918  1.0000
  H   H34       1.0  0.71309  0.32948  0.91082  1.0000
  H   H35       1.0  0.37982  0.51523  0.23161  1.0000
  H   H36       1.0  0.62019  0.48478  0.76839  1.0000
  H   H37       1.0  0.62203  0.81278  0.25210  1.0000
  H   H38       1.0  0.37797  0.18721  0.74790  1.0000
  H   H39       1.0  0.86667  0.79020  0.31209  1.0000
  H   H40       1.0  0.13333  0.20980  0.68791  1.0000
  H   H41       1.0  0.02987  0.96048  0.38302  1.0000
  H   H42       1.0  0.97013  0.03952  0.61698  1.0000
  H   H43       1.0  0.93983  0.15352  0.39238  1.0000
  H   H44       1.0  0.06017  0.84648  0.60762  1.0000
  H   H45       1.0  0.69373  0.17698  0.33277  1.0000
  H   H46       1.0  0.30627  0.82302  0.66723  1.0000
  C   C1        1.0  0.95002  0.23618  0.06582  1.0000
  C   C2        1.0  0.04998  0.76382  0.93418  1.0000
  C   C3        1.0  0.97841  0.11404  0.03476  1.0000
  C   C4        1.0  0.02159  0.88597  0.96524  1.0000
  C   C5        1.0  0.90292  0.02788  0.06851  1.0000
  C   C6        1.0  0.09709  0.97212  0.93149  1.0000
  C   C7        1.0  0.92402  0.91481  0.03354  1.0000
  C   C8        1.0  0.07598  0.08519  0.96646  1.0000
  C   C9        1.0  0.67332  0.50449  0.33091  1.0000
  C   C10       1.0  0.32668  0.49551  0.66909  1.0000
  C   C11       1.0  0.58401  0.50244  0.41866  1.0000
  C   C12       1.0  0.41598  0.49756  0.58133  1.0000
  C   C13       1.0  0.51369  0.40130  0.42723  1.0000
  C   C14       1.0  0.48631  0.59870  0.57276  1.0000
  C   C15       1.0  0.43016  0.39863  0.50794  1.0000
  C   C16       1.0  0.56984  0.60138  0.49205  1.0000
  C   C17       1.0  0.04970  0.51107  0.37052  1.0000
  C   C18       1.0  0.95030  0.48892  0.62948  1.0000
  C   C19       1.0  0.13792  0.60481  0.40799  1.0000
  C   C20       1.0  0.86208  0.39519  0.59201  1.0000
  C   C21       1.0  0.04515  0.60210  0.22606  1.0000
  C   C22       1.0  0.95485  0.39789  0.77394  1.0000
  C   C23       1.0  0.21787  0.75929  0.31016  1.0000
  C   C24       1.0  0.78213  0.24070  0.68984  1.0000
  C   C25       1.0  0.18279  0.82222  0.22173  1.0000
  C   C26       1.0  0.81721  0.17778  0.77827  1.0000
  C   C27       1.0  0.27374  0.90657  0.20593  1.0000
  C   C28       1.0  0.72625  0.09343  0.79407  1.0000
  C   C29       1.0  0.40049  0.93160  0.27991  1.0000
  C   C30       1.0  0.59950  0.06840  0.72009  1.0000
  C   C31       1.0  0.42882  0.87459  0.37449  1.0000
  C   C32       1.0  0.57118  0.12541  0.62551  1.0000
  C   C33       1.0  0.33935  0.78829  0.38856  1.0000
  C   C34       1.0  0.66065  0.21171  0.61144  1.0000
  C   C35       1.0  0.45246  0.10399  0.20519  1.0000
  C   C36       1.0  0.54754  0.89601  0.79481  1.0000
  C   C37       1.0  0.34522  0.16572  0.23970  1.0000
  C   C38       1.0  0.65479  0.83429  0.76030  1.0000
  C   C39       1.0  0.30639  0.26190  0.19314  1.0000
  C   C40       1.0  0.69361  0.73810  0.80686  1.0000
  C   C41       1.0  0.37543  0.29755  0.11210  1.0000
  C   C42       1.0  0.62458  0.70246  0.88791  1.0000
  C   C43       1.0  0.47870  0.23474  0.07380  1.0000
  C   C44       1.0  0.52131  0.76526  0.92620  1.0000
  C   C45       1.0  0.51630  0.13777  0.11959  1.0000
  C   C46       1.0  0.48369  0.86222  0.88042  1.0000
  C   C47       1.0  0.29765  0.41622  0.96260  1.0000
  C   C48       1.0  0.70236  0.58378  0.03740  1.0000
  C   C49       1.0  0.30066  0.58085  0.06911  1.0000
  C   C50       1.0  0.69935  0.41915  0.93089  1.0000
  C   C51       1.0  0.34469  0.50531  0.14060  1.0000
  C   C52       1.0  0.65532  0.49469  0.85940  1.0000
  C   C53       1.0  0.63984  0.99668  0.28924  1.0000
  C   C54       1.0  0.36016  0.00332  0.71075  1.0000
  C   C55       1.0  0.69099  0.88807  0.28199  1.0000
  C   C56       1.0  0.30901  0.11192  0.71801  1.0000
  C   C57       1.0  0.83030  0.87556  0.31663  1.0000
  C   C58       1.0  0.16969  0.12444  0.68337  1.0000
  C   C59       1.0  0.92101  0.97053  0.35660  1.0000
  C   C60       1.0  0.07898  0.02947  0.64340  1.0000
  C   C61       1.0  0.87044  0.07846  0.36206  1.0000
  C   C62       1.0  0.12956  0.92154  0.63794  1.0000
  C   C63       1.0  0.73112  0.09207  0.32927  1.0000
  C   C64       1.0  0.26887  0.90793  0.67073  1.0000
  N   N1        1.0  0.99265  0.51079  0.25781  1.0000
  N   N2        1.0  0.00735  0.48920  0.74219  1.0000
  N   N3        1.0  0.13410  0.66233  0.31574  1.0000
  N   N4        1.0  0.86589  0.33767  0.68426  1.0000
  N   N5        1.0  0.49725  0.01019  0.25792  1.0000
  N   N6        1.0  0.50275  0.98981  0.74208  1.0000
  N   N7        1.0  0.34216  0.40142  0.07193  1.0000
  N   N8        1.0  0.65785  0.59859  0.92807  1.0000
  N   N9        1.0  0.27129  0.52423  0.95876  1.0000
  N   N10       1.0  0.72872  0.47577  0.04124  1.0000
  O   O1        1.0  0.00543  0.31191  0.02408  1.0000
  O   O2        1.0  0.99456  0.68809  0.97592  1.0000
  O   O3        1.0  0.86352  0.25386  0.13455  1.0000
  O   O4        1.0  0.13647  0.74614  0.86545  1.0000
  O   O5        1.0  0.71633  0.40613  0.29602  1.0000
  O   O6        1.0  0.28367  0.59388  0.70398  1.0000
  O   O7        1.0  0.70002  0.59527  0.29706  1.0000
  O   O8        1.0  0.29998  0.40473  0.70293  1.0000
