data_image0
_chemical_formula_structural       CdH8C8S2N8
_chemical_formula_sum              "Cd1 H8 C8 S2 N8"
_cell_length_a       5.78345
_cell_length_b       6.55631
_cell_length_c       8.95381
_cell_angle_alpha    105.401
_cell_angle_beta     95.4101
_cell_angle_gamma    96.9089

_space_group_name_H-M_alt    "P 1"
_space_group_IT_number       1

loop_
  _space_group_symop_operation_xyz
  'x, y, z'

loop_
  _atom_site_type_symbol
  _atom_site_label
  _atom_site_symmetry_multiplicity
  _atom_site_fract_x
  _atom_site_fract_y
  _atom_site_fract_z
  _atom_site_occupancy
  Cd  Cd1       1.0  0.00002  1.00000  1.00000  1.0000
  H   H1        1.0  0.55963  0.98190  0.67475  1.0000
  H   H2        1.0  0.44034  0.01808  0.32525  1.0000
  H   H3        1.0  0.25167  0.31557  0.78167  1.0000
  H   H4        1.0  0.74830  0.68444  0.21832  1.0000
  H   H5        1.0  0.06502  0.30655  0.38011  1.0000
  H   H6        1.0  0.93496  0.69345  0.61989  1.0000
  H   H7        1.0  0.25351  0.47139  0.54996  1.0000
  H   H8        1.0  0.74646  0.52861  0.45003  1.0000
  C   C1        1.0  0.72194  0.08132  0.67064  1.0000
  C   C2        1.0  0.27809  0.91871  0.32935  1.0000
  C   C3        1.0  0.07309  0.24840  0.72732  1.0000
  C   C4        1.0  0.92691  0.75160  0.27269  1.0000
  C   C5        1.0  0.07024  0.40812  0.49990  1.0000
  C   C6        1.0  0.92974  0.59188  0.50009  1.0000
  C   C7        1.0  0.44905  0.73968  0.87567  1.0000
  C   C8        1.0  0.55100  0.26032  0.12433  1.0000
  S   S1        1.0  0.68645  0.62860  0.87410  1.0000
  S   S2        1.0  0.31360  0.37138  0.12589  1.0000
  N   N1        1.0  0.97290  0.27927  0.59489  1.0000
  N   N2        1.0  0.02707  0.72072  0.40511  1.0000
  N   N3        1.0  0.74821  0.17351  0.55664  1.0000
  N   N4        1.0  0.25177  0.82647  0.44337  1.0000
  N   N5        1.0  0.91820  0.12280  0.77810  1.0000
  N   N6        1.0  0.08177  0.87719  0.22191  1.0000
  N   N7        1.0  0.27441  0.81676  0.87178  1.0000
  N   N8        1.0  0.72567  0.18326  0.12824  1.0000
