data_image0
_chemical_formula_structural       Zn2Hg2H28C32S8N12
_chemical_formula_sum              "Zn2 Hg2 H28 C32 S8 N12"
_cell_length_a       8.88549
_cell_length_b       8.88551
_cell_length_c       14.1578
_cell_angle_alpha    97.0236
_cell_angle_beta     97.0231
_cell_angle_gamma    91.4725

_space_group_name_H-M_alt    "P 1"
_space_group_IT_number       1

loop_
  _space_group_symop_operation_xyz
  'x, y, z'

loop_
  _atom_site_type_symbol
  _atom_site_label
  _atom_site_symmetry_multiplicity
  _atom_site_fract_x
  _atom_site_fract_y
  _atom_site_fract_z
  _atom_site_occupancy
  Zn  Zn1       1.0  0.99999  0.50000  1.00000  1.0000
  Zn  Zn2       1.0  0.50001  0.00000  0.50000  1.0000
  Hg  Hg1       1.0  0.47410  0.52590  0.75000  1.0000
  Hg  Hg2       1.0  0.52589  0.47410  0.25000  1.0000
  H   H1        1.0  0.79076  0.24296  0.89242  1.0000
  H   H2        1.0  0.75704  0.20924  0.60758  1.0000
  H   H3        1.0  0.20924  0.75703  0.10758  1.0000
  H   H4        1.0  0.24297  0.79077  0.39242  1.0000
  H   H5        1.0  0.05136  0.84431  0.84734  1.0000
  H   H6        1.0  0.15569  0.94865  0.65266  1.0000
  H   H7        1.0  0.94865  0.15569  0.15266  1.0000
  H   H8        1.0  0.84431  0.05135  0.34734  1.0000
  H   H9        1.0  0.28181  0.00205  0.92459  1.0000
  H   H10       1.0  0.99796  0.71820  0.57541  1.0000
  H   H11       1.0  0.71819  0.99795  0.07541  1.0000
  H   H12       1.0  0.00205  0.28181  0.42459  1.0000
  H   H13       1.0  0.25146  0.27556  0.98700  1.0000
  H   H14       1.0  0.72444  0.74854  0.51300  1.0000
  H   H15       1.0  0.74854  0.72444  0.01300  1.0000
  H   H16       1.0  0.27556  0.25146  0.48700  1.0000
  H   H17       1.0  0.67473  0.94510  0.86950  1.0000
  H   H18       1.0  0.05490  0.32527  0.63050  1.0000
  H   H19       1.0  0.32527  0.05489  0.13050  1.0000
  H   H20       1.0  0.94511  0.67474  0.36950  1.0000
  H   H21       1.0  0.78027  0.82658  0.79338  1.0000
  H   H22       1.0  0.17341  0.21974  0.70662  1.0000
  H   H23       1.0  0.21973  0.17341  0.20661  1.0000
  H   H24       1.0  0.82659  0.78027  0.29338  1.0000
  H   H25       1.0  0.70517  0.99606  0.75646  1.0000
  H   H26       1.0  0.00393  0.29483  0.74354  1.0000
  H   H27       1.0  0.29483  0.00394  0.24355  1.0000
  H   H28       1.0  0.99607  0.70517  0.25645  1.0000
  C   C1        1.0  0.89736  0.18446  0.89908  1.0000
  C   C2        1.0  0.81554  0.10264  0.60092  1.0000
  C   C3        1.0  0.10264  0.81553  0.10092  1.0000
  C   C4        1.0  0.18446  0.89736  0.39908  1.0000
  C   C5        1.0  0.90135  0.03085  0.86377  1.0000
  C   C6        1.0  0.96915  0.09865  0.63623  1.0000
  C   C7        1.0  0.09865  0.96914  0.13623  1.0000
  C   C8        1.0  0.03086  0.90135  0.36377  1.0000
  C   C9        1.0  0.04249  0.96414  0.87348  1.0000
  C   C10       1.0  0.03587  0.95751  0.62653  1.0000
  C   C11       1.0  0.95751  0.03586  0.12652  1.0000
  C   C12       1.0  0.96414  0.04249  0.37348  1.0000
  C   C13       1.0  0.17058  0.05137  0.91709  1.0000
  C   C14       1.0  0.94864  0.82942  0.58292  1.0000
  C   C15       1.0  0.82942  0.94864  0.08291  1.0000
  C   C16       1.0  0.05136  0.17058  0.41709  1.0000
  C   C17       1.0  0.15505  0.20296  0.95157  1.0000
  C   C18       1.0  0.79705  0.84495  0.54844  1.0000
  C   C19       1.0  0.84495  0.79704  0.04843  1.0000
  C   C20       1.0  0.20296  0.15506  0.45157  1.0000
  C   C21       1.0  0.75831  0.94455  0.81821  1.0000
  C   C22       1.0  0.05545  0.24170  0.68179  1.0000
  C   C23       1.0  0.24170  0.05544  0.18179  1.0000
  C   C24       1.0  0.94456  0.75831  0.31821  1.0000
  C   C25       1.0  0.83151  0.53946  0.78414  1.0000
  C   C26       1.0  0.46053  0.16851  0.71585  1.0000
  C   C27       1.0  0.16848  0.46052  0.21585  1.0000
  C   C28       1.0  0.53948  0.83150  0.28414  1.0000
  C   C29       1.0  0.37421  0.68093  0.56342  1.0000
  C   C30       1.0  0.31909  0.62580  0.93658  1.0000
  C   C31       1.0  0.62579  0.31908  0.43657  1.0000
  C   C32       1.0  0.68090  0.37418  0.06342  1.0000
  S   S1        1.0  0.72958  0.53106  0.67842  1.0000
  S   S2        1.0  0.46892  0.27042  0.82158  1.0000
  S   S3        1.0  0.27041  0.46893  0.32158  1.0000
  S   S4        1.0  0.53107  0.72958  0.17842  1.0000
  S   S5        1.0  0.27349  0.55151  0.60501  1.0000
  S   S6        1.0  0.44849  0.72652  0.89498  1.0000
  S   S7        1.0  0.72651  0.44849  0.39498  1.0000
  S   S8        1.0  0.55149  0.27348  0.10501  1.0000
  N   N1        1.0  0.02002  0.26813  0.94274  1.0000
  N   N2        1.0  0.73188  0.97998  0.55726  1.0000
  N   N3        1.0  0.97998  0.73187  0.05726  1.0000
  N   N4        1.0  0.26813  0.02003  0.44274  1.0000
  N   N5        1.0  0.90641  0.54760  0.85937  1.0000
  N   N6        1.0  0.45241  0.09359  0.64063  1.0000
  N   N7        1.0  0.09357  0.45239  0.14062  1.0000
  N   N8        1.0  0.54761  0.90642  0.35938  1.0000
  N   N9        1.0  0.44444  0.77300  0.53204  1.0000
  N   N10       1.0  0.22700  0.55557  0.96797  1.0000
  N   N11       1.0  0.55558  0.22700  0.46796  1.0000
  N   N12       1.0  0.77299  0.44442  0.03203  1.0000
