data_image0
_chemical_formula_structural       CoH20C20N2O8
_chemical_formula_sum              "Co1 H20 C20 N2 O8"
_cell_length_a       5.66717
_cell_length_b       7.93698
_cell_length_c       10.6084
_cell_angle_alpha    108.664
_cell_angle_beta     94.832
_cell_angle_gamma    98.6102

_space_group_name_H-M_alt    "P 1"
_space_group_IT_number       1

loop_
  _space_group_symop_operation_xyz
  'x, y, z'

loop_
  _atom_site_type_symbol
  _atom_site_label
  _atom_site_symmetry_multiplicity
  _atom_site_fract_x
  _atom_site_fract_y
  _atom_site_fract_z
  _atom_site_occupancy
  Co  Co1       1.0  1.00000  0.00000  0.00000  1.0000
  H   H1        1.0  0.78359  0.75916  0.05700  1.0000
  H   H2        1.0  0.21641  0.24083  0.94300  1.0000
  H   H3        1.0  0.57766  0.88524  0.06630  1.0000
  H   H4        1.0  0.42235  0.11476  0.93370  1.0000
  H   H5        1.0  0.87501  0.00954  0.39596  1.0000
  H   H6        1.0  0.12498  0.99046  0.60404  1.0000
  H   H7        1.0  0.13940  0.76174  0.38339  1.0000
  H   H8        1.0  0.86059  0.23824  0.61661  1.0000
  H   H9        1.0  0.24352  0.54360  0.23127  1.0000
  H   H10       1.0  0.75648  0.45640  0.76873  1.0000
  H   H11       1.0  0.40193  0.53261  0.09228  1.0000
  H   H12       1.0  0.59806  0.46737  0.90772  1.0000
  H   H13       1.0  0.67847  0.86965  0.74747  1.0000
  H   H14       1.0  0.32154  0.13035  0.25253  1.0000
  H   H15       1.0  0.66222  0.65150  0.52151  1.0000
  H   H16       1.0  0.33778  0.34850  0.47849  1.0000
  H   H17       1.0  0.66593  0.47129  0.33636  1.0000
  H   H18       1.0  0.33407  0.52872  0.66363  1.0000
  H   H19       1.0  0.67146  0.24206  0.12047  1.0000
  H   H20       1.0  0.32855  0.75795  0.87954  1.0000
  C   C1        1.0  0.71115  0.00665  0.44244  1.0000
  C   C2        1.0  0.28886  0.99334  0.55755  1.0000
  C   C3        1.0  0.51202  0.87033  0.37630  1.0000
  C   C4        1.0  0.48797  0.12966  0.62370  1.0000
  C   C5        1.0  0.29862  0.86452  0.43387  1.0000
  C   C6        1.0  0.70139  0.13548  0.56613  1.0000
  C   C7        1.0  0.33614  0.62488  0.17725  1.0000
  C   C8        1.0  0.66385  0.37511  0.82275  1.0000
  C   C9        1.0  0.15747  0.72031  0.12283  1.0000
  C   C10       1.0  0.84252  0.27968  0.87717  1.0000
  C   C11       1.0  0.82032  0.79117  0.72396  1.0000
  C   C12       1.0  0.17966  0.20884  0.27605  1.0000
  C   C13       1.0  0.81388  0.66644  0.59682  1.0000
  C   C14       1.0  0.18613  0.33356  0.40318  1.0000
  C   C15       1.0  0.99975  0.56650  0.56710  1.0000
  C   C16       1.0  0.00024  0.43351  0.43290  1.0000
  C   C17       1.0  0.81466  0.39807  0.32623  1.0000
  C   C18       1.0  0.18536  0.60194  0.67378  1.0000
  C   C19       1.0  0.81654  0.26911  0.20216  1.0000
  C   C20       1.0  0.18344  0.73089  0.79784  1.0000
  N   N1        1.0  0.00375  0.82625  0.82482  1.0000
  N   N2        1.0  0.99627  0.17375  0.17519  1.0000
  O   O1        1.0  0.70338  0.83996  0.01218  1.0000
  O   O2        1.0  0.29662  0.16004  0.98782  1.0000
  O   O3        1.0  0.54567  0.74627  0.25801  1.0000
  O   O4        1.0  0.45433  0.25372  0.74198  1.0000
  O   O5        1.0  0.93672  0.65278  0.10931  1.0000
  O   O6        1.0  0.06328  0.34722  0.89068  1.0000
  O   O7        1.0  0.24529  0.85951  0.09405  1.0000
  O   O8        1.0  0.75471  0.14049  0.90595  1.0000
