data_image0
_chemical_formula_structural       Ag10H4C16N10O18
_chemical_formula_sum              "Ag10 H4 C16 N10 O18"
_cell_length_a       8.5911
_cell_length_b       8.76774
_cell_length_c       10.0576
_cell_angle_alpha    79.1244
_cell_angle_beta     78.5082
_cell_angle_gamma    79.094

_space_group_name_H-M_alt    "P 1"
_space_group_IT_number       1

loop_
  _space_group_symop_operation_xyz
  'x, y, z'

loop_
  _atom_site_type_symbol
  _atom_site_label
  _atom_site_symmetry_multiplicity
  _atom_site_fract_x
  _atom_site_fract_y
  _atom_site_fract_z
  _atom_site_occupancy
  Ag  Ag1       1.0  0.50219  0.84298  0.08518  1.0000
  Ag  Ag2       1.0  0.49781  0.15703  0.91481  1.0000
  Ag  Ag3       1.0  0.39638  0.52829  0.13431  1.0000
  Ag  Ag4       1.0  0.60362  0.47171  0.86568  1.0000
  Ag  Ag5       1.0  0.49149  0.59939  0.36451  1.0000
  Ag  Ag6       1.0  0.50852  0.40059  0.63548  1.0000
  Ag  Ag7       1.0  0.11657  0.37877  0.31738  1.0000
  Ag  Ag8       1.0  0.88343  0.62124  0.68262  1.0000
  Ag  Ag9       1.0  0.11640  0.77907  0.06035  1.0000
  Ag  Ag10      1.0  0.88360  0.22092  0.93966  1.0000
  H   H1        1.0  0.22753  0.01360  0.44580  1.0000
  H   H2        1.0  0.77245  0.98641  0.55421  1.0000
  H   H3        1.0  0.24818  0.80134  0.64937  1.0000
  H   H4        1.0  0.75181  0.19867  0.35063  1.0000
  C   C1        1.0  0.33342  0.17030  0.53329  1.0000
  C   C2        1.0  0.66658  0.82971  0.46671  1.0000
  C   C3        1.0  0.27691  0.02976  0.53298  1.0000
  C   C4        1.0  0.72308  0.97025  0.46701  1.0000
  C   C5        1.0  0.28960  0.91253  0.64419  1.0000
  C   C6        1.0  0.71039  0.08748  0.35581  1.0000
  C   C7        1.0  0.35545  0.94060  0.75365  1.0000
  C   C8        1.0  0.64455  0.05941  0.24635  1.0000
  C   C9        1.0  0.32659  0.30032  0.42527  1.0000
  C   C10       1.0  0.67341  0.69967  0.57472  1.0000
  C   C11       1.0  0.37070  0.41871  0.34355  1.0000
  C   C12       1.0  0.62929  0.58129  0.65645  1.0000
  C   C13       1.0  0.36480  0.82703  0.87303  1.0000
  C   C14       1.0  0.63520  0.17297  0.12697  1.0000
  C   C15       1.0  0.38063  0.71488  0.96981  1.0000
  C   C16       1.0  0.61937  0.28514  0.03019  1.0000
  N   N1        1.0  0.85043  0.86163  0.88403  1.0000
  N   N2        1.0  0.14957  0.13837  0.11597  1.0000
  N   N3        1.0  0.40302  0.18813  0.63821  1.0000
  N   N4        1.0  0.59698  0.81187  0.36178  1.0000
  N   N5        1.0  0.41186  0.07689  0.74718  1.0000
  N   N6        1.0  0.58815  0.92312  0.25282  1.0000
  N   N7        1.0  0.90770  0.21223  0.62562  1.0000
  N   N8        1.0  0.09230  0.78777  0.37439  1.0000
  N   N9        1.0  0.84105  0.52937  0.17717  1.0000
  N   N10       1.0  0.15896  0.47063  0.82282  1.0000
  O   O1        1.0  0.78804  0.46455  0.29711  1.0000
  O   O2        1.0  0.21197  0.53544  0.70289  1.0000
  O   O3        1.0  0.97292  0.81413  0.80134  1.0000
  O   O4        1.0  0.02708  0.18586  0.19866  1.0000
  O   O5        1.0  0.86705  0.90795  0.99322  1.0000
  O   O6        1.0  0.13295  0.09205  0.00679  1.0000
  O   O7        1.0  0.00053  0.25458  0.69124  1.0000
  O   O8        1.0  0.99946  0.74542  0.30877  1.0000
  O   O9        1.0  0.93969  0.22384  0.49593  1.0000
  O   O10       1.0  0.06032  0.77616  0.50407  1.0000
  O   O11       1.0  0.78219  0.15837  0.68996  1.0000
  O   O12       1.0  0.21781  0.84163  0.31004  1.0000
  O   O13       1.0  0.74981  0.59513  0.09287  1.0000
  O   O14       1.0  0.25019  0.40487  0.90712  1.0000
  O   O15       1.0  0.99383  0.52662  0.14161  1.0000
  O   O16       1.0  0.00617  0.47338  0.85838  1.0000
  O   O17       1.0  0.71074  0.86418  0.86056  1.0000
  O   O18       1.0  0.28926  0.13582  0.13944  1.0000
