data_image0
_chemical_formula_structural       CuH14C12N4O5
_chemical_formula_sum              "Cu1 H14 C12 N4 O5"
_cell_length_a       6.00465
_cell_length_b       6.93637
_cell_length_c       8.88872
_cell_angle_alpha    105.288
_cell_angle_beta     109.769
_cell_angle_gamma    89.958

_space_group_name_H-M_alt    "P 1"
_space_group_IT_number       1

loop_
  _space_group_symop_operation_xyz
  'x, y, z'

loop_
  _atom_site_type_symbol
  _atom_site_label
  _atom_site_symmetry_multiplicity
  _atom_site_fract_x
  _atom_site_fract_y
  _atom_site_fract_z
  _atom_site_occupancy
  Cu  Cu1       1.0  0.01451  0.00012  0.99997  1.0000
  H   H1        1.0  0.13367  0.73416  0.72191  1.0000
  H   H2        1.0  0.41124  0.26581  0.27784  1.0000
  H   H3        1.0  0.92766  0.57493  0.42084  1.0000
  H   H4        1.0  0.50696  0.42460  0.57930  1.0000
  H   H5        1.0  0.31444  0.88244  0.46629  1.0000
  H   H6        1.0  0.84893  0.11727  0.53392  1.0000
  H   H7        1.0  0.54560  0.02773  0.76411  1.0000
  H   H8        1.0  0.78170  0.97216  0.23587  1.0000
  H   H9        1.0  0.31673  0.67624  0.19163  1.0000
  H   H10       1.0  0.12526  0.32364  0.80818  1.0000
  H   H11       1.0  0.55553  0.53831  0.17655  1.0000
  H   H12       1.0  0.37900  0.46159  0.82345  1.0000
  H   H13       1.0  0.47974  0.88098  0.97785  1.0000
  H   H14       1.0  0.50221  0.11886  0.02211  1.0000
  C   C1        1.0  0.83793  0.39226  0.01178  1.0000
  C   C2        1.0  0.82615  0.60804  0.98832  1.0000
  C   C3        1.0  0.95190  0.76258  0.66022  1.0000
  C   C4        1.0  0.29149  0.23748  0.33968  1.0000
  C   C5        1.0  0.83586  0.67421  0.49219  1.0000
  C   C6        1.0  0.34364  0.32573  0.50775  1.0000
  C   C7        1.0  0.60027  0.71646  0.41318  1.0000
  C   C8        1.0  0.18724  0.28355  0.58677  1.0000
  C   C9        1.0  0.49615  0.84626  0.51740  1.0000
  C   C10       1.0  0.97911  0.15360  0.48261  1.0000
  C   C11       1.0  0.62530  0.92776  0.68403  1.0000
  C   C12       1.0  0.94136  0.07225  0.31592  1.0000
  N   N1        1.0  0.85186  0.88951  0.75729  1.0000
  N   N2        1.0  0.09433  0.11074  0.24260  1.0000
  N   N3        1.0  0.48280  0.63974  0.24921  1.0000
  N   N4        1.0  0.23364  0.36030  0.75071  1.0000
  O   O1        1.0  0.99193  0.28659  0.96877  1.0000
  O   O2        1.0  0.02310  0.71353  0.03113  1.0000
  O   O3        1.0  0.69015  0.33943  0.06864  1.0000
  O   O4        1.0  0.62140  0.66098  0.93149  1.0000
  O   O5        1.0  0.39319  0.00013  0.00048  1.0000
