data_image0
_chemical_formula_structural       Ag2H18C28S2N4
_chemical_formula_sum              "Ag2 H18 C28 S2 N4"
_cell_length_a       5.87546
_cell_length_b       7.70079
_cell_length_c       14.0535
_cell_angle_alpha    89.9976
_cell_angle_beta     99.1422
_cell_angle_gamma    90.0003

_space_group_name_H-M_alt    "P 1"
_space_group_IT_number       1

loop_
  _space_group_symop_operation_xyz
  'x, y, z'

loop_
  _atom_site_type_symbol
  _atom_site_label
  _atom_site_symmetry_multiplicity
  _atom_site_fract_x
  _atom_site_fract_y
  _atom_site_fract_z
  _atom_site_occupancy
  Ag  Ag1       1.0  0.24623  0.44887  0.92202  1.0000
  Ag  Ag2       1.0  0.75376  0.94887  0.07798  1.0000
  H   H1        1.0  0.12671  0.52629  0.70268  1.0000
  H   H2        1.0  0.87328  0.02628  0.29731  1.0000
  H   H3        1.0  0.30711  0.52527  0.55417  1.0000
  H   H4        1.0  0.69288  0.02526  0.44583  1.0000
  H   H5        1.0  0.86828  0.22656  0.71239  1.0000
  H   H6        1.0  0.13171  0.72655  0.28762  1.0000
  H   H7        1.0  0.66127  0.23860  0.85416  1.0000
  H   H8        1.0  0.33871  0.73859  0.14584  1.0000
  H   H9        1.0  0.61560  0.52817  0.30535  1.0000
  H   H10       1.0  0.38441  0.02818  0.69463  1.0000
  H   H11       1.0  0.76365  0.52996  0.14896  1.0000
  H   H12       1.0  0.23639  0.02997  0.85104  1.0000
  H   H13       1.0  0.13629  0.38577  0.13562  1.0000
  H   H14       1.0  0.86376  0.88578  0.86439  1.0000
  H   H15       1.0  0.36180  0.24213  0.27870  1.0000
  H   H16       1.0  0.63821  0.74214  0.72132  1.0000
  H   H17       1.0  0.21519  0.24078  0.43581  1.0000
  H   H18       1.0  0.78482  0.74080  0.56420  1.0000
  C   C1        1.0  0.28998  0.45966  0.70153  1.0000
  C   C2        1.0  0.71002  0.95964  0.29847  1.0000
  C   C3        1.0  0.39089  0.45909  0.61879  1.0000
  C   C4        1.0  0.60911  0.95907  0.38121  1.0000
  C   C5        1.0  0.60503  0.37507  0.62049  1.0000
  C   C6        1.0  0.39496  0.87506  0.37951  1.0000
  C   C7        1.0  0.70386  0.29382  0.70710  1.0000
  C   C8        1.0  0.29613  0.79380  0.29291  1.0000
  C   C9        1.0  0.58911  0.30037  0.78619  1.0000
  C   C10       1.0  0.41088  0.80036  0.21382  1.0000
  C   C11       1.0  0.71661  0.37543  0.53857  1.0000
  C   C12       1.0  0.28339  0.87542  0.46143  1.0000
  C   C13       1.0  0.81108  0.38019  0.46721  1.0000
  C   C14       1.0  0.18891  0.88018  0.53279  1.0000
  C   C15       1.0  0.90573  0.38526  0.38069  1.0000
  C   C16       1.0  0.09427  0.88527  0.61930  1.0000
  C   C17       1.0  0.77960  0.46702  0.29902  1.0000
  C   C18       1.0  0.22041  0.96703  0.70098  1.0000
  C   C19       1.0  0.86263  0.46693  0.21167  1.0000
  C   C20       1.0  0.13740  0.96694  0.78833  1.0000
  C   C21       1.0  0.07210  0.38596  0.20426  1.0000
  C   C22       1.0  0.92792  0.88597  0.79574  1.0000
  C   C23       1.0  0.19910  0.30563  0.28498  1.0000
  C   C24       1.0  0.80092  0.80563  0.71503  1.0000
  C   C25       1.0  0.11834  0.30515  0.37304  1.0000
  C   C26       1.0  0.88166  0.80515  0.62697  1.0000
  C   C27       1.0  0.75172  0.59506  0.95868  1.0000
  C   C28       1.0  0.24826  0.09506  0.04131  1.0000
  S   S1        1.0  0.52385  0.71529  0.96346  1.0000
  S   S2        1.0  0.47613  0.21529  0.03654  1.0000
  N   N1        1.0  0.38545  0.38201  0.78436  1.0000
  N   N2        1.0  0.61454  0.88200  0.21564  1.0000
  N   N3        1.0  0.91384  0.50616  0.95456  1.0000
  N   N4        1.0  0.08616  0.00615  0.04544  1.0000
