data_image0
_chemical_formula_structural       Zn2H32C24N4O18
_chemical_formula_sum              "Zn2 H32 C24 N4 O18"
_cell_length_a       4.94286
_cell_length_b       4.94279
_cell_length_c       30.626
_cell_angle_alpha    89.4363
_cell_angle_beta     89.4358
_cell_angle_gamma    86.0475

_space_group_name_H-M_alt    "P 1"
_space_group_IT_number       1

loop_
  _space_group_symop_operation_xyz
  'x, y, z'

loop_
  _atom_site_type_symbol
  _atom_site_label
  _atom_site_symmetry_multiplicity
  _atom_site_fract_x
  _atom_site_fract_y
  _atom_site_fract_z
  _atom_site_occupancy
  Zn  Zn1       1.0  0.76771  0.23227  0.25000  1.0000
  Zn  Zn2       1.0  0.23227  0.76773  0.75000  1.0000
  H   H1        1.0  0.84805  0.87854  0.35574  1.0000
  H   H2        1.0  0.12146  0.15197  0.14426  1.0000
  H   H3        1.0  0.15196  0.12146  0.64426  1.0000
  H   H4        1.0  0.87852  0.84801  0.85574  1.0000
  H   H5        1.0  0.67720  0.61048  0.38036  1.0000
  H   H6        1.0  0.38952  0.32284  0.11964  1.0000
  H   H7        1.0  0.32283  0.38952  0.61964  1.0000
  H   H8        1.0  0.61045  0.67717  0.88036  1.0000
  H   H9        1.0  0.18093  0.13452  0.49923  1.0000
  H   H10       1.0  0.86548  0.81906  0.00077  1.0000
  H   H11       1.0  0.81909  0.86548  0.50077  1.0000
  H   H12       1.0  0.13452  0.18092  0.99923  1.0000
  H   H13       1.0  0.50596  0.83671  0.43933  1.0000
  H   H14       1.0  0.16330  0.49406  0.06067  1.0000
  H   H15       1.0  0.49405  0.16329  0.56067  1.0000
  H   H16       1.0  0.83670  0.50594  0.93933  1.0000
  H   H17       1.0  0.11351  0.85598  0.41339  1.0000
  H   H18       1.0  0.14404  0.88652  0.08661  1.0000
  H   H19       1.0  0.88652  0.14402  0.58661  1.0000
  H   H20       1.0  0.85597  0.11348  0.91339  1.0000
  H   H21       1.0  0.20348  0.40711  0.20180  1.0000
  H   H22       1.0  0.59288  0.79650  0.29821  1.0000
  H   H23       1.0  0.79649  0.59288  0.79821  1.0000
  H   H24       1.0  0.40711  0.20350  0.70179  1.0000
  H   H25       1.0  0.91478  0.58481  0.18683  1.0000
  H   H26       1.0  0.41517  0.08520  0.31317  1.0000
  H   H27       1.0  0.08519  0.41518  0.81317  1.0000
  H   H28       1.0  0.58480  0.91480  0.68683  1.0000
  H   H29       1.0  0.23991  0.95460  0.26350  1.0000
  H   H30       1.0  0.04538  0.76007  0.23650  1.0000
  H   H31       1.0  0.76006  0.04540  0.73650  1.0000
  H   H32       1.0  0.95459  0.23993  0.76350  1.0000
  C   C1        1.0  0.94742  0.48343  0.32933  1.0000
  C   C2        1.0  0.51657  0.05260  0.17067  1.0000
  C   C3        1.0  0.05260  0.51657  0.67067  1.0000
  C   C4        1.0  0.48342  0.94742  0.82933  1.0000
  C   C5        1.0  0.87550  0.66894  0.36802  1.0000
  C   C6        1.0  0.33107  0.12453  0.13198  1.0000
  C   C7        1.0  0.12452  0.33107  0.63198  1.0000
  C   C8        1.0  0.66892  0.87548  0.86802  1.0000
  C   C9        1.0  0.12831  0.44667  0.42823  1.0000
  C   C10       1.0  0.55335  0.87172  0.07176  1.0000
  C   C11       1.0  0.87171  0.55335  0.57176  1.0000
  C   C12       1.0  0.44665  0.12828  0.92824  1.0000
  C   C13       1.0  0.32092  0.48064  0.46489  1.0000
  C   C14       1.0  0.51937  0.67908  0.03512  1.0000
  C   C15       1.0  0.67907  0.51935  0.53511  1.0000
  C   C16       1.0  0.48062  0.32090  0.96489  1.0000
  C   C17       1.0  0.32191  0.29416  0.49962  1.0000
  C   C18       1.0  0.70586  0.67810  0.00038  1.0000
  C   C19       1.0  0.67810  0.70586  0.50038  1.0000
  C   C20       1.0  0.29418  0.32192  0.99962  1.0000
  C   C21       1.0  0.50113  0.68768  0.46571  1.0000
  C   C22       1.0  0.31233  0.49890  0.03428  1.0000
  C   C23       1.0  0.49890  0.31232  0.53429  1.0000
  C   C24       1.0  0.68770  0.50109  0.96571  1.0000
  N   N1        1.0  0.07262  0.66725  0.40247  1.0000
  N   N2        1.0  0.33276  0.92741  0.09753  1.0000
  N   N3        1.0  0.92742  0.33275  0.59753  1.0000
  N   N4        1.0  0.66724  0.07257  0.90247  1.0000
  O   O1        1.0  0.01677  0.48669  0.21044  1.0000
  O   O2        1.0  0.51330  0.98321  0.28956  1.0000
  O   O3        1.0  0.98320  0.51331  0.78956  1.0000
  O   O4        1.0  0.48669  0.01679  0.71044  1.0000
  O   O5        1.0  0.75693  0.49789  0.29974  1.0000
  O   O6        1.0  0.50209  0.24308  0.20027  1.0000
  O   O7        1.0  0.24306  0.50211  0.70026  1.0000
  O   O8        1.0  0.49788  0.75693  0.79973  1.0000
  O   O9        1.0  0.16065  0.33722  0.32743  1.0000
  O   O10       1.0  0.66279  0.83938  0.17257  1.0000
  O   O11       1.0  0.83934  0.66281  0.67257  1.0000
  O   O12       1.0  0.33719  0.16067  0.82743  1.0000
  O   O13       1.0  0.05782  0.94216  0.25000  1.0000
  O   O14       1.0  0.94215  0.05784  0.75000  1.0000
  O   O15       1.0  0.02501  0.22634  0.42215  1.0000
  O   O16       1.0  0.77369  0.97502  0.07785  1.0000
  O   O17       1.0  0.97502  0.77368  0.57785  1.0000
  O   O18       1.0  0.22634  0.02496  0.92215  1.0000
