data_image0
_chemical_formula_structural       Ga2H22C16S2
_chemical_formula_sum              "Ga2 H22 C16 S2"
_cell_length_a       6.9051
_cell_length_b       7.10512
_cell_length_c       8.91057
_cell_angle_alpha    100.537
_cell_angle_beta     89.9953
_cell_angle_gamma    90.0002

_space_group_name_H-M_alt    "P 1"
_space_group_IT_number       1

loop_
  _space_group_symop_operation_xyz
  'x, y, z'

loop_
  _atom_site_type_symbol
  _atom_site_label
  _atom_site_symmetry_multiplicity
  _atom_site_fract_x
  _atom_site_fract_y
  _atom_site_fract_z
  _atom_site_occupancy
  Ga  Ga1       1.0  0.44138  0.50456  0.60733  1.0000
  Ga  Ga2       1.0  0.55861  0.00456  0.60732  1.0000
  H   H1        1.0  0.61883  0.65589  0.85241  1.0000
  H   H2        1.0  0.38113  0.15588  0.85242  1.0000
  H   H3        1.0  0.78745  0.52359  0.72223  1.0000
  H   H4        1.0  0.21253  0.02357  0.72225  1.0000
  H   H5        1.0  0.62902  0.40310  0.83070  1.0000
  H   H6        1.0  0.37095  0.90310  0.83070  1.0000
  H   H7        1.0  0.10023  0.40503  0.67338  1.0000
  H   H8        1.0  0.89975  0.90502  0.67338  1.0000
  H   H9        1.0  0.08803  0.55334  0.53255  1.0000
  H   H10       1.0  0.91198  0.05333  0.53255  1.0000
  H   H11       1.0  0.12670  0.65836  0.72795  1.0000
  H   H12       1.0  0.87326  0.15835  0.72794  1.0000
  H   H13       1.0  0.53984  0.50589  0.12650  1.0000
  H   H14       1.0  0.46017  0.00591  0.12649  1.0000
  H   H15       1.0  0.28348  0.48521  0.92793  1.0000
  H   H16       1.0  0.71655  0.98522  0.92790  1.0000
  H   H17       1.0  0.96839  0.65248  0.98813  1.0000
  H   H18       1.0  0.03165  0.15246  0.98808  1.0000
  H   H19       1.0  0.90968  0.83969  0.24905  1.0000
  H   H20       1.0  0.09033  0.33966  0.24898  1.0000
  H   H21       1.0  0.16386  0.85914  0.44747  1.0000
  H   H22       1.0  0.83615  0.35914  0.44742  1.0000
  C   C1        1.0  0.64072  0.52315  0.76910  1.0000
  C   C2        1.0  0.35925  0.02312  0.76911  1.0000
  C   C3        1.0  0.15914  0.53420  0.63876  1.0000
  C   C4        1.0  0.84084  0.03422  0.63876  1.0000
  C   C5        1.0  0.36777  0.68423  0.29943  1.0000
  C   C6        1.0  0.63222  0.18424  0.29940  1.0000
  C   C7        1.0  0.40146  0.57847  0.15272  1.0000
  C   C8        1.0  0.59856  0.07847  0.15269  1.0000
  C   C9        1.0  0.25725  0.56782  0.04164  1.0000
  C   C10       1.0  0.74277  0.06783  0.04161  1.0000
  C   C11       1.0  0.08061  0.66185  0.07528  1.0000
  C   C12       1.0  0.91941  0.16185  0.07523  1.0000
  C   C13       1.0  0.04732  0.76632  0.22161  1.0000
  C   C14       1.0  0.95271  0.26630  0.22156  1.0000
  C   C15       1.0  0.18992  0.77714  0.33367  1.0000
  C   C16       1.0  0.81008  0.27716  0.33363  1.0000
  S   S1        1.0  0.55878  0.69728  0.43478  1.0000
  S   S2        1.0  0.44124  0.19727  0.43477  1.0000
