data_image0
_chemical_formula_structural       Cu4H16C20N4Cl4
_chemical_formula_sum              "Cu4 H16 C20 N4 Cl4"
_cell_length_a       3.68663
_cell_length_b       11.2239
_cell_length_c       12.665
_cell_angle_alpha    89.9982
_cell_angle_beta     89.9987
_cell_angle_gamma    92.2236

_space_group_name_H-M_alt    "P 1"
_space_group_IT_number       1

loop_
  _space_group_symop_operation_xyz
  'x, y, z'

loop_
  _atom_site_type_symbol
  _atom_site_label
  _atom_site_symmetry_multiplicity
  _atom_site_fract_x
  _atom_site_fract_y
  _atom_site_fract_z
  _atom_site_occupancy
  Cu  Cu1       1.0  0.71175  0.94888  0.57126  1.0000
  Cu  Cu2       1.0  0.28831  0.55116  0.07128  1.0000
  Cu  Cu3       1.0  0.28825  0.05113  0.42872  1.0000
  Cu  Cu4       1.0  0.71168  0.44884  0.92873  1.0000
  H   H1        1.0  0.87937  0.13914  0.72607  1.0000
  H   H2        1.0  0.12067  0.36089  0.22608  1.0000
  H   H3        1.0  0.12063  0.86086  0.27392  1.0000
  H   H4        1.0  0.87934  0.63911  0.77393  1.0000
  H   H5        1.0  0.80062  0.16802  0.91781  1.0000
  H   H6        1.0  0.19939  0.33198  0.41782  1.0000
  H   H7        1.0  0.19937  0.83197  0.08219  1.0000
  H   H8        1.0  0.80066  0.66802  0.58219  1.0000
  H   H9        1.0  0.26376  0.81678  0.92652  1.0000
  H   H10       1.0  0.73620  0.68323  0.42654  1.0000
  H   H11       1.0  0.73620  0.18321  0.07346  1.0000
  H   H12       1.0  0.26380  0.31678  0.57347  1.0000
  H   H13       1.0  0.36518  0.80484  0.73520  1.0000
  H   H14       1.0  0.63483  0.69519  0.23522  1.0000
  H   H15       1.0  0.63482  0.19516  0.26478  1.0000
  H   H16       1.0  0.36514  0.30481  0.76479  1.0000
  C   C1        1.0  0.74480  0.07012  0.77435  1.0000
  C   C2        1.0  0.25523  0.42989  0.27436  1.0000
  C   C3        1.0  0.25519  0.92987  0.22565  1.0000
  C   C4        1.0  0.74478  0.57011  0.72566  1.0000
  C   C5        1.0  0.69782  0.08518  0.88206  1.0000
  C   C6        1.0  0.30221  0.41484  0.38207  1.0000
  C   C7        1.0  0.30219  0.91482  0.11793  1.0000
  C   C8        1.0  0.69782  0.58517  0.61795  1.0000
  C   C9        1.0  0.52557  0.99413  0.94255  1.0000
  C   C10       1.0  0.47443  0.50587  0.44257  1.0000
  C   C11       1.0  0.47439  0.00585  0.05744  1.0000
  C   C12       1.0  0.52559  0.49414  0.55745  1.0000
  C   C13       1.0  0.40419  0.89146  0.88722  1.0000
  C   C14       1.0  0.59582  0.60856  0.38724  1.0000
  C   C15       1.0  0.59581  0.10854  0.11276  1.0000
  C   C16       1.0  0.40419  0.39145  0.61277  1.0000
  C   C17       1.0  0.45995  0.88346  0.77936  1.0000
  C   C18       1.0  0.54006  0.61656  0.27939  1.0000
  C   C19       1.0  0.54005  0.11653  0.22062  1.0000
  C   C20       1.0  0.45992  0.38344  0.72063  1.0000
  N   N1        1.0  0.63054  0.97053  0.72202  1.0000
  N   N2        1.0  0.36950  0.52951  0.22203  1.0000
  N   N3        1.0  0.36948  0.02949  0.27797  1.0000
  N   N4        1.0  0.63050  0.47049  0.77798  1.0000
  Cl  Cl1       1.0  0.81599  0.15261  0.50091  1.0000
  Cl  Cl2       1.0  0.18394  0.34740  0.00096  1.0000
  Cl  Cl3       1.0  0.18401  0.84740  0.49907  1.0000
  Cl  Cl4       1.0  0.81605  0.65260  0.99905  1.0000
