data_image0
_chemical_formula_structural       Ni2P4H56C36S8N4O8
_chemical_formula_sum              "Ni2 P4 H56 C36 S8 N4 O8"
_cell_length_a       11.1893
_cell_length_b       11.1893
_cell_length_c       12.8302
_cell_angle_alpha    70.5382
_cell_angle_beta     70.5383
_cell_angle_gamma    63.5551

_space_group_name_H-M_alt    "P 1"
_space_group_IT_number       1

loop_
  _space_group_symop_operation_xyz
  'x, y, z'

loop_
  _atom_site_type_symbol
  _atom_site_label
  _atom_site_symmetry_multiplicity
  _atom_site_fract_x
  _atom_site_fract_y
  _atom_site_fract_z
  _atom_site_occupancy
  Ni  Ni1       1.0  0.00000  0.50000  1.00000  1.0000
  Ni  Ni2       1.0  0.50000  0.00000  0.50000  1.0000
  P   P1        1.0  0.78482  0.68751  0.88019  1.0000
  P   P2        1.0  0.31249  0.21518  0.61981  1.0000
  P   P3        1.0  0.21518  0.31249  0.11981  1.0000
  P   P4        1.0  0.68751  0.78482  0.38019  1.0000
  H   H1        1.0  0.13721  0.30561  0.84934  1.0000
  H   H2        1.0  0.69438  0.86279  0.65066  1.0000
  H   H3        1.0  0.86279  0.69438  0.15066  1.0000
  H   H4        1.0  0.30561  0.13721  0.34934  1.0000
  H   H5        1.0  0.15012  0.08408  0.84281  1.0000
  H   H6        1.0  0.91592  0.84988  0.65719  1.0000
  H   H7        1.0  0.84988  0.91592  0.15719  1.0000
  H   H8        1.0  0.08408  0.15012  0.34280  1.0000
  H   H9        1.0  0.84214  0.09597  0.15698  1.0000
  H   H10       1.0  0.90403  0.15786  0.34302  1.0000
  H   H11       1.0  0.15786  0.90403  0.84302  1.0000
  H   H12       1.0  0.09597  0.84214  0.65698  1.0000
  H   H13       1.0  0.84537  0.31845  0.14961  1.0000
  H   H14       1.0  0.68154  0.15463  0.35039  1.0000
  H   H15       1.0  0.15463  0.68154  0.85039  1.0000
  H   H16       1.0  0.31845  0.84538  0.64961  1.0000
  H   H17       1.0  0.67497  0.56427  0.75292  1.0000
  H   H18       1.0  0.43573  0.32503  0.74708  1.0000
  H   H19       1.0  0.32503  0.43573  0.24708  1.0000
  H   H20       1.0  0.56426  0.67497  0.25292  1.0000
  H   H21       1.0  0.67514  0.51060  0.90105  1.0000
  H   H22       1.0  0.48940  0.32486  0.59895  1.0000
  H   H23       1.0  0.32486  0.48940  0.09895  1.0000
  H   H24       1.0  0.51060  0.67514  0.40105  1.0000
  H   H25       1.0  0.43209  0.73138  0.79779  1.0000
  H   H26       1.0  0.26862  0.56791  0.70221  1.0000
  H   H27       1.0  0.56791  0.26862  0.20221  1.0000
  H   H28       1.0  0.73138  0.43209  0.29779  1.0000
  H   H29       1.0  0.44452  0.56046  0.86901  1.0000
  H   H30       1.0  0.43954  0.55548  0.63099  1.0000
  H   H31       1.0  0.55548  0.43954  0.13099  1.0000
  H   H32       1.0  0.56046  0.44452  0.36901  1.0000
  H   H33       1.0  0.43257  0.67438  0.94481  1.0000
  H   H34       1.0  0.32562  0.56743  0.55519  1.0000
  H   H35       1.0  0.56743  0.32562  0.05519  1.0000
  H   H36       1.0  0.67438  0.43257  0.44481  1.0000
  H   H37       1.0  0.56097  0.95270  0.88185  1.0000
  H   H38       1.0  0.04730  0.43903  0.61815  1.0000
  H   H39       1.0  0.43903  0.04730  0.11815  1.0000
  H   H40       1.0  0.95270  0.56097  0.38185  1.0000
  H   H41       1.0  0.63719  0.91013  0.99906  1.0000
  H   H42       1.0  0.08987  0.36281  0.50094  1.0000
  H   H43       1.0  0.36281  0.08987  0.00094  1.0000
  H   H44       1.0  0.91013  0.63719  0.49906  1.0000
  H   H45       1.0  0.68405  0.11147  0.77128  1.0000
  H   H46       1.0  0.88853  0.31594  0.72872  1.0000
  H   H47       1.0  0.31594  0.88853  0.22872  1.0000
  H   H48       1.0  0.11147  0.68406  0.27128  1.0000
  H   H49       1.0  0.75997  0.07097  0.88730  1.0000
  H   H50       1.0  0.92903  0.24003  0.61270  1.0000
  H   H51       1.0  0.24003  0.92903  0.11270  1.0000
  H   H52       1.0  0.07097  0.75997  0.38730  1.0000
  H   H53       1.0  0.57947  0.15890  0.90148  1.0000
  H   H54       1.0  0.84110  0.42053  0.59852  1.0000
  H   H55       1.0  0.42053  0.84110  0.09852  1.0000
  H   H56       1.0  0.15890  0.57947  0.40148  1.0000
  C   C1        1.0  0.07367  0.25570  0.91618  1.0000
  C   C2        1.0  0.74429  0.92634  0.58382  1.0000
  C   C3        1.0  0.92634  0.74429  0.08382  1.0000
  C   C4        1.0  0.25570  0.07367  0.41618  1.0000
  C   C5        1.0  0.07986  0.13019  0.91354  1.0000
  C   C6        1.0  0.86981  0.92014  0.58646  1.0000
  C   C7        1.0  0.92014  0.86981  0.08646  1.0000
  C   C8        1.0  0.13019  0.07987  0.41353  1.0000
  C   C9        1.0  0.99745  0.06691  0.00022  1.0000
  C   C10       1.0  0.93309  0.00256  0.49978  1.0000
  C   C11       1.0  0.00256  0.93308  0.99978  1.0000
  C   C12       1.0  0.06691  0.99745  0.50022  1.0000
  C   C13       1.0  0.91031  0.13730  0.08666  1.0000
  C   C14       1.0  0.86269  0.08969  0.41334  1.0000
  C   C15       1.0  0.08969  0.86269  0.91334  1.0000
  C   C16       1.0  0.13731  0.91031  0.58666  1.0000
  C   C17       1.0  0.91097  0.26221  0.08341  1.0000
  C   C18       1.0  0.73778  0.08904  0.41659  1.0000
  C   C19       1.0  0.08904  0.73778  0.91659  1.0000
  C   C20       1.0  0.26221  0.91097  0.58341  1.0000
  C   C21       1.0  0.62975  0.59569  0.83441  1.0000
  C   C22       1.0  0.40431  0.37025  0.66559  1.0000
  C   C23       1.0  0.37025  0.40431  0.16559  1.0000
  C   C24       1.0  0.59569  0.62975  0.33441  1.0000
  C   C25       1.0  0.47560  0.64325  0.86320  1.0000
  C   C26       1.0  0.35675  0.52440  0.63680  1.0000
  C   C27       1.0  0.52440  0.35675  0.13680  1.0000
  C   C28       1.0  0.64324  0.47560  0.36320  1.0000
  C   C29       1.0  0.64969  0.94516  0.90648  1.0000
  C   C30       1.0  0.05484  0.35031  0.59352  1.0000
  C   C31       1.0  0.35031  0.05483  0.09352  1.0000
  C   C32       1.0  0.94516  0.64969  0.40648  1.0000
  C   C33       1.0  0.67019  0.07948  0.86387  1.0000
  C   C34       1.0  0.92052  0.32981  0.63613  1.0000
  C   C35       1.0  0.32981  0.92052  0.13613  1.0000
  C   C36       1.0  0.07948  0.67019  0.36387  1.0000
  S   S1        1.0  0.97215  0.58681  0.80021  1.0000
  S   S2        1.0  0.41319  0.02785  0.69979  1.0000
  S   S3        1.0  0.02785  0.41319  0.19979  1.0000
  S   S4        1.0  0.58681  0.97215  0.30021  1.0000
  S   S5        1.0  0.74622  0.60274  0.04481  1.0000
  S   S6        1.0  0.39726  0.25379  0.45519  1.0000
  S   S7        1.0  0.25379  0.39726  0.95519  1.0000
  S   S8        1.0  0.60274  0.74622  0.54481  1.0000
  N   N1        1.0  0.99146  0.32130  0.00005  1.0000
  N   N2        1.0  0.67870  0.00854  0.49995  1.0000
  N   N3        1.0  0.00854  0.67870  0.99995  1.0000
  N   N4        1.0  0.32130  0.99146  0.50005  1.0000
  O   O1        1.0  0.66596  0.71025  0.82284  1.0000
  O   O2        1.0  0.28975  0.33404  0.67716  1.0000
  O   O3        1.0  0.33404  0.28975  0.17716  1.0000
  O   O4        1.0  0.71025  0.66596  0.32284  1.0000
  O   O5        1.0  0.77166  0.84282  0.85479  1.0000
  O   O6        1.0  0.15718  0.22834  0.64521  1.0000
  O   O7        1.0  0.22834  0.15718  0.14521  1.0000
  O   O8        1.0  0.84281  0.77166  0.35479  1.0000
