data_image0
_chemical_formula_structural       Cd2H46C64S4N16O12
_chemical_formula_sum              "Cd2 H46 C64 S4 N16 O12"
_cell_length_a       10.7773
_cell_length_b       12.5366
_cell_length_c       15.766
_cell_angle_alpha    111.799
_cell_angle_beta     98.2929
_cell_angle_gamma    106.028

_space_group_name_H-M_alt    "P 1"
_space_group_IT_number       1

loop_
  _space_group_symop_operation_xyz
  'x, y, z'

loop_
  _atom_site_type_symbol
  _atom_site_label
  _atom_site_symmetry_multiplicity
  _atom_site_fract_x
  _atom_site_fract_y
  _atom_site_fract_z
  _atom_site_occupancy
  Cd  Cd1       1.0  0.69033  0.53497  0.71584  1.0000
  Cd  Cd2       1.0  0.30967  0.46503  0.28416  1.0000
  H   H1        1.0  0.55241  0.65166  0.59499  1.0000
  H   H2        1.0  0.44759  0.34835  0.40501  1.0000
  H   H3        1.0  0.61298  0.79342  0.51661  1.0000
  H   H4        1.0  0.38702  0.20658  0.48339  1.0000
  H   H5        1.0  0.02878  0.84133  0.61745  1.0000
  H   H6        1.0  0.97122  0.15867  0.38255  1.0000
  H   H7        1.0  0.95250  0.69640  0.68807  1.0000
  H   H8        1.0  0.04750  0.30360  0.31193  1.0000
  H   H9        1.0  0.78631  0.92621  0.47425  1.0000
  H   H10       1.0  0.21369  0.07378  0.52576  1.0000
  H   H11       1.0  0.61598  0.24420  0.63036  1.0000
  H   H12       1.0  0.38402  0.75580  0.36964  1.0000
  H   H13       1.0  0.61213  0.06093  0.49051  1.0000
  H   H14       1.0  0.38787  0.93907  0.50950  1.0000
  H   H15       1.0  0.76649  0.30590  0.36567  1.0000
  H   H16       1.0  0.23351  0.69410  0.63433  1.0000
  H   H17       1.0  0.75970  0.47782  0.50850  1.0000
  H   H18       1.0  0.24031  0.52218  0.49150  1.0000
  H   H19       1.0  0.62522  0.97034  0.32181  1.0000
  H   H20       1.0  0.37478  0.02966  0.67819  1.0000
  H   H21       1.0  0.79936  0.09035  0.13320  1.0000
  H   H22       1.0  0.20064  0.90964  0.86679  1.0000
  H   H23       1.0  0.59760  0.75122  0.05751  1.0000
  H   H24       1.0  0.40240  0.24877  0.94249  1.0000
  H   H25       1.0  0.56319  0.58789  0.89486  1.0000
  H   H26       1.0  0.43681  0.41211  0.10514  1.0000
  H   H27       1.0  0.82680  0.83454  0.82803  1.0000
  H   H28       1.0  0.17320  0.16545  0.17197  1.0000
  H   H29       1.0  0.86335  0.01073  0.98412  1.0000
  H   H30       1.0  0.13665  0.98926  0.01588  1.0000
  H   H31       1.0  0.12047  0.45930  0.60278  1.0000
  H   H32       1.0  0.87953  0.54070  0.39722  1.0000
  H   H33       1.0  0.91065  0.32391  0.61396  1.0000
  H   H34       1.0  0.08935  0.67609  0.38604  1.0000
  H   H35       1.0  0.91969  0.18318  0.68810  1.0000
  H   H36       1.0  0.08031  0.81681  0.31190  1.0000
  H   H37       1.0  0.14071  0.17036  0.75135  1.0000
  H   H38       1.0  0.85929  0.82964  0.24865  1.0000
  H   H39       1.0  0.92062  0.29136  0.89710  1.0000
  H   H40       1.0  0.07937  0.70864  0.10290  1.0000
  H   H41       1.0  0.14774  0.32516  0.98979  1.0000
  H   H42       1.0  0.85226  0.67485  0.01021  1.0000
  H   H43       1.0  0.34625  0.50555  0.01784  1.0000
  H   H44       1.0  0.65375  0.49446  0.98216  1.0000
  H   H45       1.0  0.32111  0.65595  0.95503  1.0000
  H   H46       1.0  0.67889  0.34406  0.04497  1.0000
  C   C1        1.0  0.65631  0.69627  0.59773  1.0000
  C   C2        1.0  0.34369  0.30373  0.40228  1.0000
  C   C3        1.0  0.69114  0.77565  0.55533  1.0000
  C   C4        1.0  0.30885  0.22434  0.44467  1.0000
  C   C5        1.0  0.82664  0.82990  0.56145  1.0000
  C   C6        1.0  0.17336  0.17009  0.43855  1.0000
  C   C7        1.0  0.92248  0.80145  0.61073  1.0000
  C   C8        1.0  0.07752  0.19855  0.38927  1.0000
  C   C9        1.0  0.87987  0.72106  0.65052  1.0000
  C   C10       1.0  0.12012  0.27893  0.34948  1.0000
  C   C11       1.0  0.86527  0.91142  0.51609  1.0000
  C   C12       1.0  0.13473  0.08858  0.48391  1.0000
  C   C13       1.0  0.64837  0.25348  0.57024  1.0000
  C   C14       1.0  0.35163  0.74652  0.42976  1.0000
  C   C15       1.0  0.64708  0.15252  0.49261  1.0000
  C   C16       1.0  0.35292  0.84748  0.50739  1.0000
  C   C17       1.0  0.69134  0.16939  0.41737  1.0000
  C   C18       1.0  0.30866  0.83061  0.58263  1.0000
  C   C19       1.0  0.73530  0.28935  0.42384  1.0000
  C   C20       1.0  0.26470  0.71065  0.57616  1.0000
  C   C21       1.0  0.73158  0.38476  0.50328  1.0000
  C   C22       1.0  0.26842  0.61524  0.49672  1.0000
  C   C23       1.0  0.68545  0.06367  0.33373  1.0000
  C   C24       1.0  0.31455  0.93633  0.66627  1.0000
  C   C25       1.0  0.75761  0.99558  0.12537  1.0000
  C   C26       1.0  0.24239  0.00442  0.87463  1.0000
  C   C27       1.0  0.73433  0.89421  0.03349  1.0000
  C   C28       1.0  0.26567  0.10579  0.96651  1.0000
  C   C29       1.0  0.64819  0.77338  0.00776  1.0000
  C   C30       1.0  0.35181  0.22661  0.99224  1.0000
  C   C31       1.0  0.62971  0.68275  0.91805  1.0000
  C   C32       1.0  0.37028  0.31724  0.08195  1.0000
  C   C33       1.0  0.77599  0.82035  0.88010  1.0000
  C   C34       1.0  0.22401  0.17965  0.11990  1.0000
  C   C35       1.0  0.79762  0.91770  0.96708  1.0000
  C   C36       1.0  0.20238  0.08229  0.03291  1.0000
  C   C37       1.0  0.38278  0.45843  0.66942  1.0000
  C   C38       1.0  0.61722  0.54157  0.33058  1.0000
  C   C39       1.0  0.24580  0.38867  0.66928  1.0000
  C   C40       1.0  0.75420  0.61133  0.33072  1.0000
  C   C41       1.0  0.12375  0.39523  0.63368  1.0000
  C   C42       1.0  0.87625  0.60477  0.36632  1.0000
  C   C43       1.0  0.00706  0.31943  0.64048  1.0000
  C   C44       1.0  0.99294  0.68056  0.35952  1.0000
  C   C45       1.0  0.01252  0.23983  0.68278  1.0000
  C   C46       1.0  0.98748  0.76017  0.31722  1.0000
  C   C47       1.0  0.13486  0.23256  0.71888  1.0000
  C   C48       1.0  0.86514  0.76744  0.28112  1.0000
  C   C49       1.0  0.24912  0.30796  0.71052  1.0000
  C   C50       1.0  0.75088  0.69204  0.28949  1.0000
  C   C51       1.0  0.87093  0.45165  0.81717  1.0000
  C   C52       1.0  0.12907  0.54835  0.18283  1.0000
  C   C53       1.0  0.99527  0.45330  0.87386  1.0000
  C   C54       1.0  0.00474  0.54670  0.12615  1.0000
  C   C55       1.0  0.00852  0.36923  0.90895  1.0000
  C   C56       1.0  0.99148  0.63078  0.09105  1.0000
  C   C57       1.0  0.13604  0.38907  0.96054  1.0000
  C   C58       1.0  0.86396  0.61093  0.03946  1.0000
  C   C59       1.0  0.24791  0.49042  0.97633  1.0000
  C   C60       1.0  0.75209  0.50958  0.02367  1.0000
  C   C61       1.0  0.23477  0.57592  0.94175  1.0000
  C   C62       1.0  0.76523  0.42409  0.05825  1.0000
  C   C63       1.0  0.10711  0.55497  0.89123  1.0000
  C   C64       1.0  0.89289  0.44504  0.10877  1.0000
  S   S1        1.0  0.41858  0.32065  0.74551  1.0000
  S   S2        1.0  0.58142  0.67935  0.25449  1.0000
  S   S3        1.0  0.05138  0.64599  0.84221  1.0000
  S   S4        1.0  0.94862  0.35401  0.15779  1.0000
  N   N1        1.0  0.74891  0.66916  0.64445  1.0000
  N   N2        1.0  0.25109  0.33084  0.35555  1.0000
  N   N3        1.0  0.99089  0.96353  0.52412  1.0000
  N   N4        1.0  0.00910  0.03647  0.47588  1.0000
  N   N5        1.0  0.68891  0.36806  0.57523  1.0000
  N   N6        1.0  0.31109  0.63194  0.42477  1.0000
  N   N7        1.0  0.74962  0.08183  0.27410  1.0000
  N   N8        1.0  0.25038  0.91817  0.72590  1.0000
  N   N9        1.0  0.72766  0.97386  0.19546  1.0000
  N   N10       1.0  0.27234  0.02614  0.80454  1.0000
  N   N11       1.0  0.69326  0.70502  0.85535  1.0000
  N   N12       1.0  0.30674  0.29497  0.14465  1.0000
  N   N13       1.0  0.48025  0.42858  0.71115  1.0000
  N   N14       1.0  0.51974  0.57142  0.28885  1.0000
  N   N15       1.0  0.89430  0.55179  0.79710  1.0000
  N   N16       1.0  0.10570  0.44821  0.20290  1.0000
  O   O1        1.0  0.40700  0.53415  0.63508  1.0000
  O   O2        1.0  0.59300  0.46585  0.36491  1.0000
  O   O3        1.0  0.46584  0.36572  0.84773  1.0000
  O   O4        1.0  0.53416  0.63428  0.15227  1.0000
  O   O5        1.0  0.43479  0.20725  0.68652  1.0000
  O   O6        1.0  0.56521  0.79275  0.31348  1.0000
  O   O7        1.0  0.75805  0.36997  0.78945  1.0000
  O   O8        1.0  0.24195  0.63003  0.21055  1.0000
  O   O9        1.0  0.11246  0.65536  0.76751  1.0000
  O   O10       1.0  0.88755  0.34464  0.23249  1.0000
  O   O11       1.0  0.06372  0.76280  0.91747  1.0000
  O   O12       1.0  0.93629  0.23721  0.08253  1.0000
