data_image0
_chemical_formula_structural       Co2H32C24N4Cl4O8
_chemical_formula_sum              "Co2 H32 C24 N4 Cl4 O8"
_cell_length_a       4.94386
_cell_length_b       10.3932
_cell_length_c       14.8444
_cell_angle_alpha    106.227
_cell_angle_beta     89.9993
_cell_angle_gamma    89.9992

_space_group_name_H-M_alt    "P 1"
_space_group_IT_number       1

loop_
  _space_group_symop_operation_xyz
  'x, y, z'

loop_
  _atom_site_type_symbol
  _atom_site_label
  _atom_site_symmetry_multiplicity
  _atom_site_fract_x
  _atom_site_fract_y
  _atom_site_fract_z
  _atom_site_occupancy
  Co  Co1       1.0  0.50000  0.50000  1.00000  1.0000
  Co  Co2       1.0  0.00000  0.00000  0.50000  1.0000
  H   H1        1.0  0.91703  0.34030  0.98808  1.0000
  H   H2        1.0  0.41702  0.15971  0.51192  1.0000
  H   H3        1.0  0.08297  0.65970  0.01192  1.0000
  H   H4        1.0  0.58299  0.84029  0.48808  1.0000
  H   H5        1.0  0.95110  0.40690  0.90835  1.0000
  H   H6        1.0  0.45107  0.09312  0.59166  1.0000
  H   H7        1.0  0.04890  0.59310  0.09165  1.0000
  H   H8        1.0  0.54893  0.90688  0.40834  1.0000
  H   H9        1.0  0.63044  0.30516  0.77697  1.0000
  H   H10       1.0  0.13044  0.19484  0.72302  1.0000
  H   H11       1.0  0.36956  0.69484  0.22303  1.0000
  H   H12       1.0  0.86957  0.80516  0.27698  1.0000
  H   H13       1.0  0.79179  0.33569  0.62212  1.0000
  H   H14       1.0  0.29177  0.16430  0.87787  1.0000
  H   H15       1.0  0.20822  0.66431  0.37788  1.0000
  H   H16       1.0  0.70823  0.83569  0.12213  1.0000
  H   H17       1.0  0.22091  0.66165  0.66270  1.0000
  H   H18       1.0  0.72091  0.83836  0.83730  1.0000
  H   H19       1.0  0.77909  0.33836  0.33730  1.0000
  H   H20       1.0  0.27908  0.16164  0.16269  1.0000
  H   H21       1.0  0.07735  0.61267  0.81463  1.0000
  H   H22       1.0  0.57733  0.88733  0.68537  1.0000
  H   H23       1.0  0.92265  0.38733  0.18537  1.0000
  H   H24       1.0  0.42267  0.11266  0.31463  1.0000
  H   H25       1.0  0.79716  0.46952  0.51550  1.0000
  H   H26       1.0  0.29716  0.03048  0.98449  1.0000
  H   H27       1.0  0.20284  0.53048  0.48450  1.0000
  H   H28       1.0  0.70284  0.96952  0.01551  1.0000
  H   H29       1.0  0.64625  0.63178  0.54738  1.0000
  H   H30       1.0  0.14624  0.86822  0.95261  1.0000
  H   H31       1.0  0.35375  0.36822  0.45262  1.0000
  H   H32       1.0  0.85375  0.13178  0.04739  1.0000
  C   C1        1.0  0.55107  0.38083  0.74630  1.0000
  C   C2        1.0  0.05103  0.11918  0.75371  1.0000
  C   C3        1.0  0.44894  0.61917  0.25370  1.0000
  C   C4        1.0  0.94896  0.88082  0.24629  1.0000
  C   C5        1.0  0.63798  0.40197  0.66310  1.0000
  C   C6        1.0  0.13797  0.09803  0.83690  1.0000
  C   C7        1.0  0.36203  0.59803  0.33690  1.0000
  C   C8        1.0  0.86203  0.90197  0.16310  1.0000
  C   C9        1.0  0.52198  0.50332  0.63021  1.0000
  C   C10       1.0  0.02199  0.99667  0.86978  1.0000
  C   C11       1.0  0.47802  0.49668  0.36979  1.0000
  C   C12       1.0  0.97801  0.00333  0.13022  1.0000
  C   C13       1.0  0.31720  0.58105  0.68506  1.0000
  C   C14       1.0  0.81720  0.91895  0.81494  1.0000
  C   C15       1.0  0.68280  0.41895  0.31494  1.0000
  C   C16       1.0  0.18280  0.08105  0.18506  1.0000
  C   C17       1.0  0.23474  0.55750  0.76808  1.0000
  C   C18       1.0  0.73471  0.94252  0.73193  1.0000
  C   C19       1.0  0.76526  0.44250  0.23192  1.0000
  C   C20       1.0  0.26529  0.05748  0.26807  1.0000
  C   C21       1.0  0.60861  0.52460  0.53849  1.0000
  C   C22       1.0  0.10861  0.97540  0.96151  1.0000
  C   C23       1.0  0.39139  0.47540  0.46151  1.0000
  C   C24       1.0  0.89138  0.02460  0.03849  1.0000
  N   N1        1.0  0.35139  0.45750  0.79685  1.0000
  N   N2        1.0  0.85136  0.04252  0.70315  1.0000
  N   N3        1.0  0.64861  0.54250  0.20315  1.0000
  N   N4        1.0  0.14864  0.95748  0.29685  1.0000
  Cl  Cl1       1.0  0.29351  0.32611  0.06083  1.0000
  Cl  Cl2       1.0  0.79352  0.17388  0.43917  1.0000
  Cl  Cl3       1.0  0.70649  0.67389  0.93917  1.0000
  Cl  Cl4       1.0  0.20648  0.82612  0.56083  1.0000
  O   O1        1.0  0.80819  0.36840  0.94067  1.0000
  O   O2        1.0  0.30817  0.13160  0.55933  1.0000
  O   O3        1.0  0.19181  0.63160  0.05933  1.0000
  O   O4        1.0  0.69183  0.86840  0.44067  1.0000
  O   O5        1.0  0.27171  0.43457  0.87713  1.0000
  O   O6        1.0  0.77173  0.06544  0.62286  1.0000
  O   O7        1.0  0.72829  0.56543  0.12287  1.0000
  O   O8        1.0  0.22828  0.93456  0.37714  1.0000
