data_image0
_chemical_formula_structural       Zn2H24C34N24O2
_chemical_formula_sum              "Zn2 H24 C34 N24 O2"
_cell_length_a       7.68166
_cell_length_b       11.0571
_cell_length_c       12.0386
_cell_angle_alpha    114.928
_cell_angle_beta     90
_cell_angle_gamma    89.9999

_space_group_name_H-M_alt    "P 1"
_space_group_IT_number       1

loop_
  _space_group_symop_operation_xyz
  'x, y, z'

loop_
  _atom_site_type_symbol
  _atom_site_label
  _atom_site_symmetry_multiplicity
  _atom_site_fract_x
  _atom_site_fract_y
  _atom_site_fract_z
  _atom_site_occupancy
  Zn  Zn1       1.0  0.65489  0.85522  0.09122  1.0000
  Zn  Zn2       1.0  0.15489  0.14478  0.90878  1.0000
  H   H1        1.0  0.40774  0.10651  0.52629  1.0000
  H   H2        1.0  0.90775  0.89349  0.47371  1.0000
  H   H3        1.0  0.43213  0.91740  0.58820  1.0000
  H   H4        1.0  0.93213  0.08260  0.41180  1.0000
  H   H5        1.0  0.57669  0.70567  0.44399  1.0000
  H   H6        1.0  0.07670  0.29433  0.55601  1.0000
  H   H7        1.0  0.69717  0.69350  0.24610  1.0000
  H   H8        1.0  0.19717  0.30650  0.75391  1.0000
  H   H9        1.0  0.29743  0.45592  0.49321  1.0000
  H   H10       1.0  0.79743  0.54408  0.50679  1.0000
  H   H11       1.0  0.32464  0.59544  0.72091  1.0000
  H   H12       1.0  0.82464  0.40456  0.27909  1.0000
  H   H13       1.0  0.55324  0.53431  0.83620  1.0000
  H   H14       1.0  0.05324  0.46569  0.16380  1.0000
  H   H15       1.0  0.74649  0.33774  0.72071  1.0000
  H   H16       1.0  0.24649  0.66225  0.27929  1.0000
  H   H17       1.0  0.16977  0.69630  0.05817  1.0000
  H   H18       1.0  0.66977  0.30370  0.94182  1.0000
  H   H19       1.0  0.22923  0.83882  0.03270  1.0000
  H   H20       1.0  0.72923  0.16118  0.96729  1.0000
  H   H21       1.0  0.25713  0.84146  0.18090  1.0000
  H   H22       1.0  0.75713  0.15854  0.81910  1.0000
  H   H23       1.0  0.44494  0.63949  0.05616  1.0000
  H   H24       1.0  0.94493  0.36051  0.94384  1.0000
  C   C1        1.0  0.47132  0.01805  0.97930  1.0000
  C   C2        1.0  0.97132  0.98195  0.02070  1.0000
  C   C3        1.0  0.40844  0.33222  0.10903  1.0000
  C   C4        1.0  0.90844  0.66778  0.89096  1.0000
  C   C5        1.0  0.46673  0.10564  0.11038  1.0000
  C   C6        1.0  0.96673  0.89436  0.88962  1.0000
  C   C7        1.0  0.43859  0.24486  0.17078  1.0000
  C   C8        1.0  0.93859  0.75514  0.82922  1.0000
  C   C9        1.0  0.48702  0.23812  0.35960  1.0000
  C   C10       1.0  0.98702  0.76188  0.64040  1.0000
  C   C11       1.0  0.51138  0.09761  0.30049  1.0000
  C   C12       1.0  0.01139  0.90239  0.69951  1.0000
  C   C13       1.0  0.53938  0.99961  0.35402  1.0000
  C   C14       1.0  0.03938  0.00039  0.64599  1.0000
  C   C15       1.0  0.47286  0.01464  0.46721  1.0000
  C   C16       1.0  0.97287  0.98536  0.53279  1.0000
  C   C17       1.0  0.48558  0.90904  0.50130  1.0000
  C   C18       1.0  0.98559  0.09096  0.49871  1.0000
  C   C19       1.0  0.56701  0.79141  0.42205  1.0000
  C   C20       1.0  0.06702  0.20859  0.57796  1.0000
  C   C21       1.0  0.63360  0.78370  0.31162  1.0000
  C   C22       1.0  0.13361  0.21630  0.68838  1.0000
  C   C23       1.0  0.50228  0.32169  0.49293  1.0000
  C   C24       1.0  0.00228  0.67831  0.50708  1.0000
  C   C25       1.0  0.39278  0.43277  0.54845  1.0000
  C   C26       1.0  0.89278  0.56723  0.45155  1.0000
  C   C27       1.0  0.40942  0.51004  0.67391  1.0000
  C   C28       1.0  0.90942  0.48996  0.32609  1.0000
  C   C29       1.0  0.53683  0.47586  0.73817  1.0000
  C   C30       1.0  0.03683  0.52414  0.26183  1.0000
  C   C31       1.0  0.64252  0.36528  0.67402  1.0000
  C   C32       1.0  0.14252  0.63472  0.32598  1.0000
  C   C33       1.0  0.26381  0.77805  0.08159  1.0000
  C   C34       1.0  0.76381  0.22195  0.91841  1.0000
  N   N1        1.0  0.56920  0.90656  0.93885  1.0000
  N   N2        1.0  0.06919  0.09344  0.06115  1.0000
  N   N3        1.0  0.54127  0.84356  0.81761  1.0000
  N   N4        1.0  0.04127  0.15644  0.18239  1.0000
  N   N5        1.0  0.42849  0.91307  0.78539  1.0000
  N   N6        1.0  0.92849  0.08694  0.21461  1.0000
  N   N7        1.0  0.38255  0.02335  0.88539  1.0000
  N   N8        1.0  0.88255  0.97665  0.11461  1.0000
  N   N9        1.0  0.31140  0.30392  0.00720  1.0000
  N   N10       1.0  0.81140  0.69608  0.99280  1.0000
  N   N11       1.0  0.32157  0.41019  0.98157  1.0000
  N   N12       1.0  0.82158  0.58982  0.01843  1.0000
  N   N13       1.0  0.42319  0.49861  0.06532  1.0000
  N   N14       1.0  0.92319  0.50139  0.93468  1.0000
  N   N15       1.0  0.47899  0.45454  0.14692  1.0000
  N   N16       1.0  0.97898  0.54546  0.85308  1.0000
  N   N17       1.0  0.50337  0.03904  0.17824  1.0000
  N   N18       1.0  0.00337  0.96096  0.82176  1.0000
  N   N19       1.0  0.45164  0.30632  0.29298  1.0000
  N   N20       1.0  0.95163  0.69368  0.70701  1.0000
  N   N21       1.0  0.61908  0.88491  0.27810  1.0000
  N   N22       1.0  0.11909  0.11509  0.72190  1.0000
  N   N23       1.0  0.62581  0.28804  0.55405  1.0000
  N   N24       1.0  0.12581  0.71196  0.44595  1.0000
  O   O1        1.0  0.43414  0.72512  0.04350  1.0000
  O   O2        1.0  0.93414  0.27488  0.95649  1.0000
