data_image0
_chemical_formula_structural       Zn4H32C64N48
_chemical_formula_sum              "Zn4 H32 C64 N48"
_cell_length_a       8.06292
_cell_length_b       8.78708
_cell_length_c       23.0668
_cell_angle_alpha    90
_cell_angle_beta     90
_cell_angle_gamma    89.9997

_space_group_name_H-M_alt    "P 1"
_space_group_IT_number       1

loop_
  _space_group_symop_operation_xyz
  'x, y, z'

loop_
  _atom_site_type_symbol
  _atom_site_label
  _atom_site_symmetry_multiplicity
  _atom_site_fract_x
  _atom_site_fract_y
  _atom_site_fract_z
  _atom_site_occupancy
  Zn  Zn1       1.0  0.33919  0.00241  0.95961  1.0000
  Zn  Zn2       1.0  0.16081  0.99759  0.45961  1.0000
  Zn  Zn3       1.0  0.66082  0.50241  0.54039  1.0000
  Zn  Zn4       1.0  0.83919  0.49759  0.04039  1.0000
  H   H1        1.0  0.23520  0.92724  0.73895  1.0000
  H   H2        1.0  0.26479  0.07276  0.23895  1.0000
  H   H3        1.0  0.76480  0.42724  0.76105  1.0000
  H   H4        1.0  0.73520  0.57277  0.26105  1.0000
  H   H5        1.0  0.36539  0.16763  0.70734  1.0000
  H   H6        1.0  0.13460  0.83237  0.20734  1.0000
  H   H7        1.0  0.63460  0.66763  0.79266  1.0000
  H   H8        1.0  0.86539  0.33238  0.29266  1.0000
  H   H9        1.0  0.48725  0.34218  0.78303  1.0000
  H   H10       1.0  0.01275  0.65782  0.28302  1.0000
  H   H11       1.0  0.51275  0.84218  0.71698  1.0000
  H   H12       1.0  0.98724  0.15783  0.21698  1.0000
  H   H13       1.0  0.49726  0.25140  0.88581  1.0000
  H   H14       1.0  0.00275  0.74860  0.38581  1.0000
  H   H15       1.0  0.50275  0.75140  0.61419  1.0000
  H   H16       1.0  0.99725  0.24860  0.11419  1.0000
  H   H17       1.0  0.97273  0.83039  0.74628  1.0000
  H   H18       1.0  0.52727  0.16961  0.24628  1.0000
  H   H19       1.0  0.02727  0.33039  0.75372  1.0000
  H   H20       1.0  0.47272  0.66961  0.25372  1.0000
  H   H21       1.0  0.95158  0.76373  0.64285  1.0000
  H   H22       1.0  0.54843  0.23626  0.14285  1.0000
  H   H23       1.0  0.04842  0.26373  0.85715  1.0000
  H   H24       1.0  0.45157  0.73628  0.35715  1.0000
  H   H25       1.0  0.12840  0.54806  0.60365  1.0000
  H   H26       1.0  0.37162  0.45193  0.10365  1.0000
  H   H27       1.0  0.87160  0.04806  0.89635  1.0000
  H   H28       1.0  0.62839  0.95194  0.39635  1.0000
  H   H29       1.0  0.30962  0.40677  0.67305  1.0000
  H   H30       1.0  0.19039  0.59323  0.17305  1.0000
  H   H31       1.0  0.69037  0.90677  0.82695  1.0000
  H   H32       1.0  0.80962  0.09322  0.32695  1.0000
  C   C1        1.0  0.12635  0.75549  0.00623  1.0000
  C   C2        1.0  0.37365  0.24451  0.50623  1.0000
  C   C3        1.0  0.87365  0.25549  0.49377  1.0000
  C   C4        1.0  0.62635  0.74451  0.99377  1.0000
  C   C5        1.0  0.11605  0.42921  0.94981  1.0000
  C   C6        1.0  0.38395  0.57079  0.44981  1.0000
  C   C7        1.0  0.88396  0.92921  0.55019  1.0000
  C   C8        1.0  0.61605  0.07079  0.05019  1.0000
  C   C9        1.0  0.13590  0.71842  0.94482  1.0000
  C   C10       1.0  0.36410  0.28158  0.44482  1.0000
  C   C11       1.0  0.86410  0.21842  0.55518  1.0000
  C   C12       1.0  0.63591  0.78158  0.05518  1.0000
  C   C13       1.0  0.12005  0.57453  0.91849  1.0000
  C   C14       1.0  0.37995  0.42547  0.41849  1.0000
  C   C15       1.0  0.87995  0.07452  0.58151  1.0000
  C   C16       1.0  0.62005  0.92548  0.08151  1.0000
  C   C17       1.0  0.16521  0.68475  0.82784  1.0000
  C   C18       1.0  0.33479  0.31525  0.32784  1.0000
  C   C19       1.0  0.83479  0.18475  0.67216  1.0000
  C   C20       1.0  0.66520  0.81525  0.17216  1.0000
  C   C21       1.0  0.21001  0.82487  0.85493  1.0000
  C   C22       1.0  0.28999  0.17514  0.35492  1.0000
  C   C23       1.0  0.78999  0.32487  0.64508  1.0000
  C   C24       1.0  0.71001  0.67513  0.14508  1.0000
  C   C25       1.0  0.29316  0.96122  0.82962  1.0000
  C   C26       1.0  0.20684  0.03878  0.32962  1.0000
  C   C27       1.0  0.70684  0.46122  0.67038  1.0000
  C   C28       1.0  0.79316  0.53878  0.17038  1.0000
  C   C29       1.0  0.29403  0.00003  0.77084  1.0000
  C   C30       1.0  0.20597  0.99997  0.27083  1.0000
  C   C31       1.0  0.70598  0.50003  0.72917  1.0000
  C   C32       1.0  0.79402  0.49997  0.22917  1.0000
  C   C33       1.0  0.36574  0.13684  0.75317  1.0000
  C   C34       1.0  0.13425  0.86315  0.25317  1.0000
  C   C35       1.0  0.63425  0.63685  0.74683  1.0000
  C   C36       1.0  0.86573  0.36316  0.24683  1.0000
  C   C37       1.0  0.43622  0.23184  0.79450  1.0000
  C   C38       1.0  0.06379  0.76817  0.29449  1.0000
  C   C39       1.0  0.56379  0.73183  0.70551  1.0000
  C   C40       1.0  0.93621  0.26817  0.20550  1.0000
  C   C41       1.0  0.43879  0.18338  0.85202  1.0000
  C   C42       1.0  0.06121  0.81661  0.35202  1.0000
  C   C43       1.0  0.56121  0.68339  0.64798  1.0000
  C   C44       1.0  0.93878  0.31662  0.14799  1.0000
  C   C45       1.0  0.15483  0.65440  0.76431  1.0000
  C   C46       1.0  0.34517  0.34560  0.26431  1.0000
  C   C47       1.0  0.84516  0.15440  0.73569  1.0000
  C   C48       1.0  0.65483  0.84560  0.23569  1.0000
  C   C49       1.0  0.04850  0.73865  0.72880  1.0000
  C   C50       1.0  0.45151  0.26134  0.22880  1.0000
  C   C51       1.0  0.95150  0.23865  0.77120  1.0000
  C   C52       1.0  0.54848  0.76135  0.27120  1.0000
  C   C53       1.0  0.03678  0.70065  0.67035  1.0000
  C   C54       1.0  0.46323  0.29934  0.17035  1.0000
  C   C55       1.0  0.96322  0.20064  0.82965  1.0000
  C   C56       1.0  0.53677  0.79935  0.32965  1.0000
  C   C57       1.0  0.13249  0.58089  0.64921  1.0000
  C   C58       1.0  0.36753  0.41910  0.14921  1.0000
  C   C59       1.0  0.86751  0.08089  0.85079  1.0000
  C   C60       1.0  0.63248  0.91911  0.35079  1.0000
  C   C61       1.0  0.23328  0.50162  0.68815  1.0000
  C   C62       1.0  0.26673  0.49837  0.18815  1.0000
  C   C63       1.0  0.76672  0.00162  0.81185  1.0000
  C   C64       1.0  0.73327  0.99837  0.31185  1.0000
  N   N1        1.0  0.21740  0.87215  0.02726  1.0000
  N   N2        1.0  0.28260  0.12785  0.52726  1.0000
  N   N3        1.0  0.78260  0.37215  0.47274  1.0000
  N   N4        1.0  0.71740  0.62785  0.97274  1.0000
  N   N5        1.0  0.18384  0.87917  0.08419  1.0000
  N   N6        1.0  0.31615  0.12084  0.58419  1.0000
  N   N7        1.0  0.81616  0.37916  0.41581  1.0000
  N   N8        1.0  0.68384  0.62084  0.91581  1.0000
  N   N9        1.0  0.07562  0.77118  0.09714  1.0000
  N   N10       1.0  0.42438  0.22883  0.59714  1.0000
  N   N11       1.0  0.92438  0.27117  0.40286  1.0000
  N   N12       1.0  0.57562  0.72883  0.90286  1.0000
  N   N13       1.0  0.03747  0.69130  0.04880  1.0000
  N   N14       1.0  0.46254  0.30869  0.54880  1.0000
  N   N15       1.0  0.96254  0.19130  0.45120  1.0000
  N   N16       1.0  0.53747  0.80870  0.95120  1.0000
  N   N17       1.0  0.02978  0.38734  0.99758  1.0000
  N   N18       1.0  0.47022  0.61266  0.49759  1.0000
  N   N19       1.0  0.97023  0.88734  0.50242  1.0000
  N   N20       1.0  0.52978  0.11266  0.00242  1.0000
  N   N21       1.0  0.07217  0.24279  0.00903  1.0000
  N   N22       1.0  0.42783  0.75721  0.50903  1.0000
  N   N23       1.0  0.92783  0.74279  0.49097  1.0000
  N   N24       1.0  0.57217  0.25721  0.99097  1.0000
  N   N25       1.0  0.18084  0.20107  0.96908  1.0000
  N   N26       1.0  0.31917  0.79893  0.46908  1.0000
  N   N27       1.0  0.81917  0.70107  0.53092  1.0000
  N   N28       1.0  0.68084  0.29893  0.03092  1.0000
  N   N29       1.0  0.21046  0.31354  0.93161  1.0000
  N   N30       1.0  0.28954  0.68646  0.43161  1.0000
  N   N31       1.0  0.78954  0.81354  0.56839  1.0000
  N   N32       1.0  0.71046  0.18646  0.06839  1.0000
  N   N33       1.0  0.18643  0.83575  0.91220  1.0000
  N   N34       1.0  0.31357  0.16425  0.41220  1.0000
  N   N35       1.0  0.81357  0.33575  0.58780  1.0000
  N   N36       1.0  0.68644  0.66425  0.08780  1.0000
  N   N37       1.0  0.13009  0.56358  0.86062  1.0000
  N   N38       1.0  0.36991  0.43642  0.36062  1.0000
  N   N39       1.0  0.86992  0.06357  0.63938  1.0000
  N   N40       1.0  0.63008  0.93642  0.13938  1.0000
  N   N41       1.0  0.36852  0.05264  0.86912  1.0000
  N   N42       1.0  0.13149  0.94737  0.36912  1.0000
  N   N43       1.0  0.63149  0.55264  0.63088  1.0000
  N   N44       1.0  0.86852  0.44736  0.13088  1.0000
  N   N45       1.0  0.24385  0.53538  0.74471  1.0000
  N   N46       1.0  0.25616  0.46462  0.24471  1.0000
  N   N47       1.0  0.75615  0.03538  0.75529  1.0000
  N   N48       1.0  0.74385  0.96462  0.25529  1.0000
