data_image0
_chemical_formula_structural       Zn2Cu4H48C24N4O24
_chemical_formula_sum              "Zn2 Cu4 H48 C24 N4 O24"
_cell_length_a       8.23116
_cell_length_b       12.0624
_cell_length_c       12.0665
_cell_angle_alpha    88.352
_cell_angle_beta     74.5123
_cell_angle_gamma    74.4398

_space_group_name_H-M_alt    "P 1"
_space_group_IT_number       1

loop_
  _space_group_symop_operation_xyz
  'x, y, z'

loop_
  _atom_site_type_symbol
  _atom_site_label
  _atom_site_symmetry_multiplicity
  _atom_site_fract_x
  _atom_site_fract_y
  _atom_site_fract_z
  _atom_site_occupancy
  Zn  Zn1       1.0  0.75009  0.45380  0.54603  1.0000
  Zn  Zn2       1.0  0.24992  0.54620  0.45397  1.0000
  Cu  Cu1       1.0  0.93645  0.09874  0.46274  1.0000
  Cu  Cu2       1.0  0.56331  0.53734  0.90125  1.0000
  Cu  Cu3       1.0  0.06355  0.90127  0.53727  1.0000
  Cu  Cu4       1.0  0.43667  0.46265  0.09875  1.0000
  H   H1        1.0  0.43626  0.82758  0.17395  1.0000
  H   H2        1.0  0.06374  0.82547  0.17239  1.0000
  H   H3        1.0  0.56372  0.17244  0.82603  1.0000
  H   H4        1.0  0.93629  0.17452  0.82761  1.0000
  H   H5        1.0  0.48293  0.95875  0.20147  1.0000
  H   H6        1.0  0.01751  0.79874  0.04084  1.0000
  H   H7        1.0  0.51707  0.04127  0.79853  1.0000
  H   H8        1.0  0.98249  0.20126  0.95918  1.0000
  H   H9        1.0  0.33091  0.96157  0.12145  1.0000
  H   H10       1.0  0.16946  0.87850  0.03901  1.0000
  H   H11       1.0  0.66906  0.03846  0.87856  1.0000
  H   H12       1.0  0.83057  0.12148  0.96098  1.0000
  H   H13       1.0  0.53038  0.91189  0.42827  1.0000
  H   H14       1.0  0.96975  0.57159  0.08823  1.0000
  H   H15       1.0  0.46959  0.08815  0.57176  1.0000
  H   H16       1.0  0.03022  0.42842  0.91176  1.0000
  H   H17       1.0  0.69111  0.77729  0.39161  1.0000
  H   H18       1.0  0.80919  0.60916  0.22251  1.0000
  H   H19       1.0  0.30884  0.22273  0.60842  1.0000
  H   H20       1.0  0.19079  0.39086  0.77748  1.0000
  H   H21       1.0  0.68191  0.88998  0.29009  1.0000
  H   H22       1.0  0.81866  0.71009  0.10934  1.0000
  H   H23       1.0  0.31806  0.11003  0.70994  1.0000
  H   H24       1.0  0.18131  0.28992  0.89065  1.0000
  H   H25       1.0  0.02980  0.21515  0.20117  1.0000
  H   H26       1.0  0.47094  0.79869  0.78499  1.0000
  H   H27       1.0  0.97021  0.78484  0.79884  1.0000
  H   H28       1.0  0.52907  0.20130  0.21500  1.0000
  H   H29       1.0  0.04564  0.35942  0.17052  1.0000
  H   H30       1.0  0.45412  0.82996  0.64108  1.0000
  H   H31       1.0  0.95437  0.64057  0.82947  1.0000
  H   H32       1.0  0.54589  0.17003  0.35892  1.0000
  H   H33       1.0  0.85117  0.32061  0.17014  1.0000
  H   H34       1.0  0.64907  0.82987  0.67956  1.0000
  H   H35       1.0  0.14884  0.67938  0.82986  1.0000
  H   H36       1.0  0.35094  0.17011  0.32043  1.0000
  H   H37       1.0  0.48284  0.37395  0.55353  1.0000
  H   H38       1.0  0.01713  0.44646  0.62602  1.0000
  H   H39       1.0  0.51718  0.62604  0.44646  1.0000
  H   H40       1.0  0.98289  0.55353  0.37398  1.0000
  H   H41       1.0  0.47034  0.42095  0.68631  1.0000
  H   H42       1.0  0.03018  0.31338  0.57934  1.0000
  H   H43       1.0  0.52968  0.57904  0.31368  1.0000
  H   H44       1.0  0.96982  0.68660  0.42066  1.0000
  H   H45       1.0  0.61199  0.29659  0.62708  1.0000
  H   H46       1.0  0.88821  0.37292  0.70335  1.0000
  H   H47       1.0  0.38803  0.70341  0.37292  1.0000
  H   H48       1.0  0.11180  0.62707  0.29665  1.0000
  C   C1        1.0  0.23555  0.94582  0.30433  1.0000
  C   C2        1.0  0.26458  0.69543  0.05413  1.0000
  C   C3        1.0  0.76444  0.05420  0.69567  1.0000
  C   C4        1.0  0.73541  0.30456  0.94587  1.0000
  C   C5        1.0  0.37988  0.92042  0.19257  1.0000
  C   C6        1.0  0.12036  0.80728  0.07960  1.0000
  C   C7        1.0  0.62010  0.07960  0.80743  1.0000
  C   C8        1.0  0.87967  0.19271  0.92039  1.0000
  C   C9        1.0  0.78861  0.91869  0.42594  1.0000
  C   C10       1.0  0.71141  0.57430  0.08136  1.0000
  C   C11       1.0  0.21138  0.08132  0.57408  1.0000
  C   C12       1.0  0.28858  0.42569  0.91864  1.0000
  C   C13       1.0  0.66634  0.87014  0.38100  1.0000
  C   C14       1.0  0.83389  0.61927  0.12967  1.0000
  C   C15       1.0  0.33363  0.12988  0.61903  1.0000
  C   C16       1.0  0.16609  0.38074  0.87032  1.0000
  C   C17       1.0  0.87780  0.34011  0.33754  1.0000
  C   C18       1.0  0.62222  0.66247  0.65975  1.0000
  C   C19       1.0  0.12223  0.65989  0.66245  1.0000
  C   C20       1.0  0.37777  0.33753  0.34024  1.0000
  C   C21       1.0  0.95861  0.30671  0.21161  1.0000
  C   C22       1.0  0.54164  0.78848  0.69344  1.0000
  C   C23       1.0  0.04140  0.69328  0.78839  1.0000
  C   C24       1.0  0.45838  0.21151  0.30655  1.0000
  N   N1        1.0  0.55336  0.37971  0.61086  1.0000
  N   N2        1.0  0.94691  0.38896  0.62030  1.0000
  N   N3        1.0  0.44666  0.62028  0.38914  1.0000
  N   N4        1.0  0.05310  0.61103  0.37970  1.0000
  O   O1        1.0  0.12501  0.04416  0.31601  1.0000
  O   O2        1.0  0.37490  0.68382  0.95588  1.0000
  O   O3        1.0  0.87495  0.95585  0.68400  1.0000
  O   O4        1.0  0.62507  0.31616  0.04411  1.0000
  O   O5        1.0  0.23798  0.86848  0.37891  1.0000
  O   O6        1.0  0.26221  0.62072  0.13137  1.0000
  O   O7        1.0  0.76206  0.13155  0.62109  1.0000
  O   O8        1.0  0.73782  0.37927  0.86863  1.0000
  O   O9        1.0  0.77810  0.02519  0.41208  1.0000
  O   O10       1.0  0.72164  0.58816  0.97495  1.0000
  O   O11       1.0  0.22187  0.97482  0.58795  1.0000
  O   O12       1.0  0.27834  0.41184  0.02504  1.0000
  O   O13       1.0  0.89365  0.84968  0.47404  1.0000
  O   O14       1.0  0.60667  0.52616  0.15039  1.0000
  O   O15       1.0  0.10637  0.15032  0.52594  1.0000
  O   O16       1.0  0.39334  0.47383  0.84961  1.0000
  O   O17       1.0  0.83672  0.26712  0.40895  1.0000
  O   O18       1.0  0.66265  0.59069  0.73266  1.0000
  O   O19       1.0  0.16332  0.73288  0.59106  1.0000
  O   O20       1.0  0.33733  0.40929  0.26733  1.0000
  O   O21       1.0  0.84587  0.44686  0.37072  1.0000
  O   O22       1.0  0.65447  0.62951  0.55295  1.0000
  O   O23       1.0  0.15415  0.55314  0.62927  1.0000
  O   O24       1.0  0.34556  0.37048  0.44703  1.0000
