data_image0
_chemical_formula_structural       Cu4H54C54S6I4N6
_chemical_formula_sum              "Cu4 H54 C54 S6 I4 N6"
_cell_length_a       9.21836
_cell_length_b       14.3981
_cell_length_c       16.8834
_cell_angle_alpha    113.278
_cell_angle_beta     89.6882
_cell_angle_gamma    99.7662

_space_group_name_H-M_alt    "P 1"
_space_group_IT_number       1

loop_
  _space_group_symop_operation_xyz
  'x, y, z'

loop_
  _atom_site_type_symbol
  _atom_site_label
  _atom_site_symmetry_multiplicity
  _atom_site_fract_x
  _atom_site_fract_y
  _atom_site_fract_z
  _atom_site_occupancy
  Cu  Cu1       1.0  0.98539  0.94519  0.67340  1.0000
  Cu  Cu2       1.0  0.01461  0.05481  0.32661  1.0000
  Cu  Cu3       1.0  0.13272  0.00231  0.56494  1.0000
  Cu  Cu4       1.0  0.86728  0.99770  0.43506  1.0000
  H   H1        1.0  0.09215  0.75560  0.05401  1.0000
  H   H2        1.0  0.90785  0.24440  0.94599  1.0000
  H   H3        1.0  0.29672  0.68715  0.63235  1.0000
  H   H4        1.0  0.70328  0.31285  0.36765  1.0000
  H   H5        1.0  0.25012  0.56996  0.54150  1.0000
  H   H6        1.0  0.74988  0.43004  0.45850  1.0000
  H   H7        1.0  0.66744  0.17006  0.58787  1.0000
  H   H8        1.0  0.33256  0.82994  0.41213  1.0000
  H   H9        1.0  0.67414  0.88060  0.59608  1.0000
  H   H10       1.0  0.32586  0.11941  0.40393  1.0000
  H   H11       1.0  0.46453  0.74117  0.57695  1.0000
  H   H12       1.0  0.53547  0.25883  0.42305  1.0000
  H   H13       1.0  0.45796  0.03642  0.58398  1.0000
  H   H14       1.0  0.54203  0.96358  0.41602  1.0000
  H   H15       1.0  0.74898  0.61317  0.69518  1.0000
  H   H16       1.0  0.25102  0.38683  0.30481  1.0000
  H   H17       1.0  0.95036  0.75494  0.70261  1.0000
  H   H18       1.0  0.04964  0.24506  0.29739  1.0000
  H   H19       1.0  0.10167  0.33251  0.52829  1.0000
  H   H20       1.0  0.89833  0.66749  0.47171  1.0000
  H   H21       1.0  0.14236  0.43530  0.49539  1.0000
  H   H22       1.0  0.85764  0.56470  0.50461  1.0000
  H   H23       1.0  0.95761  0.37657  0.49457  1.0000
  H   H24       1.0  0.04239  0.62343  0.50543  1.0000
  H   H25       1.0  0.15346  0.71134  0.92176  1.0000
  H   H26       1.0  0.84654  0.28866  0.07824  1.0000
  H   H27       1.0  0.99254  0.62829  0.92844  1.0000
  H   H28       1.0  0.00746  0.37171  0.07156  1.0000
  H   H29       1.0  0.10783  0.86455  0.20940  1.0000
  H   H30       1.0  0.89218  0.13545  0.79060  1.0000
  H   H31       1.0  0.84234  0.05171  0.17422  1.0000
  H   H32       1.0  0.15766  0.94829  0.82578  1.0000
  H   H33       1.0  0.85671  0.44132  0.84556  1.0000
  H   H34       1.0  0.14329  0.55868  0.15444  1.0000
  H   H35       1.0  0.71948  0.44322  0.77311  1.0000
  H   H36       1.0  0.28052  0.55678  0.22689  1.0000
  H   H37       1.0  0.78944  0.55624  0.86361  1.0000
  H   H38       1.0  0.21056  0.44376  0.13639  1.0000
  H   H39       1.0  0.80938  0.31651  0.68048  1.0000
  H   H40       1.0  0.19063  0.68349  0.31952  1.0000
  H   H41       1.0  0.87323  0.29429  0.57638  1.0000
  H   H42       1.0  0.12677  0.70571  0.42362  1.0000
  H   H43       1.0  0.35308  0.37018  0.61035  1.0000
  H   H44       1.0  0.64692  0.62982  0.38965  1.0000
  H   H45       1.0  0.81782  0.95271  0.01503  1.0000
  H   H46       1.0  0.18218  0.04729  0.98497  1.0000
  H   H47       1.0  0.24277  0.78721  0.75301  1.0000
  H   H48       1.0  0.75723  0.21279  0.24699  1.0000
  H   H49       1.0  0.37297  0.72373  0.77736  1.0000
  H   H50       1.0  0.62703  0.27627  0.22264  1.0000
  H   H51       1.0  0.24871  0.78038  0.85505  1.0000
  H   H52       1.0  0.75129  0.21962  0.14494  1.0000
  H   H53       1.0  0.15470  0.22415  0.60081  1.0000
  H   H54       1.0  0.84530  0.77585  0.39919  1.0000
  C   C1        1.0  0.03507  0.82062  0.07628  1.0000
  C   C2        1.0  0.96493  0.17938  0.92372  1.0000
  C   C3        1.0  0.52904  0.28352  0.60072  1.0000
  C   C4        1.0  0.47096  0.71648  0.39928  1.0000
  C   C5        1.0  0.58631  0.66472  0.63629  1.0000
  C   C6        1.0  0.41369  0.33528  0.36370  1.0000
  C   C7        1.0  0.05693  0.47654  0.62323  1.0000
  C   C8        1.0  0.94307  0.52346  0.37677  1.0000
  C   C9        1.0  0.15671  0.57060  0.66110  1.0000
  C   C10       1.0  0.84328  0.42940  0.33890  1.0000
  C   C11       1.0  0.27587  0.60340  0.61137  1.0000
  C   C12       1.0  0.72412  0.39660  0.38863  1.0000
  C   C13       1.0  0.55667  0.18755  0.59283  1.0000
  C   C14       1.0  0.44333  0.81245  0.40716  1.0000
  C   C15       1.0  0.68668  0.81930  0.61672  1.0000
  C   C16       1.0  0.31332  0.18070  0.38328  1.0000
  C   C17       1.0  0.15041  0.63685  0.74863  1.0000
  C   C18       1.0  0.84959  0.36315  0.25137  1.0000
  C   C19       1.0  0.94735  0.45037  0.67356  1.0000
  C   C20       1.0  0.05265  0.54963  0.32644  1.0000
  C   C21       1.0  0.56844  0.74100  0.60709  1.0000
  C   C22       1.0  0.43156  0.25900  0.39291  1.0000
  C   C23       1.0  0.43898  0.11145  0.58929  1.0000
  C   C24       1.0  0.56102  0.88855  0.41071  1.0000
  C   C25       1.0  0.04331  0.60787  0.79827  1.0000
  C   C26       1.0  0.95669  0.39213  0.20173  1.0000
  C   C27       1.0  0.72739  0.67014  0.67150  1.0000
  C   C28       1.0  0.27261  0.32986  0.32849  1.0000
  C   C29       1.0  0.93886  0.51602  0.76059  1.0000
  C   C30       1.0  0.06114  0.48398  0.23941  1.0000
  C   C31       1.0  0.83988  0.74978  0.67650  1.0000
  C   C32       1.0  0.16013  0.25022  0.32350  1.0000
  C   C33       1.0  0.06541  0.40271  0.53115  1.0000
  C   C34       1.0  0.93459  0.59729  0.46885  1.0000
  C   C35       1.0  0.04141  0.67394  0.89297  1.0000
  C   C36       1.0  0.95859  0.32606  0.10703  1.0000
  C   C37       1.0  0.95279  0.84409  0.01914  1.0000
  C   C38       1.0  0.04720  0.15591  0.98086  1.0000
  C   C39       1.0  0.04437  0.88168  0.16407  1.0000
  C   C40       1.0  0.95563  0.11832  0.83593  1.0000
  C   C41       1.0  0.89726  0.98590  0.14446  1.0000
  C   C42       1.0  0.10274  0.01410  0.85554  1.0000
  C   C43       1.0  0.82042  0.48779  0.81349  1.0000
  C   C44       1.0  0.17958  0.51221  0.18651  1.0000
  C   C45       1.0  0.83651  0.35173  0.63404  1.0000
  C   C46       1.0  0.16349  0.64827  0.36597  1.0000
  C   C47       1.0  0.38125  0.29728  0.60409  1.0000
  C   C48       1.0  0.61876  0.70272  0.39591  1.0000
  C   C49       1.0  0.88305  0.92994  0.05566  1.0000
  C   C50       1.0  0.11695  0.07006  0.94434  1.0000
  C   C51       1.0  0.25876  0.73691  0.78617  1.0000
  C   C52       1.0  0.74124  0.26309  0.21383  1.0000
  C   C53       1.0  0.27068  0.21642  0.59896  1.0000
  C   C54       1.0  0.72932  0.78358  0.40104  1.0000
  S   S1        1.0  0.93315  0.77398  0.90736  1.0000
  S   S2        1.0  0.06685  0.22602  0.09264  1.0000
  S   S3        1.0  0.66723  0.38498  0.60465  1.0000
  S   S4        1.0  0.33277  0.61502  0.39535  1.0000
  S   S5        1.0  0.44576  0.56570  0.63400  1.0000
  S   S6        1.0  0.55424  0.43430  0.36600  1.0000
  I   I1        1.0  0.88708  0.07153  0.61048  1.0000
  I   I2        1.0  0.11292  0.92847  0.38952  1.0000
  I   I3        1.0  0.22280  0.86942  0.61329  1.0000
  I   I4        1.0  0.77720  0.13058  0.38671  1.0000
  N   N1        1.0  0.97711  0.96351  0.19944  1.0000
  N   N2        1.0  0.02289  0.03649  0.80056  1.0000
  N   N3        1.0  0.82160  0.82525  0.65080  1.0000
  N   N4        1.0  0.17840  0.17475  0.34920  1.0000
  N   N5        1.0  0.29714  0.12398  0.59142  1.0000
  N   N6        1.0  0.70285  0.87602  0.40858  1.0000
