data_image0
_chemical_formula_structural       Cu4H54C54S6I4N6
_chemical_formula_sum              "Cu4 H54 C54 S6 I4 N6"
_cell_length_a       9.09144
_cell_length_b       14.4208
_cell_length_c       16.5744
_cell_angle_alpha    112.792
_cell_angle_beta     90.2864
_cell_angle_gamma    98.8223

_space_group_name_H-M_alt    "P 1"
_space_group_IT_number       1

loop_
  _space_group_symop_operation_xyz
  'x, y, z'

loop_
  _atom_site_type_symbol
  _atom_site_label
  _atom_site_symmetry_multiplicity
  _atom_site_fract_x
  _atom_site_fract_y
  _atom_site_fract_z
  _atom_site_occupancy
  Cu  Cu1       1.0  0.52225  0.56102  0.32706  1.0000
  Cu  Cu2       1.0  0.47775  0.43897  0.67294  1.0000
  Cu  Cu3       1.0  0.36714  0.49330  0.42783  1.0000
  Cu  Cu4       1.0  0.63286  0.50669  0.57217  1.0000
  H   H1        1.0  0.17182  0.36489  0.57958  1.0000
  H   H2        1.0  0.82819  0.63510  0.42041  1.0000
  H   H3        1.0  0.95571  0.53479  0.57350  1.0000
  H   H4        1.0  0.04429  0.46521  0.42651  1.0000
  H   H5        1.0  0.24866  0.10995  0.69702  1.0000
  H   H6        1.0  0.75134  0.89005  0.30299  1.0000
  H   H7        1.0  0.79091  0.16929  0.61412  1.0000
  H   H8        1.0  0.20910  0.83071  0.38589  1.0000
  H   H9        1.0  0.73914  0.04748  0.52851  1.0000
  H   H10       1.0  0.26086  0.95252  0.47150  1.0000
  H   H11       1.0  0.44748  0.25328  0.70729  1.0000
  H   H12       1.0  0.55251  0.74673  0.29271  1.0000
  H   H13       1.0  0.85405  0.88324  0.65641  1.0000
  H   H14       1.0  0.14594  0.11676  0.34358  1.0000
  H   H15       1.0  0.16481  0.66879  0.58064  1.0000
  H   H16       1.0  0.83519  0.33121  0.41936  1.0000
  H   H17       1.0  0.32453  0.80955  0.69066  1.0000
  H   H18       1.0  0.67548  0.19046  0.30934  1.0000
  H   H19       1.0  0.36708  0.78874  0.58179  1.0000
  H   H20       1.0  0.63293  0.21126  0.41822  1.0000
  H   H21       1.0  0.32587  0.44104  0.00617  1.0000
  H   H22       1.0  0.67413  0.55896  0.99383  1.0000
  H   H23       1.0  0.65365  0.73552  0.63608  1.0000
  H   H24       1.0  0.34635  0.26447  0.36392  1.0000
  H   H25       1.0  0.68469  0.20931  0.92131  1.0000
  H   H26       1.0  0.31530  0.79070  0.07869  1.0000
  H   H27       1.0  0.53018  0.12694  0.93591  1.0000
  H   H28       1.0  0.46982  0.87306  0.06409  1.0000
  H   H29       1.0  0.34968  0.54849  0.16608  1.0000
  H   H30       1.0  0.65032  0.45151  0.83392  1.0000
  H   H31       1.0  0.96555  0.22268  0.55646  1.0000
  H   H32       1.0  0.03445  0.77731  0.44354  1.0000
  H   H33       1.0  0.54987  0.93090  0.48259  1.0000
  H   H34       1.0  0.45013  0.06910  0.51741  1.0000
  H   H35       1.0  0.48672  0.82413  0.50724  1.0000
  H   H36       1.0  0.51329  0.17587  0.49276  1.0000
  H   H37       1.0  0.67918  0.87246  0.51735  1.0000
  H   H38       1.0  0.32083  0.12754  0.48266  1.0000
  H   H39       1.0  0.88787  0.21279  0.77676  1.0000
  H   H40       1.0  0.11213  0.78721  0.22324  1.0000
  H   H41       1.0  0.75339  0.27753  0.84419  1.0000
  H   H42       1.0  0.24662  0.72248  0.15581  1.0000
  H   H43       1.0  0.76285  0.26919  0.73570  1.0000
  H   H44       1.0  0.23715  0.73081  0.26430  1.0000
  H   H45       1.0  0.62382  0.26080  0.06014  1.0000
  H   H46       1.0  0.37616  0.73920  0.93986  1.0000
  H   H47       1.0  0.26322  0.92317  0.79534  1.0000
  H   H48       1.0  0.73678  0.07683  0.20466  1.0000
  H   H49       1.0  0.31522  0.04831  0.87375  1.0000
  H   H50       1.0  0.68478  0.95170  0.12625  1.0000
  H   H51       1.0  0.41917  0.95250  0.87101  1.0000
  H   H52       1.0  0.58083  0.04751  0.12898  1.0000
  H   H53       1.0  0.63763  0.37742  0.21537  1.0000
  H   H54       1.0  0.36236  0.62258  0.78463  1.0000
  C   C1        1.0  0.02854  0.78921  0.61969  1.0000
  C   C2        1.0  0.97146  0.21079  0.38031  1.0000
  C   C3        1.0  0.08706  0.15370  0.62646  1.0000
  C   C4        1.0  0.91295  0.84630  0.37354  1.0000
  C   C5        1.0  0.56099  0.96594  0.62251  1.0000
  C   C6        1.0  0.43902  0.03406  0.37749  1.0000
  C   C7        1.0  0.66360  0.12747  0.74450  1.0000
  C   C8        1.0  0.33640  0.87253  0.25551  1.0000
  C   C9        1.0  0.18495  0.30603  0.60383  1.0000
  C   C10       1.0  0.81505  0.69397  0.39617  1.0000
  C   C11       1.0  0.93706  0.61283  0.58996  1.0000
  C   C12       1.0  0.06294  0.38716  0.41004  1.0000
  C   C13       1.0  0.22707  0.16379  0.66883  1.0000
  C   C14       1.0  0.77293  0.83621  0.33117  1.0000
  C   C15       1.0  0.77246  0.08705  0.59857  1.0000
  C   C16       1.0  0.22754  0.91296  0.40143  1.0000
  C   C17       1.0  0.33780  0.24450  0.67570  1.0000
  C   C18       1.0  0.66220  0.75550  0.32430  1.0000
  C   C19       1.0  0.88135  0.80687  0.63586  1.0000
  C   C20       1.0  0.11866  0.19314  0.36414  1.0000
  C   C21       1.0  0.66120  0.05954  0.65604  1.0000
  C   C22       1.0  0.33880  0.94046  0.34396  1.0000
  C   C23       1.0  0.05485  0.68903  0.59574  1.0000
  C   C24       1.0  0.94514  0.31096  0.40426  1.0000
  C   C25       1.0  0.46006  0.94098  0.67854  1.0000
  C   C26       1.0  0.53994  0.05902  0.32146  1.0000
  C   C27       1.0  0.46323  0.00756  0.76775  1.0000
  C   C28       1.0  0.53677  0.99244  0.23225  1.0000
  C   C29       1.0  0.34234  0.84635  0.64387  1.0000
  C   C30       1.0  0.65766  0.15365  0.35613  1.0000
  C   C31       1.0  0.39560  0.42349  0.05029  1.0000
  C   C32       1.0  0.60440  0.57651  0.94971  1.0000
  C   C33       1.0  0.76961  0.72514  0.62577  1.0000
  C   C34       1.0  0.23039  0.27486  0.37422  1.0000
  C   C35       1.0  0.57117  0.16910  0.89565  1.0000
  C   C36       1.0  0.42883  0.83090  0.10435  1.0000
  C   C37       1.0  0.40942  0.48416  0.13936  1.0000
  C   C38       1.0  0.59058  0.51584  0.86064  1.0000
  C   C39       1.0  0.06868  0.22637  0.59197  1.0000
  C   C40       1.0  0.93132  0.77363  0.40802  1.0000
  C   C41       1.0  0.56816  0.89466  0.52833  1.0000
  C   C42       1.0  0.43184  0.10534  0.47167  1.0000
  C   C43       1.0  0.77189  0.22656  0.77763  1.0000
  C   C44       1.0  0.22811  0.77344  0.22237  1.0000
  C   C45       1.0  0.47206  0.33984  0.01800  1.0000
  C   C46       1.0  0.52794  0.66017  0.98200  1.0000
  C   C47       1.0  0.56100  0.32351  0.07914  1.0000
  C   C48       1.0  0.43899  0.67649  0.92086  1.0000
  C   C49       1.0  0.56631  0.09953  0.80019  1.0000
  C   C50       1.0  0.43369  0.90047  0.19982  1.0000
  C   C51       1.0  0.35968  0.98125  0.82974  1.0000
  C   C52       1.0  0.64032  0.01875  0.17026  1.0000
  C   C53       1.0  0.56941  0.38897  0.16680  1.0000
  C   C54       1.0  0.43059  0.61103  0.83320  1.0000
  S   S1        1.0  0.94961  0.05225  0.62060  1.0000
  S   S2        1.0  0.05039  0.94774  0.37940  1.0000
  S   S3        1.0  0.16957  0.89023  0.62812  1.0000
  S   S4        1.0  0.83043  0.10977  0.37188  1.0000
  S   S5        1.0  0.45162  0.26352  0.90589  1.0000
  S   S6        1.0  0.54838  0.73648  0.09411  1.0000
  I   I1        1.0  0.27134  0.62851  0.38180  1.0000
  I   I2        1.0  0.72866  0.37149  0.61819  1.0000
  I   I3        1.0  0.62552  0.43672  0.39403  1.0000
  I   I4        1.0  0.37449  0.56328  0.60596  1.0000
  N   N1        1.0  0.31856  0.31666  0.64516  1.0000
  N   N2        1.0  0.68144  0.68334  0.35484  1.0000
  N   N3        1.0  0.79525  0.62879  0.60320  1.0000
  N   N4        1.0  0.20475  0.37121  0.39680  1.0000
  N   N5        1.0  0.49497  0.46830  0.19833  1.0000
  N   N6        1.0  0.50503  0.53170  0.80167  1.0000
