data_image0
_chemical_formula_structural       Sm2H16C24N6O18
_chemical_formula_sum              "Sm2 H16 C24 N6 O18"
_cell_length_a       7.70755
_cell_length_b       8.058
_cell_length_c       12.6386
_cell_angle_alpha    85.5496
_cell_angle_beta     94.2683
_cell_angle_gamma    83.2912

_space_group_name_H-M_alt    "P 1"
_space_group_IT_number       1

loop_
  _space_group_symop_operation_xyz
  'x, y, z'

loop_
  _atom_site_type_symbol
  _atom_site_label
  _atom_site_symmetry_multiplicity
  _atom_site_fract_x
  _atom_site_fract_y
  _atom_site_fract_z
  _atom_site_occupancy
  Sm  Sm1       1.0  0.30799  0.20853  0.49180  1.0000
  Sm  Sm2       1.0  0.69202  0.79144  0.50821  1.0000
  H   H1        1.0  0.65182  0.37047  0.00822  1.0000
  H   H2        1.0  0.34821  0.62953  0.99181  1.0000
  H   H3        1.0  0.77220  0.49920  0.84803  1.0000
  H   H4        1.0  0.22782  0.50083  0.15200  1.0000
  H   H5        1.0  0.96673  0.03610  0.75770  1.0000
  H   H6        1.0  0.03324  0.96396  0.24229  1.0000
  H   H7        1.0  0.85302  0.88495  0.91299  1.0000
  H   H8        1.0  0.14694  0.11508  0.08698  1.0000
  H   H9        1.0  0.55942  0.23903  0.14522  1.0000
  H   H10       1.0  0.44056  0.76097  0.85478  1.0000
  H   H11       1.0  0.74666  0.62118  0.12002  1.0000
  H   H12       1.0  0.25337  0.37882  0.87999  1.0000
  H   H13       1.0  0.65414  0.36770  0.52211  1.0000
  H   H14       1.0  0.34587  0.63228  0.47789  1.0000
  H   H15       1.0  0.58229  0.41340  0.40416  1.0000
  H   H16       1.0  0.41770  0.58658  0.59584  1.0000
  C   C1        1.0  0.46213  0.06313  0.31056  1.0000
  C   C2        1.0  0.53788  0.93685  0.68944  1.0000
  C   C3        1.0  0.56373  0.00103  0.22368  1.0000
  C   C4        1.0  0.43627  0.99897  0.77632  1.0000
  C   C5        1.0  0.63619  0.84596  0.19427  1.0000
  C   C6        1.0  0.36382  0.15405  0.80573  1.0000
  C   C7        1.0  0.64977  0.67519  0.24577  1.0000
  C   C8        1.0  0.35023  0.32480  0.75424  1.0000
  C   C9        1.0  0.68259  0.03111  0.06851  1.0000
  C   C10       1.0  0.31740  0.96891  0.93149  1.0000
  C   C11       1.0  0.74459  0.11474  0.97485  1.0000
  C   C12       1.0  0.25540  0.88527  0.02515  1.0000
  C   C13       1.0  0.72103  0.29026  0.95522  1.0000
  C   C14       1.0  0.27898  0.70976  0.04479  1.0000
  C   C15       1.0  0.78940  0.36288  0.86613  1.0000
  C   C16       1.0  0.21061  0.63715  0.13389  1.0000
  C   C17       1.0  0.89722  0.10638  0.81553  1.0000
  C   C18       1.0  0.10276  0.89366  0.18446  1.0000
  C   C19       1.0  0.83325  0.02138  0.90183  1.0000
  C   C20       1.0  0.16672  0.97864  0.09815  1.0000
  C   C21       1.0  0.96256  0.04156  0.44393  1.0000
  C   C22       1.0  0.03744  0.95841  0.55608  1.0000
  C   C23       1.0  0.95819  0.44587  0.54213  1.0000
  C   C24       1.0  0.04181  0.55410  0.45784  1.0000
  N   N1        1.0  0.59533  0.11374  0.14337  1.0000
  N   N2        1.0  0.40466  0.88626  0.85663  1.0000
  N   N3        1.0  0.70558  0.86672  0.09757  1.0000
  N   N4        1.0  0.29442  0.13328  0.90243  1.0000
  N   N5        1.0  0.87830  0.27421  0.79786  1.0000
  N   N6        1.0  0.12169  0.72583  0.20214  1.0000
  O   O1        1.0  0.38622  0.21195  0.29737  1.0000
  O   O2        1.0  0.61378  0.78803  0.70264  1.0000
  O   O3        1.0  0.45448  0.96660  0.39521  1.0000
  O   O4        1.0  0.54552  0.03339  0.60479  1.0000
  O   O5        1.0  0.61144  0.63588  0.33681  1.0000
  O   O6        1.0  0.38855  0.36412  0.66317  1.0000
  O   O7        1.0  0.71101  0.55723  0.18366  1.0000
  O   O8        1.0  0.28903  0.44277  0.81635  1.0000
  O   O9        1.0  0.06019  0.12919  0.39273  1.0000
  O   O10       1.0  0.93983  0.87078  0.60726  1.0000
  O   O11       1.0  0.80982  0.01520  0.41187  1.0000
  O   O12       1.0  0.19019  0.98478  0.58815  1.0000
  O   O13       1.0  0.04392  0.30874  0.57798  1.0000
  O   O14       1.0  0.95608  0.69123  0.42201  1.0000
  O   O15       1.0  0.80654  0.50503  0.56654  1.0000
  O   O16       1.0  0.19348  0.49494  0.43344  1.0000
  O   O17       1.0  0.57630  0.33131  0.46492  1.0000
  O   O18       1.0  0.42369  0.66867  0.53508  1.0000
