data_image0
_chemical_formula_structural       Ho2H16C24N6O18
_chemical_formula_sum              "Ho2 H16 C24 N6 O18"
_cell_length_a       8.07026
_cell_length_b       7.88072
_cell_length_c       12.2722
_cell_angle_alpha    78.325
_cell_angle_beta     99.083
_cell_angle_gamma    78.7203

_space_group_name_H-M_alt    "P 1"
_space_group_IT_number       1

loop_
  _space_group_symop_operation_xyz
  'x, y, z'

loop_
  _atom_site_type_symbol
  _atom_site_label
  _atom_site_symmetry_multiplicity
  _atom_site_fract_x
  _atom_site_fract_y
  _atom_site_fract_z
  _atom_site_occupancy
  Ho  Ho1       1.0  0.28659  0.70368  0.47534  1.0000
  Ho  Ho2       1.0  0.71340  0.29630  0.52465  1.0000
  H   H1        1.0  0.79647  0.41303  0.91284  1.0000
  H   H2        1.0  0.20352  0.58701  0.08714  1.0000
  H   H3        1.0  0.97833  0.54403  0.79006  1.0000
  H   H4        1.0  0.02166  0.45604  0.20994  1.0000
  H   H5        1.0  0.89650  0.01207  0.89869  1.0000
  H   H6        1.0  0.10354  0.98794  0.10138  1.0000
  H   H7        1.0  0.70854  0.90006  0.02856  1.0000
  H   H8        1.0  0.29149  0.09992  0.97148  1.0000
  H   H9        1.0  0.80961  0.29685  0.12242  1.0000
  H   H10       1.0  0.19041  0.70317  0.87758  1.0000
  H   H11       1.0  0.58662  0.11585  0.12934  1.0000
  H   H12       1.0  0.41337  0.88415  0.87064  1.0000
  H   H13       1.0  0.53469  0.94374  0.41172  1.0000
  H   H14       1.0  0.46531  0.05626  0.58826  1.0000
  H   H15       1.0  0.62520  0.74012  0.42442  1.0000
  H   H16       1.0  0.37479  0.25987  0.57555  1.0000
  C   C1        1.0  0.41220  0.58594  0.29131  1.0000
  C   C2        1.0  0.58778  0.41402  0.70868  1.0000
  C   C3        1.0  0.52098  0.53662  0.21013  1.0000
  C   C4        1.0  0.47901  0.46335  0.78986  1.0000
  C   C5        1.0  0.61020  0.36572  0.20946  1.0000
  C   C6        1.0  0.38981  0.63426  0.79054  1.0000
  C   C7        1.0  0.60745  0.18782  0.27066  1.0000
  C   C8        1.0  0.39256  0.81215  0.72933  1.0000
  C   C9        1.0  0.65903  0.56733  0.07289  1.0000
  C   C10       1.0  0.34096  0.43268  0.92710  1.0000
  C   C11       1.0  0.74368  0.64455  0.98536  1.0000
  C   C12       1.0  0.25631  0.35547  0.01465  1.0000
  C   C13       1.0  0.81476  0.54617  0.91343  1.0000
  C   C14       1.0  0.18524  0.45386  0.08657  1.0000
  C   C15       1.0  0.91754  0.61872  0.84510  1.0000
  C   C16       1.0  0.08246  0.38133  0.15490  1.0000
  C   C17       1.0  0.87319  0.87878  0.90627  1.0000
  C   C18       1.0  0.12683  0.12124  0.09377  1.0000
  C   C19       1.0  0.76588  0.81875  0.97609  1.0000
  C   C20       1.0  0.23414  0.18126  0.02394  1.0000
  C   C21       1.0  0.05759  0.43313  0.55399  1.0000
  C   C22       1.0  0.94239  0.56686  0.44601  1.0000
  C   C23       1.0  0.97901  0.93804  0.55134  1.0000
  C   C24       1.0  0.02099  0.06196  0.44866  1.0000
  N   N1        1.0  0.54907  0.65928  0.12305  1.0000
  N   N2        1.0  0.45090  0.34071  0.87695  1.0000
  N   N3        1.0  0.69417  0.38777  0.12008  1.0000
  N   N4        1.0  0.30583  0.61223  0.87991  1.0000
  N   N5        1.0  0.95580  0.77714  0.84661  1.0000
  N   N6        1.0  0.04422  0.22291  0.15342  1.0000
  O   O1        1.0  0.28749  0.71976  0.26351  1.0000
  O   O2        1.0  0.71248  0.28020  0.73649  1.0000
  O   O3        1.0  0.45638  0.48707  0.39414  1.0000
  O   O4        1.0  0.54361  0.51290  0.60585  1.0000
  O   O5        1.0  0.60110  0.14605  0.37221  1.0000
  O   O6        1.0  0.39893  0.85393  0.62779  1.0000
  O   O7        1.0  0.61142  0.06148  0.21111  1.0000
  O   O8        1.0  0.38858  0.93851  0.78887  1.0000
  O   O9        1.0  0.21658  0.43842  0.57214  1.0000
  O   O10       1.0  0.78340  0.56156  0.42785  1.0000
  O   O11       1.0  0.98711  0.33113  0.61397  1.0000
  O   O12       1.0  0.01286  0.66887  0.38603  1.0000
  O   O13       1.0  0.07680  0.78338  0.58735  1.0000
  O   O14       1.0  0.92320  0.21661  0.41265  1.0000
  O   O15       1.0  0.85021  0.00170  0.59004  1.0000
  O   O16       1.0  0.14981  0.99829  0.40996  1.0000
  O   O17       1.0  0.51848  0.82144  0.43104  1.0000
  O   O18       1.0  0.48150  0.17856  0.56892  1.0000
