data_image0
_chemical_formula_structural       Dy2H16C24N6O18
_chemical_formula_sum              "Dy2 H16 C24 N6 O18"
_cell_length_a       8.1414
_cell_length_b       7.91204
_cell_length_c       12.1275
_cell_angle_alpha    77.7978
_cell_angle_beta     99.511
_cell_angle_gamma    78.5288

_space_group_name_H-M_alt    "P 1"
_space_group_IT_number       1

loop_
  _space_group_symop_operation_xyz
  'x, y, z'

loop_
  _atom_site_type_symbol
  _atom_site_label
  _atom_site_symmetry_multiplicity
  _atom_site_fract_x
  _atom_site_fract_y
  _atom_site_fract_z
  _atom_site_occupancy
  Dy  Dy1       1.0  0.78511  0.20409  0.47404  1.0000
  Dy  Dy2       1.0  0.21488  0.79591  0.52596  1.0000
  H   H1        1.0  0.22128  0.40071  0.03370  1.0000
  H   H2        1.0  0.77874  0.59928  0.96629  1.0000
  H   H3        1.0  0.41309  0.50968  0.90651  1.0000
  H   H4        1.0  0.58691  0.49031  0.09348  1.0000
  H   H5        1.0  0.47879  0.05308  0.78731  1.0000
  H   H6        1.0  0.52121  0.94690  0.21269  1.0000
  H   H7        1.0  0.29394  0.92438  0.90785  1.0000
  H   H8        1.0  0.70607  0.07560  0.09216  1.0000
  H   H9        1.0  0.30759  0.80110  0.12062  1.0000
  H   H10       1.0  0.69242  0.19890  0.87938  1.0000
  H   H11       1.0  0.08772  0.62467  0.12297  1.0000
  H   H12       1.0  0.91230  0.37533  0.87704  1.0000
  H   H13       1.0  0.03137  0.44484  0.40883  1.0000
  H   H14       1.0  0.96863  0.55517  0.59117  1.0000
  H   H15       1.0  0.12206  0.24184  0.42185  1.0000
  H   H16       1.0  0.87794  0.75816  0.57816  1.0000
  C   C1        1.0  0.91022  0.08775  0.28814  1.0000
  C   C2        1.0  0.08979  0.91225  0.71185  1.0000
  C   C3        1.0  0.01915  0.04103  0.20669  1.0000
  C   C4        1.0  0.98085  0.95898  0.79331  1.0000
  C   C5        1.0  0.10799  0.87037  0.20646  1.0000
  C   C6        1.0  0.89201  0.12966  0.79355  1.0000
  C   C7        1.0  0.10480  0.69174  0.26735  1.0000
  C   C8        1.0  0.89518  0.30829  0.73262  1.0000
  C   C9        1.0  0.15987  0.07358  0.07061  1.0000
  C   C10       1.0  0.84015  0.92641  0.92940  1.0000
  C   C11       1.0  0.24744  0.15100  0.98461  1.0000
  C   C12       1.0  0.75257  0.84903  0.01539  1.0000
  C   C13       1.0  0.27550  0.32154  0.97923  1.0000
  C   C14       1.0  0.72450  0.67846  0.02078  1.0000
  C   C15       1.0  0.38496  0.37964  0.91092  1.0000
  C   C16       1.0  0.61505  0.62036  0.08909  1.0000
  C   C17       1.0  0.42046  0.12590  0.84392  1.0000
  C   C18       1.0  0.57954  0.87409  0.15609  1.0000
  C   C19       1.0  0.31557  0.05503  0.91069  1.0000
  C   C20       1.0  0.68443  0.94495  0.08931  1.0000
  C   C21       1.0  0.44095  0.06852  0.44570  1.0000
  C   C22       1.0  0.55905  0.93148  0.55430  1.0000
  C   C23       1.0  0.51933  0.56300  0.44768  1.0000
  C   C24       1.0  0.48064  0.43702  0.55231  1.0000
  N   N1        1.0  0.04922  0.16498  0.11996  1.0000
  N   N2        1.0  0.95078  0.83500  0.88006  1.0000
  N   N3        1.0  0.19325  0.89372  0.11759  1.0000
  N   N4        1.0  0.80673  0.10628  0.88241  1.0000
  N   N5        1.0  0.46379  0.28005  0.84909  1.0000
  N   N6        1.0  0.53622  0.71995  0.15090  1.0000
  O   O1        1.0  0.78362  0.21977  0.25921  1.0000
  O   O2        1.0  0.21640  0.78022  0.74080  1.0000
  O   O3        1.0  0.95632  0.98781  0.39277  1.0000
  O   O4        1.0  0.04367  0.01220  0.60723  1.0000
  O   O5        1.0  0.09772  0.64730  0.37006  1.0000
  O   O6        1.0  0.90227  0.35268  0.62993  1.0000
  O   O7        1.0  0.10918  0.56829  0.20584  1.0000
  O   O8        1.0  0.89084  0.43170  0.79416  1.0000
  O   O9        1.0  0.50835  0.17240  0.38450  1.0000
  O   O10       1.0  0.49164  0.82760  0.61549  1.0000
  O   O11       1.0  0.28306  0.06343  0.42833  1.0000
  O   O12       1.0  0.71693  0.93658  0.57167  1.0000
  O   O13       1.0  0.64695  0.50090  0.40847  1.0000
  O   O14       1.0  0.35304  0.49910  0.59152  1.0000
  O   O15       1.0  0.42043  0.71742  0.41073  1.0000
  O   O16       1.0  0.57957  0.28259  0.58927  1.0000
  O   O17       1.0  0.01522  0.32277  0.42734  1.0000
  O   O18       1.0  0.98477  0.67724  0.57267  1.0000
