data_image0
_chemical_formula_structural       Gd4H28C44N12O28
_chemical_formula_sum              "Gd4 H28 C44 N12 O28"
_cell_length_a       8.18525
_cell_length_b       11.5765
_cell_length_c       14.9213
_cell_angle_alpha    90.0001
_cell_angle_beta     89.9999
_cell_angle_gamma    91.8218

_space_group_name_H-M_alt    "P 1"
_space_group_IT_number       1

loop_
  _space_group_symop_operation_xyz
  'x, y, z'

loop_
  _atom_site_type_symbol
  _atom_site_label
  _atom_site_symmetry_multiplicity
  _atom_site_fract_x
  _atom_site_fract_y
  _atom_site_fract_z
  _atom_site_occupancy
  Gd  Gd1       1.0  0.22285  0.07404  0.86886  1.0000
  Gd  Gd2       1.0  0.77716  0.42596  0.36887  1.0000
  Gd  Gd3       1.0  0.77715  0.92596  0.13113  1.0000
  Gd  Gd4       1.0  0.22285  0.57404  0.63113  1.0000
  H   H1        1.0  0.83540  0.64804  0.94368  1.0000
  H   H2        1.0  0.16460  0.85197  0.44368  1.0000
  H   H3        1.0  0.16460  0.35196  0.05632  1.0000
  H   H4        1.0  0.83540  0.14804  0.55632  1.0000
  H   H5        1.0  0.46476  0.03814  0.72653  1.0000
  H   H6        1.0  0.53525  0.46186  0.22653  1.0000
  H   H7        1.0  0.53524  0.96186  0.27347  1.0000
  H   H8        1.0  0.46475  0.53814  0.77347  1.0000
  H   H9        1.0  0.53189  0.16085  0.77291  1.0000
  H   H10       1.0  0.46811  0.33915  0.27291  1.0000
  H   H11       1.0  0.46811  0.83915  0.22709  1.0000
  H   H12       1.0  0.53189  0.66085  0.72709  1.0000
  H   H13       1.0  0.91400  0.40171  0.93912  1.0000
  H   H14       1.0  0.08601  0.09830  0.43912  1.0000
  H   H15       1.0  0.08600  0.59829  0.06088  1.0000
  H   H16       1.0  0.91400  0.90171  0.56088  1.0000
  H   H17       1.0  0.74624  0.22058  0.91683  1.0000
  H   H18       1.0  0.25376  0.27942  0.41683  1.0000
  H   H19       1.0  0.25377  0.77942  0.08317  1.0000
  H   H20       1.0  0.74623  0.72058  0.58317  1.0000
  H   H21       1.0  0.58633  0.32839  0.66778  1.0000
  H   H22       1.0  0.41367  0.17161  0.16778  1.0000
  H   H23       1.0  0.41365  0.67161  0.33222  1.0000
  H   H24       1.0  0.58634  0.82839  0.83222  1.0000
  H   H25       1.0  0.74933  0.51520  0.67925  1.0000
  H   H26       1.0  0.25067  0.98480  0.17924  1.0000
  H   H27       1.0  0.25066  0.48480  0.32076  1.0000
  H   H28       1.0  0.74934  0.01520  0.82076  1.0000
  C   C1        1.0  0.96218  0.85957  0.93375  1.0000
  C   C2        1.0  0.03782  0.64043  0.43375  1.0000
  C   C3        1.0  0.03783  0.14042  0.06625  1.0000
  C   C4        1.0  0.96217  0.35958  0.56626  1.0000
  C   C5        1.0  0.99528  0.76093  0.87363  1.0000
  C   C6        1.0  0.00472  0.73907  0.37363  1.0000
  C   C7        1.0  0.00473  0.23907  0.12638  1.0000
  C   C8        1.0  0.99527  0.26093  0.62638  1.0000
  C   C9        1.0  0.07251  0.74543  0.79154  1.0000
  C   C10       1.0  0.92749  0.75457  0.29154  1.0000
  C   C11       1.0  0.92749  0.25456  0.20847  1.0000
  C   C12       1.0  0.07251  0.24543  0.70846  1.0000
  C   C13       1.0  0.18727  0.82023  0.73721  1.0000
  C   C14       1.0  0.81273  0.67977  0.23721  1.0000
  C   C15       1.0  0.81273  0.17976  0.26280  1.0000
  C   C16       1.0  0.18727  0.32024  0.76280  1.0000
  C   C17       1.0  0.93281  0.58537  0.81957  1.0000
  C   C18       1.0  0.06719  0.91463  0.31957  1.0000
  C   C19       1.0  0.06719  0.41463  0.18043  1.0000
  C   C20       1.0  0.93281  0.08537  0.68043  1.0000
  C   C21       1.0  0.84371  0.47404  0.81059  1.0000
  C   C22       1.0  0.15629  0.02596  0.31059  1.0000
  C   C23       1.0  0.15629  0.52595  0.18941  1.0000
  C   C24       1.0  0.84371  0.97404  0.68941  1.0000
  C   C25       1.0  0.84202  0.38991  0.87818  1.0000
  C   C26       1.0  0.15798  0.11009  0.37818  1.0000
  C   C27       1.0  0.15798  0.61009  0.12182  1.0000
  C   C28       1.0  0.84202  0.88991  0.62182  1.0000
  C   C29       1.0  0.75050  0.28757  0.86541  1.0000
  C   C30       1.0  0.24950  0.21243  0.36541  1.0000
  C   C31       1.0  0.24950  0.71243  0.13459  1.0000
  C   C32       1.0  0.75050  0.78757  0.63459  1.0000
  C   C33       1.0  0.66236  0.34791  0.72637  1.0000
  C   C34       1.0  0.33764  0.15209  0.22637  1.0000
  C   C35       1.0  0.33763  0.65209  0.27363  1.0000
  C   C36       1.0  0.66236  0.84791  0.77363  1.0000
  C   C37       1.0  0.75108  0.45199  0.73304  1.0000
  C   C38       1.0  0.24893  0.04801  0.23304  1.0000
  C   C39       1.0  0.24892  0.54801  0.26696  1.0000
  C   C40       1.0  0.75108  0.95199  0.76696  1.0000
  C   C41       1.0  0.53468  0.06333  0.00071  1.0000
  C   C42       1.0  0.46531  0.43667  0.50071  1.0000
  C   C43       1.0  0.46533  0.93669  0.99928  1.0000
  C   C44       1.0  0.53467  0.56331  0.49929  1.0000
  N   N1        1.0  0.91229  0.65777  0.89024  1.0000
  N   N2        1.0  0.08771  0.84223  0.39024  1.0000
  N   N3        1.0  0.08772  0.34222  0.10976  1.0000
  N   N4        1.0  0.91228  0.15778  0.60976  1.0000
  N   N5        1.0  0.03164  0.63649  0.75917  1.0000
  N   N6        1.0  0.96837  0.86351  0.25917  1.0000
  N   N7        1.0  0.96837  0.36350  0.24083  1.0000
  N   N8        1.0  0.03163  0.13649  0.74083  1.0000
  N   N9        1.0  0.66271  0.26680  0.79077  1.0000
  N   N10       1.0  0.33729  0.23320  0.29077  1.0000
  N   N11       1.0  0.33729  0.73320  0.20923  1.0000
  N   N12       1.0  0.66271  0.76680  0.70923  1.0000
  O   O1        1.0  0.88775  0.83149  0.00566  1.0000
  O   O2        1.0  0.11224  0.66851  0.50566  1.0000
  O   O3        1.0  0.11226  0.16851  0.99434  1.0000
  O   O4        1.0  0.88775  0.33149  0.49434  1.0000
  O   O5        1.0  0.99623  0.96116  0.90743  1.0000
  O   O6        1.0  0.00377  0.53884  0.40744  1.0000
  O   O7        1.0  0.00378  0.03883  0.09256  1.0000
  O   O8        1.0  0.99623  0.46117  0.59257  1.0000
  O   O9        1.0  0.23021  0.92032  0.76426  1.0000
  O   O10       1.0  0.76979  0.57968  0.26426  1.0000
  O   O11       1.0  0.76979  0.07968  0.23574  1.0000
  O   O12       1.0  0.23021  0.42032  0.73574  1.0000
  O   O13       1.0  0.23557  0.77585  0.66436  1.0000
  O   O14       1.0  0.76443  0.72415  0.16436  1.0000
  O   O15       1.0  0.76444  0.22415  0.33565  1.0000
  O   O16       1.0  0.23556  0.27585  0.83565  1.0000
  O   O17       1.0  0.43386  0.10528  0.76092  1.0000
  O   O18       1.0  0.56614  0.39472  0.26092  1.0000
  O   O19       1.0  0.56613  0.89472  0.23908  1.0000
  O   O20       1.0  0.43386  0.60528  0.73908  1.0000
  O   O21       1.0  0.45785  0.13681  0.95602  1.0000
  O   O22       1.0  0.54215  0.36319  0.45602  1.0000
  O   O23       1.0  0.54216  0.86320  0.04397  1.0000
  O   O24       1.0  0.45784  0.63679  0.54396  1.0000
  O   O25       1.0  0.66332  0.08217  0.04661  1.0000
  O   O26       1.0  0.33667  0.41783  0.54661  1.0000
  O   O27       1.0  0.33668  0.91784  0.95338  1.0000
  O   O28       1.0  0.66332  0.58215  0.45338  1.0000
