data_image0
_chemical_formula_structural       NiP2H32C30S4N6O4
_chemical_formula_sum              "Ni1 P2 H32 C30 S4 N6 O4"
_cell_length_a       6.87265
_cell_length_b       10.5808
_cell_length_c       12.8032
_cell_angle_alpha    66.8781
_cell_angle_beta     86.4836
_cell_angle_gamma    88.5865

_space_group_name_H-M_alt    "P 1"
_space_group_IT_number       1

loop_
  _space_group_symop_operation_xyz
  'x, y, z'

loop_
  _atom_site_type_symbol
  _atom_site_label
  _atom_site_symmetry_multiplicity
  _atom_site_fract_x
  _atom_site_fract_y
  _atom_site_fract_z
  _atom_site_occupancy
  Ni  Ni1       1.0  0.50000  0.00000  1.00000  1.0000
  P   P1        1.0  0.46163  0.10567  0.18002  1.0000
  P   P2        1.0  0.53837  0.89433  0.81998  1.0000
  H   H1        1.0  0.60207  0.36362  0.04745  1.0000
  H   H2        1.0  0.39793  0.63638  0.95255  1.0000
  H   H3        1.0  0.79710  0.29732  0.14029  1.0000
  H   H4        1.0  0.20290  0.70268  0.85971  1.0000
  H   H5        1.0  0.71823  0.54778  0.10445  1.0000
  H   H6        1.0  0.28176  0.45222  0.89555  1.0000
  H   H7        1.0  0.68435  0.43772  0.25101  1.0000
  H   H8        1.0  0.31565  0.56228  0.74899  1.0000
  H   H9        1.0  0.47960  0.49724  0.16460  1.0000
  H   H10       1.0  0.52039  0.50276  0.83540  1.0000
  H   H11       1.0  0.05028  0.02871  0.24050  1.0000
  H   H12       1.0  0.94971  0.97129  0.75950  1.0000
  H   H13       1.0  0.87983  0.87507  0.41778  1.0000
  H   H14       1.0  0.12017  0.12493  0.58222  1.0000
  H   H15       1.0  0.42224  0.78950  0.58578  1.0000
  H   H16       1.0  0.57775  0.21050  0.41423  1.0000
  H   H17       1.0  0.59605  0.94094  0.40383  1.0000
  H   H18       1.0  0.40395  0.05907  0.59617  1.0000
  H   H19       1.0  0.81641  0.65303  0.71400  1.0000
  H   H20       1.0  0.18358  0.34697  0.28600  1.0000
  H   H21       1.0  0.80808  0.67172  0.56851  1.0000
  H   H22       1.0  0.19192  0.32828  0.43149  1.0000
  H   H23       1.0  0.77928  0.81907  0.60566  1.0000
  H   H24       1.0  0.22071  0.18093  0.39434  1.0000
  H   H25       1.0  0.57098  0.76318  0.21789  1.0000
  H   H26       1.0  0.42903  0.23682  0.78210  1.0000
  H   H27       1.0  0.01904  0.57084  0.36995  1.0000
  H   H28       1.0  0.98096  0.42915  0.63005  1.0000
  H   H29       1.0  0.86950  0.72380  0.18919  1.0000
  H   H30       1.0  0.13051  0.27620  0.81081  1.0000
  H   H31       1.0  0.07854  0.89513  0.03494  1.0000
  H   H32       1.0  0.92146  0.10488  0.96506  1.0000
  C   C1        1.0  0.64807  0.33905  0.13424  1.0000
  C   C2        1.0  0.35192  0.66095  0.86576  1.0000
  C   C3        1.0  0.63153  0.46212  0.16611  1.0000
  C   C4        1.0  0.36847  0.53788  0.83389  1.0000
  C   C5        1.0  0.33402  0.99609  0.31029  1.0000
  C   C6        1.0  0.66598  0.00391  0.68971  1.0000
  C   C7        1.0  0.13268  0.97655  0.31590  1.0000
  C   C8        1.0  0.86732  0.02345  0.68411  1.0000
  C   C9        1.0  0.03601  0.88968  0.41662  1.0000
  C   C10       1.0  0.96398  0.11032  0.58339  1.0000
  C   C11       1.0  0.14129  0.82197  0.51362  1.0000
  C   C12       1.0  0.85870  0.17803  0.48639  1.0000
  C   C13       1.0  0.34416  0.84061  0.50860  1.0000
  C   C14       1.0  0.65584  0.15939  0.49140  1.0000
  C   C15       1.0  0.43899  0.92621  0.40771  1.0000
  C   C16       1.0  0.56101  0.07379  0.59230  1.0000
  C   C17       1.0  0.85319  0.71981  0.62534  1.0000
  C   C18       1.0  0.14680  0.28019  0.37466  1.0000
  C   C19       1.0  0.41562  0.75065  0.21410  1.0000
  C   C20       1.0  0.58438  0.24935  0.78589  1.0000
  C   C21       1.0  0.30930  0.65358  0.30656  1.0000
  C   C22       1.0  0.69071  0.34642  0.69344  1.0000
  C   C23       1.0  0.10782  0.64297  0.29914  1.0000
  C   C24       1.0  0.89219  0.35703  0.70086  1.0000
  C   C25       1.0  0.02465  0.72864  0.19949  1.0000
  C   C26       1.0  0.97536  0.27136  0.80051  1.0000
  C   C27       1.0  0.14024  0.82508  0.11310  1.0000
  C   C28       1.0  0.85976  0.17492  0.88690  1.0000
  C   C29       1.0  0.41025  0.57117  0.40900  1.0000
  C   C30       1.0  0.58975  0.42883  0.59099  1.0000
  S   S1        1.0  0.29184  0.16561  0.04747  1.0000
  S   S2        1.0  0.70816  0.83439  0.95253  1.0000
  S   S3        1.0  0.70155  0.01211  0.14844  1.0000
  S   S4        1.0  0.29845  0.98789  0.85156  1.0000
  N   N1        1.0  0.33329  0.83682  0.12034  1.0000
  N   N2        1.0  0.66672  0.16319  0.87966  1.0000
  N   N3        1.0  0.60743  0.57799  0.40397  1.0000
  N   N4        1.0  0.39257  0.42201  0.59602  1.0000
  N   N5        1.0  0.30135  0.49390  0.50373  1.0000
  N   N6        1.0  0.69866  0.50611  0.49627  1.0000
  O   O1        1.0  0.51957  0.23193  0.21392  1.0000
  O   O2        1.0  0.48043  0.76807  0.78608  1.0000
  O   O3        1.0  0.06066  0.73652  0.61610  1.0000
  O   O4        1.0  0.93933  0.26349  0.38390  1.0000
