data_image0
_chemical_formula_structural       Li4P4H20C8N12O20
_chemical_formula_sum              "Li4 P4 H20 C8 N12 O20"
_cell_length_a       6.78519
_cell_length_b       7.13074
_cell_length_c       13.665
_cell_angle_alpha    91.4121
_cell_angle_beta     89.9999
_cell_angle_gamma    89.9999

_space_group_name_H-M_alt    "P 1"
_space_group_IT_number       1

loop_
  _space_group_symop_operation_xyz
  'x, y, z'

loop_
  _atom_site_type_symbol
  _atom_site_label
  _atom_site_symmetry_multiplicity
  _atom_site_fract_x
  _atom_site_fract_y
  _atom_site_fract_z
  _atom_site_occupancy
  Li  Li1       1.0  0.86634  0.42509  0.26347  1.0000
  Li  Li2       1.0  0.36634  0.07491  0.23653  1.0000
  Li  Li3       1.0  0.13366  0.57491  0.73653  1.0000
  Li  Li4       1.0  0.63366  0.92509  0.76347  1.0000
  P   P1        1.0  0.94797  0.20385  0.66168  1.0000
  P   P2        1.0  0.44797  0.29616  0.83832  1.0000
  P   P3        1.0  0.05203  0.79616  0.33832  1.0000
  P   P4        1.0  0.55203  0.70384  0.16168  1.0000
  H   H1        1.0  0.68385  0.22181  0.54911  1.0000
  H   H2        1.0  0.18385  0.27819  0.95089  1.0000
  H   H3        1.0  0.31615  0.77819  0.45089  1.0000
  H   H4        1.0  0.81615  0.72181  0.04911  1.0000
  H   H5        1.0  0.19403  0.31545  0.39914  1.0000
  H   H6        1.0  0.69402  0.18456  0.10086  1.0000
  H   H7        1.0  0.80598  0.68455  0.60086  1.0000
  H   H8        1.0  0.30598  0.81544  0.89914  1.0000
  H   H9        1.0  0.28551  0.13814  0.67610  1.0000
  H   H10       1.0  0.78551  0.36186  0.82390  1.0000
  H   H11       1.0  0.71449  0.86186  0.32390  1.0000
  H   H12       1.0  0.21449  0.63814  0.17610  1.0000
  H   H13       1.0  0.98275  0.10786  0.22157  1.0000
  H   H14       1.0  0.48275  0.39214  0.27843  1.0000
  H   H15       1.0  0.01725  0.89214  0.77843  1.0000
  H   H16       1.0  0.51725  0.60786  0.72157  1.0000
  H   H17       1.0  1.00000  0.21823  0.12357  1.0000
  H   H18       1.0  0.50000  0.28177  0.37643  1.0000
  H   H19       1.0  0.00000  0.78177  0.87643  1.0000
  H   H20       1.0  0.50000  0.71823  0.62357  1.0000
  C   C1        1.0  0.25786  0.22576  0.53590  1.0000
  C   C2        1.0  0.75785  0.27425  0.96410  1.0000
  C   C3        1.0  0.74214  0.77424  0.46410  1.0000
  C   C4        1.0  0.24214  0.72576  0.03591  1.0000
  C   C5        1.0  0.92373  0.27986  0.46696  1.0000
  C   C6        1.0  0.42372  0.22014  0.03304  1.0000
  C   C7        1.0  0.07627  0.72013  0.53304  1.0000
  C   C8        1.0  0.57627  0.77986  0.96696  1.0000
  N   N1        1.0  0.18124  0.16947  0.62236  1.0000
  N   N2        1.0  0.68124  0.33053  0.87764  1.0000
  N   N3        1.0  0.81876  0.83053  0.37764  1.0000
  N   N4        1.0  0.31876  0.66947  0.12236  1.0000
  N   N5        1.0  0.12717  0.28480  0.46484  1.0000
  N   N6        1.0  0.62716  0.21521  0.03516  1.0000
  N   N7        1.0  0.87284  0.71520  0.53516  1.0000
  N   N8        1.0  0.37283  0.78479  0.96484  1.0000
  N   N9        1.0  0.83692  0.22587  0.55179  1.0000
  N   N10       1.0  0.33691  0.27413  0.94820  1.0000
  N   N11       1.0  0.16309  0.77413  0.44820  1.0000
  N   N12       1.0  0.66308  0.72587  0.05180  1.0000
  O   O1        1.0  0.43769  0.22398  0.51786  1.0000
  O   O2        1.0  0.93769  0.27602  0.98214  1.0000
  O   O3        1.0  0.56231  0.77602  0.48214  1.0000
  O   O4        1.0  0.06231  0.72398  0.01787  1.0000
  O   O5        1.0  0.82587  0.32260  0.39359  1.0000
  O   O6        1.0  0.32587  0.17740  0.10641  1.0000
  O   O7        1.0  0.17413  0.67740  0.60641  1.0000
  O   O8        1.0  0.67413  0.82260  0.89359  1.0000
  O   O9        1.0  0.87229  0.03130  0.71045  1.0000
  O   O10       1.0  0.37230  0.46870  0.78955  1.0000
  O   O11       1.0  0.12770  0.96870  0.28955  1.0000
  O   O12       1.0  0.62770  0.53130  0.21045  1.0000
  O   O13       1.0  0.93391  0.38385  0.72221  1.0000
  O   O14       1.0  0.43391  0.11615  0.77779  1.0000
  O   O15       1.0  0.06609  0.61616  0.27779  1.0000
  O   O16       1.0  0.56609  0.88384  0.22221  1.0000
  O   O17       1.0  0.91790  0.20603  0.18238  1.0000
  O   O18       1.0  0.41791  0.29397  0.31762  1.0000
  O   O19       1.0  0.08210  0.79397  0.81762  1.0000
  O   O20       1.0  0.58210  0.70603  0.68238  1.0000
