data_image0
_chemical_formula_structural       Cs4P4H12C8N12O16
_chemical_formula_sum              "Cs4 P4 H12 C8 N12 O16"
_cell_length_a       6.79359
_cell_length_b       7.46944
_cell_length_c       14.9724
_cell_angle_alpha    89.9999
_cell_angle_beta     90.0002
_cell_angle_gamma    93.6786

_space_group_name_H-M_alt    "P 1"
_space_group_IT_number       1

loop_
  _space_group_symop_operation_xyz
  'x, y, z'

loop_
  _atom_site_type_symbol
  _atom_site_label
  _atom_site_symmetry_multiplicity
  _atom_site_fract_x
  _atom_site_fract_y
  _atom_site_fract_z
  _atom_site_occupancy
  Cs  Cs1       1.0  0.54110  0.79741  0.37202  1.0000
  Cs  Cs2       1.0  0.45890  0.70258  0.87202  1.0000
  Cs  Cs3       1.0  0.45890  0.20258  0.62798  1.0000
  Cs  Cs4       1.0  0.54110  0.29742  0.12798  1.0000
  P   P1        1.0  0.75095  0.71344  0.63779  1.0000
  P   P2        1.0  0.24905  0.78656  0.13779  1.0000
  P   P3        1.0  0.24905  0.28656  0.36221  1.0000
  P   P4        1.0  0.75095  0.21344  0.86221  1.0000
  H   H1        1.0  0.87360  0.93175  0.53645  1.0000
  H   H2        1.0  0.12640  0.56825  0.03645  1.0000
  H   H3        1.0  0.12640  0.06825  0.46355  1.0000
  H   H4        1.0  0.87360  0.43175  0.96355  1.0000
  H   H5        1.0  0.34429  0.64593  0.60431  1.0000
  H   H6        1.0  0.65571  0.85406  0.10431  1.0000
  H   H7        1.0  0.65571  0.35407  0.39569  1.0000
  H   H8        1.0  0.34429  0.14593  0.89569  1.0000
  H   H9        1.0  0.83215  0.48486  0.73639  1.0000
  H   H10       1.0  0.16786  0.01514  0.23639  1.0000
  H   H11       1.0  0.16786  0.51514  0.26361  1.0000
  H   H12       1.0  0.83214  0.98486  0.76361  1.0000
  C   C1        1.0  0.11540  0.79240  0.56207  1.0000
  C   C2        1.0  0.88460  0.70760  0.06208  1.0000
  C   C3        1.0  0.88460  0.20760  0.43792  1.0000
  C   C4        1.0  0.11540  0.29240  0.93793  1.0000
  C   C5        1.0  0.09735  0.55794  0.67849  1.0000
  C   C6        1.0  0.90265  0.94206  0.17849  1.0000
  C   C7        1.0  0.90265  0.44206  0.32151  1.0000
  C   C8        1.0  0.09735  0.05794  0.82151  1.0000
  N   N1        1.0  0.92019  0.81731  0.56868  1.0000
  N   N2        1.0  0.07981  0.68269  0.06868  1.0000
  N   N3        1.0  0.07981  0.18270  0.43132  1.0000
  N   N4        1.0  0.92019  0.31731  0.93132  1.0000
  N   N5        1.0  0.19277  0.65980  0.61174  1.0000
  N   N6        1.0  0.80723  0.84020  0.11174  1.0000
  N   N7        1.0  0.80724  0.34020  0.38826  1.0000
  N   N8        1.0  0.19277  0.15980  0.88826  1.0000
  N   N9        1.0  0.90032  0.57340  0.68938  1.0000
  N   N10       1.0  0.09969  0.92660  0.18938  1.0000
  N   N11       1.0  0.09969  0.42660  0.31062  1.0000
  N   N12       1.0  0.90031  0.07340  0.81062  1.0000
  O   O1        1.0  0.22712  0.88868  0.51170  1.0000
  O   O2        1.0  0.77288  0.61132  0.01170  1.0000
  O   O3        1.0  0.77288  0.11132  0.48830  1.0000
  O   O4        1.0  0.22712  0.38868  0.98830  1.0000
  O   O5        1.0  0.19272  0.45526  0.72480  1.0000
  O   O6        1.0  0.80728  0.04474  0.22480  1.0000
  O   O7        1.0  0.80728  0.54474  0.27520  1.0000
  O   O8        1.0  0.19272  0.95526  0.77520  1.0000
  O   O9        1.0  0.59366  0.60925  0.58510  1.0000
  O   O10       1.0  0.40634  0.89075  0.08510  1.0000
  O   O11       1.0  0.40634  0.39075  0.41490  1.0000
  O   O12       1.0  0.59365  0.10925  0.91490  1.0000
  O   O13       1.0  0.67933  0.85096  0.70217  1.0000
  O   O14       1.0  0.32068  0.64904  0.20217  1.0000
  O   O15       1.0  0.32068  0.14904  0.29783  1.0000
  O   O16       1.0  0.67932  0.35097  0.79783  1.0000
