data_image0
_chemical_formula_structural       K4P4H12C8N12O16
_chemical_formula_sum              "K4 P4 H12 C8 N12 O16"
_cell_length_a       5.37052
_cell_length_b       7.62283
_cell_length_c       16.6439
_cell_angle_alpha    89.9999
_cell_angle_beta     89.9995
_cell_angle_gamma    99.9323

_space_group_name_H-M_alt    "P 1"
_space_group_IT_number       1

loop_
  _space_group_symop_operation_xyz
  'x, y, z'

loop_
  _atom_site_type_symbol
  _atom_site_label
  _atom_site_symmetry_multiplicity
  _atom_site_fract_x
  _atom_site_fract_y
  _atom_site_fract_z
  _atom_site_occupancy
  K   K1        1.0  0.45651  0.13004  0.31814  1.0000
  K   K2        1.0  0.54346  0.36997  0.81814  1.0000
  K   K3        1.0  0.54348  0.86997  0.68186  1.0000
  K   K4        1.0  0.45651  0.63004  0.18186  1.0000
  P   P1        1.0  0.96013  0.73425  0.33539  1.0000
  P   P2        1.0  0.03988  0.76574  0.83539  1.0000
  P   P3        1.0  0.03988  0.26575  0.66461  1.0000
  P   P4        1.0  0.96013  0.23425  0.16461  1.0000
  H   H1        1.0  0.05816  0.44865  0.31004  1.0000
  H   H2        1.0  0.94188  0.05135  0.81004  1.0000
  H   H3        1.0  0.94186  0.55135  0.68996  1.0000
  H   H4        1.0  0.05815  0.94865  0.18996  1.0000
  H   H5        1.0  0.42393  0.62774  0.51598  1.0000
  H   H6        1.0  0.57607  0.87227  0.01598  1.0000
  H   H7        1.0  0.57606  0.37227  0.48402  1.0000
  H   H8        1.0  0.42393  0.12774  0.98401  1.0000
  H   H9        1.0  0.92535  0.94165  0.43871  1.0000
  H   H10       1.0  0.07464  0.55834  0.93871  1.0000
  H   H11       1.0  0.07465  0.05834  0.56129  1.0000
  H   H12       1.0  0.92534  0.44166  0.06129  1.0000
  C   C1        1.0  0.18110  0.79690  0.48400  1.0000
  C   C2        1.0  0.81891  0.70312  0.98400  1.0000
  C   C3        1.0  0.81891  0.20312  0.51600  1.0000
  C   C4        1.0  0.18110  0.29690  0.01600  1.0000
  C   C5        1.0  0.23291  0.51792  0.41504  1.0000
  C   C6        1.0  0.76710  0.98208  0.91503  1.0000
  C   C7        1.0  0.76711  0.48207  0.58496  1.0000
  C   C8        1.0  0.23291  0.01792  0.08496  1.0000
  N   N1        1.0  0.28572  0.64590  0.47414  1.0000
  N   N2        1.0  0.71429  0.85410  0.97414  1.0000
  N   N3        1.0  0.71428  0.35409  0.52586  1.0000
  N   N4        1.0  0.28572  0.14591  0.02586  1.0000
  N   N5        1.0  0.06326  0.54064  0.35715  1.0000
  N   N6        1.0  0.93675  0.95936  0.85715  1.0000
  N   N7        1.0  0.93674  0.45936  0.64285  1.0000
  N   N8        1.0  0.06326  0.04063  0.14284  1.0000
  N   N9        1.0  0.02530  0.83819  0.42543  1.0000
  N   N10       1.0  0.97469  0.66180  0.92543  1.0000
  N   N11       1.0  0.97470  0.16181  0.57457  1.0000
  N   N12       1.0  0.02529  0.33819  0.07457  1.0000
  O   O1        1.0  0.68195  0.70653  0.32022  1.0000
  O   O2        1.0  0.31805  0.79344  0.82021  1.0000
  O   O3        1.0  0.31806  0.29346  0.67978  1.0000
  O   O4        1.0  0.68195  0.20653  0.17979  1.0000
  O   O5        1.0  0.13079  0.83058  0.27091  1.0000
  O   O6        1.0  0.86920  0.66941  0.77092  1.0000
  O   O7        1.0  0.86920  0.16942  0.72908  1.0000
  O   O8        1.0  0.13078  0.33058  0.22909  1.0000
  O   O9        1.0  0.23207  0.88881  0.54643  1.0000
  O   O10       1.0  0.76792  0.61120  0.04643  1.0000
  O   O11       1.0  0.76793  0.11120  0.45357  1.0000
  O   O12       1.0  0.23206  0.38881  0.95357  1.0000
  O   O13       1.0  0.33571  0.38244  0.41792  1.0000
  O   O14       1.0  0.66427  0.11755  0.91791  1.0000
  O   O15       1.0  0.66429  0.61755  0.58208  1.0000
  O   O16       1.0  0.33571  0.88244  0.08207  1.0000
