data_image0
_chemical_formula_structural       H12Pb4C28N4O16
_chemical_formula_sum              "H12 Pb4 C28 N4 O16"
_cell_length_a       5.51277
_cell_length_b       9.86412
_cell_length_c       14.7136
_cell_angle_alpha    105.966
_cell_angle_beta     90.0087
_cell_angle_gamma    89.9918

_space_group_name_H-M_alt    "P 1"
_space_group_IT_number       1

loop_
  _space_group_symop_operation_xyz
  'x, y, z'

loop_
  _atom_site_type_symbol
  _atom_site_label
  _atom_site_symmetry_multiplicity
  _atom_site_fract_x
  _atom_site_fract_y
  _atom_site_fract_z
  _atom_site_occupancy
  H   H1        1.0  0.63312  0.50900  0.54538  1.0000
  H   H2        1.0  0.13345  0.99102  0.95462  1.0000
  H   H3        1.0  0.36680  0.49101  0.45464  1.0000
  H   H4        1.0  0.86663  0.00898  0.04537  1.0000
  H   H5        1.0  0.87444  0.72650  0.62329  1.0000
  H   H6        1.0  0.37480  0.77350  0.87668  1.0000
  H   H7        1.0  0.12548  0.27351  0.37674  1.0000
  H   H8        1.0  0.62527  0.22650  0.12331  1.0000
  H   H9        1.0  0.25016  0.70084  0.71158  1.0000
  H   H10       1.0  0.75044  0.79917  0.78839  1.0000
  H   H11       1.0  0.74972  0.29917  0.28846  1.0000
  H   H12       1.0  0.24962  0.20082  0.21159  1.0000
  Pb  Pb1       1.0  0.75912  0.38636  0.88480  1.0000
  Pb  Pb2       1.0  0.25910  0.11365  0.61517  1.0000
  Pb  Pb3       1.0  0.24092  0.61364  0.11518  1.0000
  Pb  Pb4       1.0  0.74088  0.88635  0.38480  1.0000
  C   C1        1.0  0.42811  0.45328  0.73812  1.0000
  C   C2        1.0  0.92823  0.04673  0.76186  1.0000
  C   C3        1.0  0.57181  0.54671  0.26190  1.0000
  C   C4        1.0  0.07183  0.95327  0.23813  1.0000
  C   C5        1.0  0.21676  0.47442  0.67813  1.0000
  C   C6        1.0  0.71694  0.02559  0.82185  1.0000
  C   C7        1.0  0.78314  0.52559  0.32190  1.0000
  C   C8        1.0  0.28313  0.97441  0.17814  1.0000
  C   C9        1.0  0.88835  0.37064  0.58564  1.0000
  C   C10       1.0  0.38856  0.12936  0.91434  1.0000
  C   C11       1.0  0.11158  0.62936  0.41437  1.0000
  C   C12       1.0  0.61152  0.87064  0.08565  1.0000
  C   C13       1.0  0.75245  0.23570  0.54017  1.0000
  C   C14       1.0  0.25264  0.26430  0.95981  1.0000
  C   C15       1.0  0.24751  0.76431  0.45983  1.0000
  C   C16       1.0  0.74745  0.73569  0.04018  1.0000
  C   C17       1.0  0.80084  0.50215  0.58251  1.0000
  C   C18       1.0  0.30112  0.99785  0.91747  1.0000
  C   C19       1.0  0.19908  0.49786  0.41751  1.0000
  C   C20       1.0  0.69896  0.00214  0.08252  1.0000
  C   C21       1.0  0.93356  0.62235  0.62607  1.0000
  C   C22       1.0  0.43386  0.87765  0.87390  1.0000
  C   C23       1.0  0.06635  0.37766  0.37395  1.0000
  C   C24       1.0  0.56622  0.12234  0.12609  1.0000
  C   C25       1.0  0.14419  0.60892  0.67532  1.0000
  C   C26       1.0  0.64445  0.89109  0.82465  1.0000
  C   C27       1.0  0.85570  0.39109  0.32471  1.0000
  C   C28       1.0  0.35563  0.10890  0.17533  1.0000
  N   N1        1.0  0.09339  0.35864  0.63171  1.0000
  N   N2        1.0  0.59355  0.14136  0.86827  1.0000
  N   N3        1.0  0.90654  0.64137  0.36830  1.0000
  N   N4        1.0  0.40653  0.85863  0.13172  1.0000
  O   O1        1.0  0.52709  0.55996  0.79264  1.0000
  O   O2        1.0  0.02721  0.94005  0.70733  1.0000
  O   O3        1.0  0.47280  0.44003  0.20739  1.0000
  O   O4        1.0  0.97286  0.05995  0.29266  1.0000
  O   O5        1.0  0.49091  0.32573  0.73309  1.0000
  O   O6        1.0  0.99098  0.17428  0.76688  1.0000
  O   O7        1.0  0.50906  0.67427  0.26689  1.0000
  O   O8        1.0  0.00907  0.82572  0.23310  1.0000
  O   O9        1.0  0.85223  0.11923  0.54418  1.0000
  O   O10       1.0  0.35236  0.38077  0.95581  1.0000
  O   O11       1.0  0.14772  0.88077  0.45581  1.0000
  O   O12       1.0  0.64774  0.61922  0.04420  1.0000
  O   O13       1.0  0.54837  0.24406  0.50389  1.0000
  O   O14       1.0  0.04858  0.25596  0.99609  1.0000
  O   O15       1.0  0.45159  0.75595  0.49610  1.0000
  O   O16       1.0  0.95149  0.74404  0.00390  1.0000
