data_image0
_chemical_formula_structural       Zn2H28C36N8O12
_chemical_formula_sum              "Zn2 H28 C36 N8 O12"
_cell_length_a       8.05271
_cell_length_b       8.64169
_cell_length_c       12.9658
_cell_angle_alpha    91.8856
_cell_angle_beta     93.2851
_cell_angle_gamma    96.3462

_space_group_name_H-M_alt    "P 1"
_space_group_IT_number       1

loop_
  _space_group_symop_operation_xyz
  'x, y, z'

loop_
  _atom_site_type_symbol
  _atom_site_label
  _atom_site_symmetry_multiplicity
  _atom_site_fract_x
  _atom_site_fract_y
  _atom_site_fract_z
  _atom_site_occupancy
  Zn  Zn1       1.0  0.86351  0.60827  0.24200  1.0000
  Zn  Zn2       1.0  0.13649  0.39173  0.75800  1.0000
  H   H1        1.0  0.41639  0.30335  0.27623  1.0000
  H   H2        1.0  0.58362  0.69665  0.72377  1.0000
  H   H3        1.0  0.62913  0.23185  0.40756  1.0000
  H   H4        1.0  0.37087  0.76815  0.59244  1.0000
  H   H5        1.0  0.09795  0.43402  0.51491  1.0000
  H   H6        1.0  0.90206  0.56598  0.48509  1.0000
  H   H7        1.0  0.61977  0.21360  0.82667  1.0000
  H   H8        1.0  0.38023  0.78640  0.17333  1.0000
  H   H9        1.0  0.63095  0.41908  0.83372  1.0000
  H   H10       1.0  0.36905  0.58092  0.16628  1.0000
  H   H11       1.0  0.74667  0.94862  0.31095  1.0000
  H   H12       1.0  0.25333  0.05138  0.68904  1.0000
  H   H13       1.0  0.91967  0.93381  0.39918  1.0000
  H   H14       1.0  0.08032  0.06618  0.60082  1.0000
  H   H15       1.0  0.06347  0.59920  0.03984  1.0000
  H   H16       1.0  0.93653  0.40080  0.96016  1.0000
  H   H17       1.0  0.36209  0.97112  0.89790  1.0000
  H   H18       1.0  0.63792  0.02888  0.10210  1.0000
  H   H19       1.0  0.30046  0.16436  0.03192  1.0000
  H   H20       1.0  0.69955  0.83564  0.96808  1.0000
  H   H21       1.0  0.69042  0.24758  0.63285  1.0000
  H   H22       1.0  0.30958  0.75243  0.36715  1.0000
  H   H23       1.0  0.09710  0.18429  0.20783  1.0000
  H   H24       1.0  0.90290  0.81571  0.79217  1.0000
  H   H25       1.0  0.36786  0.39174  0.89845  1.0000
  H   H26       1.0  0.63214  0.60825  0.10155  1.0000
  H   H27       1.0  0.82880  0.20688  0.30279  1.0000
  H   H28       1.0  0.17120  0.79312  0.69720  1.0000
  C   C1        1.0  0.12957  0.42986  0.30614  1.0000
  C   C2        1.0  0.87043  0.57014  0.69386  1.0000
  C   C3        1.0  0.24595  0.37392  0.38753  1.0000
  C   C4        1.0  0.75405  0.62608  0.61247  1.0000
  C   C5        1.0  0.39291  0.31309  0.35798  1.0000
  C   C6        1.0  0.60709  0.68691  0.64202  1.0000
  C   C7        1.0  0.51280  0.27214  0.43072  1.0000
  C   C8        1.0  0.48720  0.72786  0.56928  1.0000
  C   C9        1.0  0.47875  0.29126  0.53435  1.0000
  C   C10       1.0  0.52125  0.70874  0.46565  1.0000
  C   C11       1.0  0.32854  0.34500  0.56469  1.0000
  C   C12       1.0  0.67146  0.65500  0.43531  1.0000
  C   C13       1.0  0.21105  0.38845  0.49149  1.0000
  C   C14       1.0  0.78895  0.61155  0.50851  1.0000
  C   C15       1.0  0.47839  0.31028  0.70678  1.0000
  C   C16       1.0  0.52161  0.68972  0.29322  1.0000
  C   C17       1.0  0.54432  0.31134  0.81752  1.0000
  C   C18       1.0  0.45568  0.68866  0.18249  1.0000
  C   C19       1.0  0.24280  0.66815  0.87248  1.0000
  C   C20       1.0  0.75720  0.33185  0.12752  1.0000
  C   C21       1.0  0.87820  0.99565  0.33095  1.0000
  C   C22       1.0  0.12180  0.00435  0.66904  1.0000
  C   C23       1.0  0.97834  0.95618  0.24110  1.0000
  C   C24       1.0  0.02166  0.04382  0.75889  1.0000
  C   C25       1.0  0.14256  0.98855  0.11032  1.0000
  C   C26       1.0  0.85744  0.01145  0.88968  1.0000
  C   C27       1.0  0.07703  0.82990  0.11322  1.0000
  C   C28       1.0  0.92297  0.17010  0.88678  1.0000
  C   C29       1.0  0.11353  0.72115  0.03848  1.0000
  C   C30       1.0  0.88647  0.27885  0.96151  1.0000
  C   C31       1.0  0.21528  0.77569  0.96041  1.0000
  C   C32       1.0  0.78472  0.22431  0.03958  1.0000
  C   C33       1.0  0.28216  0.93414  0.95947  1.0000
  C   C34       1.0  0.71784  0.06586  0.04053  1.0000
  C   C35       1.0  0.24839  0.04296  0.03443  1.0000
  C   C36       1.0  0.75161  0.95704  0.96558  1.0000
  N   N1        1.0  0.33167  0.35274  0.67263  1.0000
  N   N2        1.0  0.66833  0.64726  0.32737  1.0000
  N   N3        1.0  0.56890  0.26964  0.62622  1.0000
  N   N4        1.0  0.43110  0.73036  0.37378  1.0000
  N   N5        1.0  0.97638  0.81341  0.19706  1.0000
  N   N6        1.0  0.02361  0.18659  0.80294  1.0000
  N   N7        1.0  0.07795  0.06345  0.19213  1.0000
  N   N8        1.0  0.92204  0.93655  0.80787  1.0000
  O   O1        1.0  0.41804  0.29324  0.88856  1.0000
  O   O2        1.0  0.58196  0.70676  0.11144  1.0000
  O   O3        1.0  0.12785  0.37876  0.21393  1.0000
  O   O4        1.0  0.87215  0.62124  0.78607  1.0000
  O   O5        1.0  0.03809  0.53479  0.33701  1.0000
  O   O6        1.0  0.96191  0.46521  0.66300  1.0000
  O   O7        1.0  0.28973  0.72062  0.78832  1.0000
  O   O8        1.0  0.71027  0.27937  0.21167  1.0000
  O   O9        1.0  0.21041  0.51911  0.88691  1.0000
  O   O10       1.0  0.78959  0.48089  0.11309  1.0000
  O   O11       1.0  0.89352  0.15617  0.35768  1.0000
  O   O12       1.0  0.10648  0.84383  0.64232  1.0000
