data_image0
_chemical_formula_structural       Cd2H28C36N8O12
_chemical_formula_sum              "Cd2 H28 C36 N8 O12"
_cell_length_a       7.80116
_cell_length_b       8.46769
_cell_length_c       13.6986
_cell_angle_alpha    94.035
_cell_angle_beta     95.5047
_cell_angle_gamma    98.8263

_space_group_name_H-M_alt    "P 1"
_space_group_IT_number       1

loop_
  _space_group_symop_operation_xyz
  'x, y, z'

loop_
  _atom_site_type_symbol
  _atom_site_label
  _atom_site_symmetry_multiplicity
  _atom_site_fract_x
  _atom_site_fract_y
  _atom_site_fract_z
  _atom_site_occupancy
  Cd  Cd1       1.0  0.83146  0.11454  0.23488  1.0000
  Cd  Cd2       1.0  0.16855  0.88545  0.76512  1.0000
  H   H1        1.0  0.30196  0.17224  0.20303  1.0000
  H   H2        1.0  0.69803  0.82775  0.79698  1.0000
  H   H3        1.0  0.41209  0.37373  0.21528  1.0000
  H   H4        1.0  0.58791  0.62627  0.78472  1.0000
  H   H5        1.0  0.89196  0.06180  0.48812  1.0000
  H   H6        1.0  0.10804  0.93820  0.51188  1.0000
  H   H7        1.0  0.59044  0.17276  0.72615  1.0000
  H   H8        1.0  0.40956  0.82724  0.27384  1.0000
  H   H9        1.0  0.37255  0.27222  0.61090  1.0000
  H   H10       1.0  0.62745  0.72778  0.38910  1.0000
  H   H11       1.0  0.80068  0.44147  0.32791  1.0000
  H   H12       1.0  0.19932  0.55853  0.67209  1.0000
  H   H13       1.0  0.00680  0.52674  0.39003  1.0000
  H   H14       1.0  0.99320  0.47326  0.60998  1.0000
  H   H15       1.0  0.06948  0.11503  0.04795  1.0000
  H   H16       1.0  0.93052  0.88497  0.95205  1.0000
  H   H17       1.0  0.36546  0.49025  0.90621  1.0000
  H   H18       1.0  0.63454  0.50975  0.09379  1.0000
  H   H19       1.0  0.30097  0.70089  0.02720  1.0000
  H   H20       1.0  0.69903  0.29911  0.97279  1.0000
  H   H21       1.0  0.29031  0.27634  0.39981  1.0000
  H   H22       1.0  0.70969  0.72366  0.60019  1.0000
  H   H23       1.0  0.11080  0.73068  0.20038  1.0000
  H   H24       1.0  0.88921  0.26932  0.79962  1.0000
  H   H25       1.0  0.49572  0.11535  0.10952  1.0000
  H   H26       1.0  0.50428  0.88466  0.89048  1.0000
  H   H27       1.0  0.80148  0.71205  0.27163  1.0000
  H   H28       1.0  0.19853  0.28795  0.72837  1.0000
  C   C1        1.0  0.43063  0.24793  0.22044  1.0000
  C   C2        1.0  0.56936  0.75207  0.77956  1.0000
  C   C3        1.0  0.50126  0.22699  0.32332  1.0000
  C   C4        1.0  0.49875  0.77301  0.67668  1.0000
  C   C5        1.0  0.51634  0.22681  0.48631  1.0000
  C   C6        1.0  0.48366  0.77319  0.51368  1.0000
  C   C7        1.0  0.66249  0.16975  0.45119  1.0000
  C   C8        1.0  0.33751  0.83024  0.54880  1.0000
  C   C9        1.0  0.78232  0.11029  0.51508  1.0000
  C   C10       1.0  0.21769  0.88971  0.48492  1.0000
  C   C11       1.0  0.75374  0.11167  0.61444  1.0000
  C   C12       1.0  0.24627  0.88834  0.38556  1.0000
  C   C13       1.0  0.61061  0.17513  0.64866  1.0000
  C   C14       1.0  0.38939  0.82487  0.35135  1.0000
  C   C15       1.0  0.48855  0.23260  0.58538  1.0000
  C   C16       1.0  0.51146  0.76740  0.41462  1.0000
  C   C17       1.0  0.87104  0.03772  0.68481  1.0000
  C   C18       1.0  0.12897  0.96228  0.31519  1.0000
  C   C19       1.0  0.91446  0.53555  0.32500  1.0000
  C   C20       1.0  0.08554  0.46445  0.67500  1.0000
  C   C21       1.0  0.99676  0.49523  0.23384  1.0000
  C   C22       1.0  0.00324  0.50477  0.76616  1.0000
  C   C23       1.0  0.15068  0.52354  0.10671  1.0000
  C   C24       1.0  0.84932  0.47647  0.89328  1.0000
  C   C25       1.0  0.08405  0.35923  0.11219  1.0000
  C   C26       1.0  0.91595  0.64078  0.88781  1.0000
  C   C27       1.0  0.12002  0.24147  0.04444  1.0000
  C   C28       1.0  0.87997  0.75853  0.95556  1.0000
  C   C29       1.0  0.22351  0.29160  0.97087  1.0000
  C   C30       1.0  0.77648  0.70840  0.02913  1.0000
  C   C31       1.0  0.28684  0.45616  0.96507  1.0000
  C   C32       1.0  0.71316  0.54383  0.03493  1.0000
  C   C33       1.0  0.25238  0.57453  0.03264  1.0000
  C   C34       1.0  0.74761  0.42547  0.96736  1.0000
  C   C35       1.0  0.25807  0.16746  0.89559  1.0000
  C   C36       1.0  0.74192  0.83254  0.10440  1.0000
  N   N1        1.0  0.41847  0.26355  0.40335  1.0000
  N   N2        1.0  0.58153  0.73645  0.59665  1.0000
  N   N3        1.0  0.64924  0.17403  0.34886  1.0000
  N   N4        1.0  0.35076  0.82597  0.65114  1.0000
  N   N5        1.0  0.98775  0.34600  0.19242  1.0000
  N   N6        1.0  0.01225  0.65400  0.80757  1.0000
  N   N7        1.0  0.09303  0.60498  0.18485  1.0000
  N   N8        1.0  0.90697  0.39502  0.81515  1.0000
  O   O1        1.0  0.54869  0.21041  0.15241  1.0000
  O   O2        1.0  0.45130  0.78959  0.84758  1.0000
  O   O3        1.0  0.95637  0.93336  0.64824  1.0000
  O   O4        1.0  0.04363  0.06664  0.35176  1.0000
  O   O5        1.0  0.87759  0.07461  0.77681  1.0000
  O   O6        1.0  0.12242  0.92539  0.22320  1.0000
  O   O7        1.0  0.87204  0.69126  0.33319  1.0000
  O   O8        1.0  0.12795  0.30874  0.66681  1.0000
  O   O9        1.0  0.23014  0.02036  0.91631  1.0000
  O   O10       1.0  0.76986  0.97964  0.08369  1.0000
  O   O11       1.0  0.30774  0.20659  0.81348  1.0000
  O   O12       1.0  0.69226  0.79341  0.18652  1.0000
