data_image0
_chemical_formula_structural       Ag2H50C26Br2N12
_chemical_formula_sum              "Ag2 H50 C26 Br2 N12"
_cell_length_a       9.71498
_cell_length_b       10.8005
_cell_length_c       11.8325
_cell_angle_alpha    96.3527
_cell_angle_beta     109.033
_cell_angle_gamma    108.105

_space_group_name_H-M_alt    "P 1"
_space_group_IT_number       1

loop_
  _space_group_symop_operation_xyz
  'x, y, z'

loop_
  _atom_site_type_symbol
  _atom_site_label
  _atom_site_symmetry_multiplicity
  _atom_site_fract_x
  _atom_site_fract_y
  _atom_site_fract_z
  _atom_site_occupancy
  Ag  Ag1       1.0  0.84591  0.36154  0.49703  1.0000
  Ag  Ag2       1.0  0.15410  0.63845  0.50297  1.0000
  H   H1        1.0  0.31522  0.01323  0.30586  1.0000
  H   H2        1.0  0.68478  0.98678  0.69415  1.0000
  H   H3        1.0  0.05645  0.05822  0.84532  1.0000
  H   H4        1.0  0.94354  0.94177  0.15468  1.0000
  H   H5        1.0  0.07479  0.92414  0.75425  1.0000
  H   H6        1.0  0.92520  0.07586  0.24574  1.0000
  H   H7        1.0  0.89657  0.90015  0.77482  1.0000
  H   H8        1.0  0.10342  0.09984  0.22517  1.0000
  H   H9        1.0  0.73786  0.85467  0.53817  1.0000
  H   H10       1.0  0.26214  0.14534  0.46182  1.0000
  H   H11       1.0  0.91971  0.86304  0.52961  1.0000
  H   H12       1.0  0.08027  0.13696  0.47038  1.0000
  H   H13       1.0  0.82650  0.97239  0.46404  1.0000
  H   H14       1.0  0.17349  0.02763  0.53595  1.0000
  H   H15       1.0  0.21598  0.16543  0.72398  1.0000
  H   H16       1.0  0.78403  0.83456  0.27602  1.0000
  H   H17       1.0  0.29934  0.29899  0.85791  1.0000
  H   H18       1.0  0.70067  0.70100  0.14209  1.0000
  H   H19       1.0  0.26113  0.33418  0.70895  1.0000
  H   H20       1.0  0.73888  0.66581  0.29105  1.0000
  H   H21       1.0  0.07297  0.45009  0.73298  1.0000
  H   H22       1.0  0.92705  0.54992  0.26703  1.0000
  H   H23       1.0  0.13226  0.42589  0.88679  1.0000
  H   H24       1.0  0.86776  0.57411  0.11321  1.0000
  H   H25       1.0  0.92933  0.36228  0.78640  1.0000
  H   H26       1.0  0.07068  0.63773  0.21360  1.0000
  H   H27       1.0  0.68397  0.01429  0.28677  1.0000
  H   H28       1.0  0.31604  0.98572  0.71323  1.0000
  H   H29       1.0  0.58054  0.90710  0.13616  1.0000
  H   H30       1.0  0.41946  0.09290  0.86385  1.0000
  H   H31       1.0  0.49745  0.88647  0.25071  1.0000
  H   H32       1.0  0.50256  0.11353  0.74931  1.0000
  H   H33       1.0  0.26229  0.92067  0.09422  1.0000
  H   H34       1.0  0.73771  0.07933  0.90579  1.0000
  H   H35       1.0  0.35588  0.95654  0.98818  1.0000
  H   H36       1.0  0.64412  0.04346  0.01183  1.0000
  H   H37       1.0  0.29864  0.07924  0.05423  1.0000
  H   H38       1.0  0.70135  0.92078  0.94578  1.0000
  H   H39       1.0  0.46206  0.36566  0.34238  1.0000
  H   H40       1.0  0.53792  0.63433  0.65761  1.0000
  H   H41       1.0  0.46289  0.45070  0.22115  1.0000
  H   H42       1.0  0.53709  0.54929  0.77884  1.0000
  H   H43       1.0  0.64374  0.46758  0.34008  1.0000
  H   H44       1.0  0.35624  0.53242  0.65991  1.0000
  H   H45       1.0  0.58032  0.21997  0.05903  1.0000
  H   H46       1.0  0.41968  0.78004  0.94097  1.0000
  H   H47       1.0  0.67202  0.39460  0.12847  1.0000
  H   H48       1.0  0.32797  0.60539  0.87152  1.0000
  H   H49       1.0  0.46927  0.32543  0.02993  1.0000
  H   H50       1.0  0.53074  0.67456  0.97007  1.0000
  C   C1        1.0  0.65977  0.08916  0.54778  1.0000
  C   C2        1.0  0.34023  0.91085  0.45224  1.0000
  C   C3        1.0  0.55280  0.09640  0.43588  1.0000
  C   C4        1.0  0.44720  0.90361  0.56414  1.0000
  C   C5        1.0  0.39709  0.00660  0.39131  1.0000
  C   C6        1.0  0.60292  0.99342  0.60871  1.0000
  C   C7        1.0  0.93105  0.15132  0.66400  1.0000
  C   C8        1.0  0.06895  0.84868  0.33600  1.0000
  C   C9        1.0  0.99558  0.97514  0.76332  1.0000
  C   C10       1.0  0.00442  0.02485  0.23667  1.0000
  C   C11       1.0  0.85034  0.92340  0.54054  1.0000
  C   C12       1.0  0.14965  0.07661  0.45944  1.0000
  C   C13       1.0  0.21762  0.26331  0.76105  1.0000
  C   C14       1.0  0.78239  0.73669  0.23895  1.0000
  C   C15       1.0  0.04847  0.37960  0.79117  1.0000
  C   C16       1.0  0.95155  0.62040  0.20882  1.0000
  C   C17       1.0  0.54130  0.17742  0.25700  1.0000
  C   C18       1.0  0.45871  0.82258  0.74300  1.0000
  C   C19       1.0  0.56759  0.96050  0.21430  1.0000
  C   C20       1.0  0.43241  0.03949  0.78571  1.0000
  C   C21       1.0  0.34610  0.00056  0.07232  1.0000
  C   C22       1.0  0.65389  0.99944  0.92768  1.0000
  C   C23       1.0  0.52350  0.39791  0.28172  1.0000
  C   C24       1.0  0.47649  0.60209  0.71827  1.0000
  C   C25       1.0  0.56265  0.30665  0.09998  1.0000
  C   C26       1.0  0.43735  0.69335  0.90002  1.0000
  Br  Br1       1.0  0.07473  0.38132  0.40236  1.0000
  Br  Br2       1.0  0.92527  0.61868  0.59761  1.0000
  N   N1        1.0  0.81418  0.18060  0.59529  1.0000
  N   N2        1.0  0.18583  0.81941  0.40471  1.0000
  N   N3        1.0  0.93860  0.02506  0.65499  1.0000
  N   N4        1.0  0.06141  0.97495  0.34502  1.0000
  N   N5        1.0  0.06110  0.25303  0.75124  1.0000
  N   N6        1.0  0.93891  0.74697  0.24875  1.0000
  N   N7        1.0  0.60127  0.19740  0.37724  1.0000
  N   N8        1.0  0.39873  0.80260  0.62277  1.0000
  N   N9        1.0  0.49774  0.05676  0.17439  1.0000
  N   N10       1.0  0.50226  0.94324  0.82563  1.0000
  N   N11       1.0  0.52203  0.28180  0.20540  1.0000
  N   N12       1.0  0.47797  0.71820  0.79461  1.0000
