data_image0
_chemical_formula_structural       Zn4H28C40S4N12O12
_chemical_formula_sum              "Zn4 H28 C40 S4 N12 O12"
_cell_length_a       9.23341
_cell_length_b       9.23341
_cell_length_c       14.747
_cell_angle_alpha    78.0579
_cell_angle_beta     78.0581
_cell_angle_gamma    61.4008

_space_group_name_H-M_alt    "P 1"
_space_group_IT_number       1

loop_
  _space_group_symop_operation_xyz
  'x, y, z'

loop_
  _atom_site_type_symbol
  _atom_site_label
  _atom_site_symmetry_multiplicity
  _atom_site_fract_x
  _atom_site_fract_y
  _atom_site_fract_z
  _atom_site_occupancy
  Zn  Zn1       1.0  0.82870  0.33190  0.31160  1.0000
  Zn  Zn2       1.0  0.66811  0.17129  0.18839  1.0000
  Zn  Zn3       1.0  0.17130  0.66810  0.68840  1.0000
  Zn  Zn4       1.0  0.33189  0.82871  0.81160  1.0000
  H   H1        1.0  0.58801  0.87835  0.40049  1.0000
  H   H2        1.0  0.12164  0.41199  0.09951  1.0000
  H   H3        1.0  0.41199  0.12164  0.59951  1.0000
  H   H4        1.0  0.87836  0.58801  0.90049  1.0000
  H   H5        1.0  0.62291  0.61919  0.50746  1.0000
  H   H6        1.0  0.38081  0.37709  0.99253  1.0000
  H   H7        1.0  0.37709  0.38081  0.49254  1.0000
  H   H8        1.0  0.61919  0.62291  0.00747  1.0000
  H   H9        1.0  0.96027  0.91103  0.51895  1.0000
  H   H10       1.0  0.08898  0.03973  0.98104  1.0000
  H   H11       1.0  0.03973  0.08897  0.48105  1.0000
  H   H12       1.0  0.91102  0.96027  0.01896  1.0000
  H   H13       1.0  0.21258  0.30019  0.73165  1.0000
  H   H14       1.0  0.69981  0.78742  0.76835  1.0000
  H   H15       1.0  0.78743  0.69981  0.26835  1.0000
  H   H16       1.0  0.30019  0.21258  0.23165  1.0000
  H   H17       1.0  0.04326  0.38832  0.81822  1.0000
  H   H18       1.0  0.61168  0.95674  0.68178  1.0000
  H   H19       1.0  0.95675  0.61168  0.18178  1.0000
  H   H20       1.0  0.38831  0.04326  0.31822  1.0000
  H   H21       1.0  0.83788  0.38587  0.64565  1.0000
  H   H22       1.0  0.61413  0.16212  0.85435  1.0000
  H   H23       1.0  0.16212  0.61413  0.35435  1.0000
  H   H24       1.0  0.38587  0.83788  0.14565  1.0000
  H   H25       1.0  0.95172  0.21610  0.80359  1.0000
  H   H26       1.0  0.78390  0.04827  0.69641  1.0000
  H   H27       1.0  0.04827  0.78390  0.19640  1.0000
  H   H28       1.0  0.21610  0.95173  0.30359  1.0000
  C   C1        1.0  0.75801  0.05243  0.38035  1.0000
  C   C2        1.0  0.94757  0.24199  0.11965  1.0000
  C   C3        1.0  0.24199  0.94757  0.61965  1.0000
  C   C4        1.0  0.05242  0.75801  0.88035  1.0000
  C   C5        1.0  0.77329  0.90755  0.45196  1.0000
  C   C6        1.0  0.09245  0.22671  0.04803  1.0000
  C   C7        1.0  0.22671  0.09244  0.54804  1.0000
  C   C8        1.0  0.90755  0.77329  0.95197  1.0000
  C   C9        1.0  0.67749  0.82604  0.45051  1.0000
  C   C10       1.0  0.17396  0.32251  0.04949  1.0000
  C   C11       1.0  0.32251  0.17396  0.54950  1.0000
  C   C12       1.0  0.82604  0.67749  0.95051  1.0000
  C   C13       1.0  0.69595  0.68189  0.50971  1.0000
  C   C14       1.0  0.31811  0.30405  0.99029  1.0000
  C   C15       1.0  0.30405  0.31811  0.49029  1.0000
  C   C16       1.0  0.68189  0.69595  0.00971  1.0000
  C   C17       1.0  0.81450  0.62072  0.57129  1.0000
  C   C18       1.0  0.37928  0.18550  0.92871  1.0000
  C   C19       1.0  0.18550  0.37928  0.42871  1.0000
  C   C20       1.0  0.62072  0.81450  0.07129  1.0000
  C   C21       1.0  0.90742  0.70375  0.57604  1.0000
  C   C22       1.0  0.29625  0.09258  0.92396  1.0000
  C   C23       1.0  0.09258  0.29624  0.42396  1.0000
  C   C24       1.0  0.70375  0.90743  0.07604  1.0000
  C   C25       1.0  0.88763  0.84835  0.51621  1.0000
  C   C26       1.0  0.15165  0.11237  0.98379  1.0000
  C   C27       1.0  0.11237  0.15165  0.48379  1.0000
  C   C28       1.0  0.84835  0.88763  0.01621  1.0000
  C   C29       1.0  0.98904  0.47916  0.67754  1.0000
  C   C30       1.0  0.52084  0.01096  0.82245  1.0000
  C   C31       1.0  0.01096  0.52084  0.32246  1.0000
  C   C32       1.0  0.47916  0.98904  0.17755  1.0000
  C   C33       1.0  0.07813  0.34073  0.75015  1.0000
  C   C34       1.0  0.65927  0.92187  0.74986  1.0000
  C   C35       1.0  0.92187  0.65927  0.24985  1.0000
  C   C36       1.0  0.34073  0.07813  0.25014  1.0000
  C   C37       1.0  0.47297  0.60865  0.36547  1.0000
  C   C38       1.0  0.39136  0.52703  0.13453  1.0000
  C   C39       1.0  0.52703  0.39135  0.63453  1.0000
  C   C40       1.0  0.60864  0.47298  0.86546  1.0000
  S   S1        1.0  0.29392  0.73934  0.41209  1.0000
  S   S2        1.0  0.26066  0.70608  0.08791  1.0000
  S   S3        1.0  0.70608  0.26066  0.58791  1.0000
  S   S4        1.0  0.73934  0.29392  0.91209  1.0000
  N   N1        1.0  0.01420  0.61239  0.64398  1.0000
  N   N2        1.0  0.38761  0.98580  0.85602  1.0000
  N   N3        1.0  0.98580  0.38760  0.35602  1.0000
  N   N4        1.0  0.61239  0.01420  0.14398  1.0000
  N   N5        1.0  0.86985  0.48074  0.63632  1.0000
  N   N6        1.0  0.51926  0.13015  0.86368  1.0000
  N   N7        1.0  0.13015  0.51926  0.36368  1.0000
  N   N8        1.0  0.48073  0.86985  0.13632  1.0000
  N   N9        1.0  0.60452  0.51143  0.33346  1.0000
  N   N10       1.0  0.48857  0.39549  0.16653  1.0000
  N   N11       1.0  0.39547  0.48857  0.66654  1.0000
  N   N12       1.0  0.51144  0.60452  0.83346  1.0000
  O   O1        1.0  0.64777  0.10637  0.32558  1.0000
  O   O2        1.0  0.89363  0.35222  0.17442  1.0000
  O   O3        1.0  0.35223  0.89363  0.67442  1.0000
  O   O4        1.0  0.10637  0.64778  0.82558  1.0000
  O   O5        1.0  0.85791  0.11344  0.37761  1.0000
  O   O6        1.0  0.88656  0.14209  0.12239  1.0000
  O   O7        1.0  0.14209  0.88656  0.62239  1.0000
  O   O8        1.0  0.11344  0.85791  0.87761  1.0000
  O   O9        1.0  0.04648  0.20379  0.75441  1.0000
  O   O10       1.0  0.79621  0.95352  0.74559  1.0000
  O   O11       1.0  0.95352  0.79621  0.24559  1.0000
  O   O12       1.0  0.20379  0.04648  0.25441  1.0000
