data_image0
_chemical_formula_structural       Cd2H44C52N6O10
_chemical_formula_sum              "Cd2 H44 C52 N6 O10"
_cell_length_a       10.3769
_cell_length_b       10.5462
_cell_length_c       13.883
_cell_angle_alpha    101.86
_cell_angle_beta     101.692
_cell_angle_gamma    109.44

_space_group_name_H-M_alt    "P 1"
_space_group_IT_number       1

loop_
  _space_group_symop_operation_xyz
  'x, y, z'

loop_
  _atom_site_type_symbol
  _atom_site_label
  _atom_site_symmetry_multiplicity
  _atom_site_fract_x
  _atom_site_fract_y
  _atom_site_fract_z
  _atom_site_occupancy
  Cd  Cd1       1.0  0.12458  0.26883  0.31070  1.0000
  Cd  Cd2       1.0  0.87542  0.73116  0.68930  1.0000
  H   H1        1.0  0.61807  0.27629  0.30942  1.0000
  H   H2        1.0  0.38194  0.72370  0.69058  1.0000
  H   H3        1.0  0.26007  0.87822  0.21553  1.0000
  H   H4        1.0  0.73993  0.12178  0.78447  1.0000
  H   H5        1.0  0.67793  0.89161  0.21007  1.0000
  H   H6        1.0  0.32207  0.10838  0.78993  1.0000
  H   H7        1.0  0.20058  0.49462  0.54071  1.0000
  H   H8        1.0  0.79943  0.50539  0.45929  1.0000
  H   H9        1.0  0.21255  0.50175  0.72048  1.0000
  H   H10       1.0  0.78745  0.49826  0.27952  1.0000
  H   H11       1.0  0.13344  0.05805  0.63533  1.0000
  H   H12       1.0  0.86657  0.94196  0.36467  1.0000
  H   H13       1.0  0.13074  0.07174  0.45558  1.0000
  H   H14       1.0  0.86927  0.92827  0.54442  1.0000
  H   H15       1.0  0.17233  0.17434  0.81030  1.0000
  H   H16       1.0  0.82767  0.82567  0.18970  1.0000
  H   H17       1.0  0.26727  0.36094  0.85705  1.0000
  H   H18       1.0  0.73273  0.63907  0.14295  1.0000
  H   H19       1.0  0.94254  0.20042  0.77078  1.0000
  H   H20       1.0  0.05746  0.79959  0.22922  1.0000
  H   H21       1.0  0.03055  0.38775  0.81332  1.0000
  H   H22       1.0  0.96946  0.61227  0.18669  1.0000
  H   H23       1.0  0.90778  0.06857  0.89477  1.0000
  H   H24       1.0  0.09222  0.93143  0.10523  1.0000
  H   H25       1.0  0.93719  0.07448  0.08047  1.0000
  H   H26       1.0  0.06281  0.92551  0.91953  1.0000
  H   H27       1.0  0.20711  0.49634  0.18196  1.0000
  H   H28       1.0  0.79289  0.50365  0.81804  1.0000
  H   H29       1.0  0.18191  0.51105  0.00369  1.0000
  H   H30       1.0  0.81810  0.48894  0.99632  1.0000
  H   H31       1.0  0.03605  0.52765  0.35616  1.0000
  H   H32       1.0  0.96394  0.47235  0.64384  1.0000
  H   H33       1.0  0.13923  0.79069  0.42833  1.0000
  H   H34       1.0  0.86077  0.20931  0.57167  1.0000
  H   H35       1.0  0.55732  0.77735  0.46102  1.0000
  H   H36       1.0  0.44268  0.22265  0.53898  1.0000
  H   H37       1.0  0.43597  0.51645  0.38761  1.0000
  H   H38       1.0  0.56403  0.48355  0.61239  1.0000
  H   H39       1.0  0.36023  0.00567  0.44129  1.0000
  H   H40       1.0  0.63977  0.99432  0.55870  1.0000
  H   H41       1.0  0.39865  0.99257  0.56750  1.0000
  H   H42       1.0  0.60135  0.00743  0.43250  1.0000
  H   H43       1.0  0.47613  0.68800  0.16851  1.0000
  H   H44       1.0  0.52386  0.31199  0.83148  1.0000
  C   C1        1.0  0.66450  0.09198  0.26243  1.0000
  C   C2        1.0  0.33550  0.90801  0.73756  1.0000
  C   C3        1.0  0.57489  0.16206  0.28079  1.0000
  C   C4        1.0  0.42511  0.83793  0.71921  1.0000
  C   C5        1.0  0.42919  0.08488  0.26353  1.0000
  C   C6        1.0  0.57081  0.91512  0.73647  1.0000
  C   C7        1.0  0.37285  0.93775  0.22760  1.0000
  C   C8        1.0  0.62714  0.06225  0.77240  1.0000
  C   C9        1.0  0.46187  0.86796  0.20775  1.0000
  C   C10       1.0  0.53812  0.13203  0.79225  1.0000
  C   C11       1.0  0.60711  0.94465  0.22513  1.0000
  C   C12       1.0  0.39289  0.05535  0.77487  1.0000
  C   C13       1.0  0.82251  0.17224  0.28359  1.0000
  C   C14       1.0  0.17750  0.82775  0.71641  1.0000
  C   C15       1.0  0.33216  0.15920  0.28438  1.0000
  C   C16       1.0  0.66784  0.84080  0.71562  1.0000
  C   C17       1.0  0.18813  0.39982  0.56406  1.0000
  C   C18       1.0  0.81187  0.60019  0.43594  1.0000
  C   C19       1.0  0.19456  0.40278  0.66555  1.0000
  C   C20       1.0  0.80544  0.59724  0.33445  1.0000
  C   C21       1.0  0.17351  0.27870  0.69332  1.0000
  C   C22       1.0  0.82649  0.72132  0.30668  1.0000
  C   C23       1.0  0.15018  0.15693  0.61670  1.0000
  C   C24       1.0  0.84982  0.84308  0.38330  1.0000
  C   C25       1.0  0.14778  0.16389  0.51733  1.0000
  C   C26       1.0  0.85222  0.83612  0.48267  1.0000
  C   C27       1.0  0.17147  0.27491  0.80062  1.0000
  C   C28       1.0  0.82853  0.72510  0.19938  1.0000
  C   C29       1.0  0.03714  0.28965  0.82483  1.0000
  C   C30       1.0  0.96287  0.71036  0.17517  1.0000
  C   C31       1.0  0.04349  0.28924  0.93375  1.0000
  C   C32       1.0  0.95651  0.71076  0.06625  1.0000
  C   C33       1.0  0.97376  0.16575  0.95685  1.0000
  C   C34       1.0  0.02624  0.83424  0.04315  1.0000
  C   C35       1.0  0.99091  0.16823  0.05943  1.0000
  C   C36       1.0  0.00909  0.83175  0.94056  1.0000
  C   C37       1.0  0.14046  0.40369  0.11659  1.0000
  C   C38       1.0  0.85954  0.59630  0.88341  1.0000
  C   C39       1.0  0.12665  0.41084  0.01637  1.0000
  C   C40       1.0  0.87335  0.58915  0.98364  1.0000
  C   C41       1.0  0.15091  0.58912  0.38002  1.0000
  C   C42       1.0  0.84909  0.41088  0.61998  1.0000
  C   C43       1.0  0.20946  0.73441  0.42033  1.0000
  C   C44       1.0  0.79054  0.26559  0.57967  1.0000
  C   C45       1.0  0.35818  0.80776  0.45042  1.0000
  C   C46       1.0  0.64183  0.19223  0.54958  1.0000
  C   C47       1.0  0.44122  0.72810  0.43875  1.0000
  C   C48       1.0  0.55878  0.27189  0.56125  1.0000
  C   C49       1.0  0.37522  0.58244  0.39812  1.0000
  C   C50       1.0  0.62478  0.41756  0.60188  1.0000
  C   C51       1.0  0.42045  0.96512  0.49310  1.0000
  C   C52       1.0  0.57955  0.03488  0.50690  1.0000
  N   N1        1.0  0.16517  0.28275  0.49062  1.0000
  N   N2        1.0  0.83483  0.71726  0.50938  1.0000
  N   N3        1.0  0.07440  0.28436  0.13832  1.0000
  N   N4        1.0  0.92560  0.71563  0.86167  1.0000
  N   N5        1.0  0.23238  0.51400  0.36870  1.0000
  N   N6        1.0  0.76762  0.48600  0.63130  1.0000
  O   O1        1.0  0.87419  0.30505  0.31318  1.0000
  O   O2        1.0  0.12581  0.69494  0.68682  1.0000
  O   O3        1.0  0.89748  0.09758  0.27043  1.0000
  O   O4        1.0  0.10251  0.90241  0.72956  1.0000
  O   O5        1.0  0.37967  0.29197  0.30652  1.0000
  O   O6        1.0  0.62034  0.70804  0.69347  1.0000
  O   O7        1.0  0.20311  0.08240  0.27827  1.0000
  O   O8        1.0  0.79688  0.91761  0.72172  1.0000
  O   O9        1.0  0.40074  0.72301  0.17130  1.0000
  O   O10       1.0  0.59925  0.27698  0.82870  1.0000
