data_image0
_chemical_formula_structural       Cd2H32C40N4O12
_chemical_formula_sum              "Cd2 H32 C40 N4 O12"
_cell_length_a       10.4336
_cell_length_b       9.59368
_cell_length_c       11.5088
_cell_angle_alpha    105.151
_cell_angle_beta     108.552
_cell_angle_gamma    97.2633

_space_group_name_H-M_alt    "P 1"
_space_group_IT_number       1

loop_
  _space_group_symop_operation_xyz
  'x, y, z'

loop_
  _atom_site_type_symbol
  _atom_site_label
  _atom_site_symmetry_multiplicity
  _atom_site_fract_x
  _atom_site_fract_y
  _atom_site_fract_z
  _atom_site_occupancy
  Cd  Cd1       1.0  0.36384  0.52006  0.23308  1.0000
  Cd  Cd2       1.0  0.63618  0.47995  0.76694  1.0000
  H   H1        1.0  0.90876  0.79453  0.77831  1.0000
  H   H2        1.0  0.09124  0.20548  0.22169  1.0000
  H   H3        1.0  0.02856  0.00303  0.28638  1.0000
  H   H4        1.0  0.97146  0.99697  0.71364  1.0000
  H   H5        1.0  0.59845  0.12139  0.23880  1.0000
  H   H6        1.0  0.40155  0.87863  0.76121  1.0000
  H   H7        1.0  0.34289  0.11687  0.86294  1.0000
  H   H8        1.0  0.65710  0.88311  0.13707  1.0000
  H   H9        1.0  0.92636  0.34515  0.26932  1.0000
  H   H10       1.0  0.07363  0.65480  0.73067  1.0000
  H   H11       1.0  0.24613  0.64129  0.61939  1.0000
  H   H12       1.0  0.75386  0.35867  0.38060  1.0000
  H   H13       1.0  0.65553  0.53535  0.21986  1.0000
  H   H14       1.0  0.34448  0.46466  0.78014  1.0000
  H   H15       1.0  0.88796  0.70907  0.29273  1.0000
  H   H16       1.0  0.11204  0.29096  0.70725  1.0000
  H   H17       1.0  0.71415  0.06149  0.45484  1.0000
  H   H18       1.0  0.28587  0.93854  0.54518  1.0000
  H   H19       1.0  0.48764  0.87518  0.37147  1.0000
  H   H20       1.0  0.51237  0.12484  0.62857  1.0000
  H   H21       1.0  0.94932  0.11653  0.43941  1.0000
  H   H22       1.0  0.05070  0.88349  0.56060  1.0000
  H   H23       1.0  0.35991  0.71576  0.05026  1.0000
  H   H24       1.0  0.64009  0.28423  0.94974  1.0000
  H   H25       1.0  0.22089  0.87558  0.94951  1.0000
  H   H26       1.0  0.77912  0.12440  0.05048  1.0000
  H   H27       1.0  0.90330  0.72815  0.08430  1.0000
  H   H28       1.0  0.09670  0.27186  0.91571  1.0000
  H   H29       1.0  0.05648  0.57427  0.18143  1.0000
  H   H30       1.0  0.94353  0.42574  0.81859  1.0000
  H   H31       1.0  0.86236  0.88923  0.96067  1.0000
  H   H32       1.0  0.13766  0.11077  0.03935  1.0000
  C   C1        1.0  0.43354  0.27387  0.11526  1.0000
  C   C2        1.0  0.56644  0.72613  0.88473  1.0000
  C   C3        1.0  0.46819  0.13243  0.05592  1.0000
  C   C4        1.0  0.53178  0.86756  0.94406  1.0000
  C   C5        1.0  0.55659  0.06737  0.13441  1.0000
  C   C6        1.0  0.44339  0.93264  0.86558  1.0000
  C   C7        1.0  0.41169  0.06429  0.92141  1.0000
  C   C8        1.0  0.58828  0.93568  0.07857  1.0000
  C   C9        1.0  0.19666  0.49274  0.37132  1.0000
  C   C10       1.0  0.80333  0.50723  0.62867  1.0000
  C   C11       1.0  0.09568  0.49359  0.43844  1.0000
  C   C12       1.0  0.90429  0.50637  0.56152  1.0000
  C   C13       1.0  0.95784  0.41216  0.37055  1.0000
  C   C14       1.0  0.04213  0.58781  0.62942  1.0000
  C   C15       1.0  0.13775  0.58142  0.56819  1.0000
  C   C16       1.0  0.86223  0.41855  0.43178  1.0000
  C   C17       1.0  0.67284  0.65315  0.27041  1.0000
  C   C18       1.0  0.32717  0.34688  0.72959  1.0000
  C   C19       1.0  0.80118  0.74916  0.31161  1.0000
  C   C20       1.0  0.19884  0.25087  0.68838  1.0000
  C   C21       1.0  0.81880  0.89861  0.37883  1.0000
  C   C22       1.0  0.18121  0.10141  0.62117  1.0000
  C   C23       1.0  0.70500  0.94603  0.40192  1.0000
  C   C24       1.0  0.29501  0.05399  0.59808  1.0000
  C   C25       1.0  0.57940  0.84306  0.35660  1.0000
  C   C26       1.0  0.42062  0.15696  0.64342  1.0000
  C   C27       1.0  0.96046  0.00158  0.43030  1.0000
  C   C28       1.0  0.03955  0.99843  0.56968  1.0000
  C   C29       1.0  0.25854  0.72220  0.05641  1.0000
  C   C30       1.0  0.74146  0.27780  0.94360  1.0000
  C   C31       1.0  0.18120  0.81173  0.00131  1.0000
  C   C32       1.0  0.81882  0.18827  0.99870  1.0000
  C   C33       1.0  0.05270  0.81842  0.01371  1.0000
  C   C34       1.0  0.94731  0.18158  0.98630  1.0000
  C   C35       1.0  0.00544  0.73052  0.07767  1.0000
  C   C36       1.0  0.99457  0.26947  0.92234  1.0000
  C   C37       1.0  0.08950  0.64428  0.13056  1.0000
  C   C38       1.0  0.91051  0.35572  0.86945  1.0000
  C   C39       1.0  0.96735  0.91787  0.95856  1.0000
  C   C40       1.0  0.03266  0.08212  0.04145  1.0000
  N   N1        1.0  0.56342  0.69892  0.29233  1.0000
  N   N2        1.0  0.43658  0.30110  0.70768  1.0000
  N   N3        1.0  0.21441  0.64082  0.12143  1.0000
  N   N4        1.0  0.78559  0.35919  0.87859  1.0000
  O   O1        1.0  0.34472  0.32501  0.04273  1.0000
  O   O2        1.0  0.65525  0.67499  0.95726  1.0000
  O   O3        1.0  0.49442  0.33822  0.23717  1.0000
  O   O4        1.0  0.50557  0.66178  0.76283  1.0000
  O   O5        1.0  0.29737  0.60456  0.41198  1.0000
  O   O6        1.0  0.70262  0.39541  0.58802  1.0000
  O   O7        1.0  0.17528  0.38228  0.27028  1.0000
  O   O8        1.0  0.82472  0.61770  0.72970  1.0000
  O   O9        1.0  0.95920  0.90058  0.82889  1.0000
  O   O10       1.0  0.04080  0.09942  0.17111  1.0000
  O   O11       1.0  0.04124  0.95653  0.35515  1.0000
  O   O12       1.0  0.95876  0.04349  0.64486  1.0000
