data_image0
_chemical_formula_structural       Tb2H18C28N4O20
_chemical_formula_sum              "Tb2 H18 C28 N4 O20"
_cell_length_a       9.175
_cell_length_b       8.99603
_cell_length_c       9.436
_cell_angle_alpha    89.1433
_cell_angle_beta     88.6371
_cell_angle_gamma    82.4685

_space_group_name_H-M_alt    "P 1"
_space_group_IT_number       1

loop_
  _space_group_symop_operation_xyz
  'x, y, z'

loop_
  _atom_site_type_symbol
  _atom_site_label
  _atom_site_symmetry_multiplicity
  _atom_site_fract_x
  _atom_site_fract_y
  _atom_site_fract_z
  _atom_site_occupancy
  Tb  Tb1       1.0  0.37654  0.89678  0.13218  1.0000
  Tb  Tb2       1.0  0.62346  0.10322  0.86782  1.0000
  H   H1        1.0  0.64371  0.38118  0.39167  1.0000
  H   H2        1.0  0.35629  0.61882  0.60832  1.0000
  H   H3        1.0  0.49171  0.95213  0.39130  1.0000
  H   H4        1.0  0.50829  0.04787  0.60871  1.0000
  H   H5        1.0  0.33005  0.94810  0.44646  1.0000
  H   H6        1.0  0.66995  0.05190  0.55354  1.0000
  H   H7        1.0  0.34208  0.67460  0.91934  1.0000
  H   H8        1.0  0.65792  0.32541  0.08066  1.0000
  H   H9        1.0  0.34532  0.57821  0.05608  1.0000
  H   H10       1.0  0.65468  0.42179  0.94391  1.0000
  H   H11       1.0  0.02505  0.54437  0.41015  1.0000
  H   H12       1.0  0.97495  0.45564  0.58985  1.0000
  H   H13       1.0  0.78068  0.68378  0.33044  1.0000
  H   H14       1.0  0.21932  0.31622  0.66957  1.0000
  H   H15       1.0  0.87142  0.45688  0.19162  1.0000
  H   H16       1.0  0.12858  0.54312  0.80839  1.0000
  H   H17       1.0  0.12552  0.48641  0.09562  1.0000
  H   H18       1.0  0.87448  0.51359  0.90439  1.0000
  C   C1        1.0  0.14607  0.71315  0.32150  1.0000
  C   C2        1.0  0.85393  0.28685  0.67850  1.0000
  C   C3        1.0  0.01741  0.65281  0.35677  1.0000
  C   C4        1.0  0.98259  0.34719  0.64323  1.0000
  C   C5        1.0  0.88398  0.73048  0.31455  1.0000
  C   C6        1.0  0.11602  0.26953  0.68545  1.0000
  C   C7        1.0  0.87961  0.87231  0.25000  1.0000
  C   C8        1.0  0.12039  0.12769  0.75000  1.0000
  C   C9        1.0  0.01255  0.93547  0.23855  1.0000
  C   C10       1.0  0.98745  0.06453  0.76144  1.0000
  C   C11       1.0  0.03091  0.09476  0.20674  1.0000
  C   C12       1.0  0.96909  0.90524  0.79326  1.0000
  C   C13       1.0  0.92379  0.22093  0.22928  1.0000
  C   C14       1.0  0.07621  0.77907  0.77072  1.0000
  C   C15       1.0  0.95601  0.36094  0.18094  1.0000
  C   C16       1.0  0.04399  0.63906  0.81906  1.0000
  C   C17       1.0  0.09559  0.37793  0.12907  1.0000
  C   C18       1.0  0.90442  0.62207  0.87094  1.0000
  C   C19       1.0  0.20088  0.25174  0.12852  1.0000
  C   C20       1.0  0.79912  0.74826  0.87148  1.0000
  C   C21       1.0  0.29998  0.63836  0.35622  1.0000
  C   C22       1.0  0.70002  0.36164  0.64378  1.0000
  C   C23       1.0  0.73908  0.93954  0.18133  1.0000
  C   C24       1.0  0.26092  0.06046  0.81867  1.0000
  C   C25       1.0  0.35904  0.26492  0.09014  1.0000
  C   C26       1.0  0.64096  0.73508  0.90986  1.0000
  C   C27       1.0  0.79002  0.22176  0.32286  1.0000
  C   C28       1.0  0.20998  0.77824  0.67714  1.0000
  N   N1        1.0  0.14165  0.85010  0.26273  1.0000
  N   N2        1.0  0.85835  0.14990  0.73726  1.0000
  N   N3        1.0  0.16726  0.11432  0.16073  1.0000
  N   N4        1.0  0.83274  0.88568  0.83927  1.0000
  O   O1        1.0  0.40503  0.68884  0.28798  1.0000
  O   O2        1.0  0.59497  0.31116  0.71202  1.0000
  O   O3        1.0  0.31087  0.54079  0.45378  1.0000
  O   O4        1.0  0.68913  0.45921  0.54622  1.0000
  O   O5        1.0  0.75024  0.03605  0.08378  1.0000
  O   O6        1.0  0.24976  0.96395  0.91622  1.0000
  O   O7        1.0  0.62202  0.88687  0.21974  1.0000
  O   O8        1.0  0.37798  0.11313  0.78026  1.0000
  O   O9        1.0  0.44308  0.13946  0.06761  1.0000
  O   O10       1.0  0.55692  0.86054  0.93239  1.0000
  O   O11       1.0  0.39976  0.39123  0.08128  1.0000
  O   O12       1.0  0.60024  0.60877  0.91873  1.0000
  O   O13       1.0  0.78298  0.13038  0.42060  1.0000
  O   O14       1.0  0.21702  0.86962  0.57939  1.0000
  O   O15       1.0  0.68821  0.33933  0.29863  1.0000
  O   O16       1.0  0.31179  0.66068  0.70136  1.0000
  O   O17       1.0  0.39016  0.99781  0.37657  1.0000
  O   O18       1.0  0.60984  0.00219  0.62343  1.0000
  O   O19       1.0  0.30541  0.67869  0.01775  1.0000
  O   O20       1.0  0.69459  0.32131  0.98225  1.0000
