data_image0
_chemical_formula_structural       Gd2H18C28N4O20
_chemical_formula_sum              "Gd2 H18 C28 N4 O20"
_cell_length_a       8.9737
_cell_length_b       9.18352
_cell_length_c       9.47845
_cell_angle_alpha    87.9355
_cell_angle_beta     88.2077
_cell_angle_gamma    82.6142

_space_group_name_H-M_alt    "P 1"
_space_group_IT_number       1

loop_
  _space_group_symop_operation_xyz
  'x, y, z'

loop_
  _atom_site_type_symbol
  _atom_site_label
  _atom_site_symmetry_multiplicity
  _atom_site_fract_x
  _atom_site_fract_y
  _atom_site_fract_z
  _atom_site_occupancy
  Gd  Gd1       1.0  0.60346  0.12442  0.86418  1.0000
  Gd  Gd2       1.0  0.39654  0.87558  0.13582  1.0000
  H   H1        1.0  0.11619  0.85924  0.61640  1.0000
  H   H2        1.0  0.88381  0.14075  0.38360  1.0000
  H   H3        1.0  0.83648  0.13717  0.06817  1.0000
  H   H4        1.0  0.16352  0.86284  0.93183  1.0000
  H   H5        1.0  0.92550  0.15110  0.92762  1.0000
  H   H6        1.0  0.07450  0.84890  0.07238  1.0000
  H   H7        1.0  0.55082  0.16770  0.55091  1.0000
  H   H8        1.0  0.44919  0.83231  0.44909  1.0000
  H   H9        1.0  0.54272  0.00767  0.60980  1.0000
  H   H10       1.0  0.45728  0.99234  0.39020  1.0000
  H   H11       1.0  0.00973  0.36984  0.90364  1.0000
  H   H12       1.0  0.99027  0.63016  0.09636  1.0000
  H   H13       1.0  0.04020  0.62781  0.81740  1.0000
  H   H14       1.0  0.95980  0.37218  0.18261  1.0000
  H   H15       1.0  0.81852  0.72319  0.67469  1.0000
  H   H16       1.0  0.18148  0.27681  0.32531  1.0000
  H   H17       1.0  0.95874  0.48291  0.59119  1.0000
  H   H18       1.0  0.04126  0.51710  0.40881  1.0000
  C   C1        1.0  0.24579  0.29685  0.86850  1.0000
  C   C2        1.0  0.75421  0.70315  0.13150  1.0000
  C   C3        1.0  0.11896  0.40134  0.87151  1.0000
  C   C4        1.0  0.88104  0.59866  0.12850  1.0000
  C   C5        1.0  0.13631  0.54314  0.82455  1.0000
  C   C6        1.0  0.86369  0.45686  0.17545  1.0000
  C   C7        1.0  0.27665  0.57793  0.77586  1.0000
  C   C8        1.0  0.72335  0.42207  0.22415  1.0000
  C   C9        1.0  0.40323  0.47047  0.79408  1.0000
  C   C10       1.0  0.59677  0.52953  0.20592  1.0000
  C   C11       1.0  0.23438  0.13661  0.90014  1.0000
  C   C12       1.0  0.76562  0.86338  0.09986  1.0000
  C   C13       1.0  0.27506  0.71359  0.68371  1.0000
  C   C14       1.0  0.72493  0.28641  0.31630  1.0000
  C   C15       1.0  0.56306  0.48973  0.76022  1.0000
  C   C16       1.0  0.43694  0.51028  0.23978  1.0000
  C   C17       1.0  0.62707  0.62254  0.75143  1.0000
  C   C18       1.0  0.37293  0.37747  0.24857  1.0000
  C   C19       1.0  0.77057  0.62001  0.68796  1.0000
  C   C20       1.0  0.22943  0.37999  0.31204  1.0000
  C   C21       1.0  0.84864  0.48836  0.64308  1.0000
  C   C22       1.0  0.15136  0.51164  0.35692  1.0000
  C   C23       1.0  0.78645  0.35900  0.67360  1.0000
  C   C24       1.0  0.21355  0.64100  0.32640  1.0000
  C   C25       1.0  0.55962  0.76113  0.82167  1.0000
  C   C26       1.0  0.44038  0.23887  0.17833  1.0000
  C   C27       1.0  0.86169  0.20659  0.63564  1.0000
  C   C28       1.0  0.13831  0.79342  0.36436  1.0000
  N   N1        1.0  0.38357  0.33275  0.83726  1.0000
  N   N2        1.0  0.61643  0.66724  0.16274  1.0000
  N   N3        1.0  0.64828  0.36160  0.73225  1.0000
  N   N4        1.0  0.35172  0.63840  0.26775  1.0000
  O   O1        1.0  0.35874  0.05595  0.93195  1.0000
  O   O2        1.0  0.64126  0.94405  0.06804  1.0000
  O   O3        1.0  0.10994  0.09093  0.89415  1.0000
  O   O4        1.0  0.89006  0.90906  0.10585  1.0000
  O   O5        1.0  0.36777  0.72406  0.58626  1.0000
  O   O6        1.0  0.63222  0.27595  0.41374  1.0000
  O   O7        1.0  0.15531  0.81257  0.70831  1.0000
  O   O8        1.0  0.84469  0.18742  0.29169  1.0000
  O   O9        1.0  0.61183  0.87891  0.78214  1.0000
  O   O10       1.0  0.38817  0.12110  0.21786  1.0000
  O   O11       1.0  0.46387  0.74790  0.92084  1.0000
  O   O12       1.0  0.53613  0.25210  0.07916  1.0000
  O   O13       1.0  0.96079  0.19889  0.53855  1.0000
  O   O14       1.0  0.03921  0.80111  0.46145  1.0000
  O   O15       1.0  0.80988  0.09956  0.70182  1.0000
  O   O16       1.0  0.19012  0.90044  0.29819  1.0000
  O   O17       1.0  0.82732  0.18674  0.97461  1.0000
  O   O18       1.0  0.17269  0.81326  0.02540  1.0000
  O   O19       1.0  0.49904  0.10987  0.62253  1.0000
  O   O20       1.0  0.50096  0.89013  0.37747  1.0000
