data_image0
_chemical_formula_structural       Ag4H48C52N28
_chemical_formula_sum              "Ag4 H48 C52 N28"
_cell_length_a       7.32994
_cell_length_b       10.4185
_cell_length_c       17.9976
_cell_angle_alpha    90
_cell_angle_beta     92.8164
_cell_angle_gamma    90

_space_group_name_H-M_alt    "P 1"
_space_group_IT_number       1

loop_
  _space_group_symop_operation_xyz
  'x, y, z'

loop_
  _atom_site_type_symbol
  _atom_site_label
  _atom_site_symmetry_multiplicity
  _atom_site_fract_x
  _atom_site_fract_y
  _atom_site_fract_z
  _atom_site_occupancy
  Ag  Ag1       1.0  0.32795  0.93240  0.03558  1.0000
  Ag  Ag2       1.0  0.67204  0.43241  0.46442  1.0000
  Ag  Ag3       1.0  0.67205  0.06759  0.96442  1.0000
  Ag  Ag4       1.0  0.32795  0.56760  0.53558  1.0000
  H   H1        1.0  0.94743  0.10219  0.07792  1.0000
  H   H2        1.0  0.05257  0.60219  0.42209  1.0000
  H   H3        1.0  0.05257  0.89781  0.92208  1.0000
  H   H4        1.0  0.94743  0.39781  0.57791  1.0000
  H   H5        1.0  0.84109  0.94324  0.22903  1.0000
  H   H6        1.0  0.15890  0.44324  0.27097  1.0000
  H   H7        1.0  0.15890  0.05675  0.77097  1.0000
  H   H8        1.0  0.84109  0.55676  0.72903  1.0000
  H   H9        1.0  0.65097  0.81722  0.31155  1.0000
  H   H10       1.0  0.34903  0.31722  0.18845  1.0000
  H   H11       1.0  0.34902  0.18278  0.68845  1.0000
  H   H12       1.0  0.65098  0.68278  0.81155  1.0000
  H   H13       1.0  0.43542  0.03248  0.20608  1.0000
  H   H14       1.0  0.56459  0.53248  0.29392  1.0000
  H   H15       1.0  0.56458  0.96752  0.79392  1.0000
  H   H16       1.0  0.43541  0.46752  0.70608  1.0000
  H   H17       1.0  0.18311  0.15632  0.29512  1.0000
  H   H18       1.0  0.81690  0.65631  0.20488  1.0000
  H   H19       1.0  0.81689  0.84369  0.70488  1.0000
  H   H20       1.0  0.18310  0.34368  0.79512  1.0000
  H   H21       1.0  0.58258  0.73695  0.42561  1.0000
  H   H22       1.0  0.41742  0.23695  0.07439  1.0000
  H   H23       1.0  0.41742  0.26305  0.57439  1.0000
  H   H24       1.0  0.58258  0.76305  0.92561  1.0000
  H   H25       1.0  0.45092  0.16761  0.40592  1.0000
  H   H26       1.0  0.54908  0.66761  0.09408  1.0000
  H   H27       1.0  0.54908  0.83239  0.59408  1.0000
  H   H28       1.0  0.45093  0.33239  0.90592  1.0000
  H   H29       1.0  0.63901  0.29366  0.32268  1.0000
  H   H30       1.0  0.36099  0.79366  0.17732  1.0000
  H   H31       1.0  0.36099  0.70634  0.67732  1.0000
  H   H32       1.0  0.63901  0.20634  0.82268  1.0000
  H   H33       1.0  0.76780  0.22356  0.16462  1.0000
  H   H34       1.0  0.23220  0.72356  0.33538  1.0000
  H   H35       1.0  0.23220  0.77644  0.83538  1.0000
  H   H36       1.0  0.76779  0.27644  0.66462  1.0000
  H   H37       1.0  0.88708  0.30216  0.23977  1.0000
  H   H38       1.0  0.11292  0.80216  0.26023  1.0000
  H   H39       1.0  0.11292  0.69784  0.76023  1.0000
  H   H40       1.0  0.88708  0.19784  0.73977  1.0000
  H   H41       1.0  0.20266  0.04580  0.42470  1.0000
  H   H42       1.0  0.79734  0.54580  0.07530  1.0000
  H   H43       1.0  0.79734  0.95420  0.57530  1.0000
  H   H44       1.0  0.20267  0.45420  0.92470  1.0000
  H   H45       1.0  0.07545  0.84025  0.50889  1.0000
  H   H46       1.0  0.92455  0.34024  0.99111  1.0000
  H   H47       1.0  0.92455  0.15976  0.49111  1.0000
  H   H48       1.0  0.07545  0.65975  0.00889  1.0000
  C   C1        1.0  0.05027  0.10027  0.12343  1.0000
  C   C2        1.0  0.94973  0.60026  0.37657  1.0000
  C   C3        1.0  0.94973  0.89974  0.87656  1.0000
  C   C4        1.0  0.05027  0.39974  0.62344  1.0000
  C   C5        1.0  0.75261  0.12752  0.26966  1.0000
  C   C6        1.0  0.24739  0.62752  0.23034  1.0000
  C   C7        1.0  0.24739  0.87248  0.73034  1.0000
  C   C8        1.0  0.75260  0.37248  0.76966  1.0000
  C   C9        1.0  0.75767  0.99318  0.26840  1.0000
  C   C10       1.0  0.24232  0.49317  0.23161  1.0000
  C   C11       1.0  0.24232  0.00682  0.73160  1.0000
  C   C12       1.0  0.75768  0.50683  0.76839  1.0000
  C   C13       1.0  0.65099  0.92164  0.31520  1.0000
  C   C14       1.0  0.34901  0.42164  0.18480  1.0000
  C   C15       1.0  0.34901  0.07836  0.68480  1.0000
  C   C16       1.0  0.65099  0.57836  0.81520  1.0000
  C   C17       1.0  0.29706  0.06474  0.19301  1.0000
  C   C18       1.0  0.70295  0.56474  0.30699  1.0000
  C   C19       1.0  0.70294  0.93526  0.80699  1.0000
  C   C20       1.0  0.29705  0.43526  0.69301  1.0000
  C   C21       1.0  0.53894  0.98490  0.36414  1.0000
  C   C22       1.0  0.46106  0.48490  0.13586  1.0000
  C   C23       1.0  0.46105  0.01510  0.63586  1.0000
  C   C24       1.0  0.53895  0.51511  0.86413  1.0000
  C   C25       1.0  0.17573  0.12501  0.23738  1.0000
  C   C26       1.0  0.82428  0.62501  0.26262  1.0000
  C   C27       1.0  0.82427  0.87499  0.76262  1.0000
  C   C28       1.0  0.17572  0.37499  0.73738  1.0000
  C   C29       1.0  0.46043  0.79120  0.43650  1.0000
  C   C30       1.0  0.53957  0.29120  0.06350  1.0000
  C   C31       1.0  0.53957  0.20880  0.56350  1.0000
  C   C32       1.0  0.46044  0.70880  0.93650  1.0000
  C   C33       1.0  0.53543  0.11865  0.36690  1.0000
  C   C34       1.0  0.46457  0.61864  0.13311  1.0000
  C   C35       1.0  0.46457  0.88136  0.63311  1.0000
  C   C36       1.0  0.53543  0.38136  0.86689  1.0000
  C   C37       1.0  0.64186  0.18908  0.31970  1.0000
  C   C38       1.0  0.35814  0.68907  0.18030  1.0000
  C   C39       1.0  0.35814  0.81092  0.68030  1.0000
  C   C40       1.0  0.64186  0.31092  0.81970  1.0000
  C   C41       1.0  0.85409  0.20772  0.21543  1.0000
  C   C42       1.0  0.14591  0.70772  0.28457  1.0000
  C   C43       1.0  0.14591  0.79228  0.78457  1.0000
  C   C44       1.0  0.85409  0.29228  0.71543  1.0000
  C   C45       1.0  0.26001  0.95161  0.43748  1.0000
  C   C46       1.0  0.73999  0.45160  0.06252  1.0000
  C   C47       1.0  0.73998  0.04840  0.56252  1.0000
  C   C48       1.0  0.26002  0.54840  0.93748  1.0000
  C   C49       1.0  0.19889  0.85027  0.47832  1.0000
  C   C50       1.0  0.80110  0.35027  0.02168  1.0000
  C   C51       1.0  0.80110  0.14973  0.52168  1.0000
  C   C52       1.0  0.19890  0.64973  0.97832  1.0000
  N   N1        1.0  0.42654  0.91290  0.41101  1.0000
  N   N2        1.0  0.57346  0.41290  0.08899  1.0000
  N   N3        1.0  0.57346  0.08710  0.58899  1.0000
  N   N4        1.0  0.42654  0.58710  0.91101  1.0000
  N   N5        1.0  0.21708  0.04963  0.12221  1.0000
  N   N6        1.0  0.78293  0.54963  0.37779  1.0000
  N   N7        1.0  0.78292  0.95037  0.87779  1.0000
  N   N8        1.0  0.21708  0.45037  0.62221  1.0000
  N   N9        1.0  0.02113  0.14753  0.19222  1.0000
  N   N10       1.0  0.97887  0.64753  0.30778  1.0000
  N   N11       1.0  0.97887  0.85247  0.80778  1.0000
  N   N12       1.0  0.02113  0.35247  0.69222  1.0000
  N   N13       1.0  0.66194  0.93747  0.07995  1.0000
  N   N14       1.0  0.33807  0.43747  0.42005  1.0000
  N   N15       1.0  0.33807  0.06253  0.92005  1.0000
  N   N16       1.0  0.66194  0.56254  0.57995  1.0000
  N   N17       1.0  0.32487  0.75134  0.47712  1.0000
  N   N18       1.0  0.67513  0.25134  0.02287  1.0000
  N   N19       1.0  0.67513  0.24866  0.52288  1.0000
  N   N20       1.0  0.32488  0.74866  0.97712  1.0000
  N   N21       1.0  0.76428  0.84823  0.08619  1.0000
  N   N22       1.0  0.23573  0.34824  0.41381  1.0000
  N   N23       1.0  0.23573  0.15176  0.91381  1.0000
  N   N24       1.0  0.76428  0.65177  0.58619  1.0000
  N   N25       1.0  0.86665  0.76075  0.09382  1.0000
  N   N26       1.0  0.13336  0.26076  0.40618  1.0000
  N   N27       1.0  0.13336  0.23924  0.90618  1.0000
  N   N28       1.0  0.86665  0.73925  0.59382  1.0000
