data_image0
_chemical_formula_structural       CdH16C16N2O4
_chemical_formula_sum              "Cd1 H16 C16 N2 O4"
_cell_length_a       5.0527
_cell_length_b       8.04307
_cell_length_c       9.72469
_cell_angle_alpha    67.7313
_cell_angle_beta     80.1874
_cell_angle_gamma    76.2278

_space_group_name_H-M_alt    "P 1"
_space_group_IT_number       1

loop_
  _space_group_symop_operation_xyz
  'x, y, z'

loop_
  _atom_site_type_symbol
  _atom_site_label
  _atom_site_symmetry_multiplicity
  _atom_site_fract_x
  _atom_site_fract_y
  _atom_site_fract_z
  _atom_site_occupancy
  Cd  Cd1       1.0  0.50001  0.00000  1.00000  1.0000
  H   H1        1.0  0.21061  0.68176  0.98641  1.0000
  H   H2        1.0  0.78936  0.31823  0.01360  1.0000
  H   H3        1.0  0.24405  0.47787  0.83885  1.0000
  H   H4        1.0  0.75595  0.52214  0.16115  1.0000
  H   H5        1.0  0.54911  0.53118  0.60268  1.0000
  H   H6        1.0  0.45089  0.46882  0.39732  1.0000
  H   H7        1.0  0.78935  0.95660  0.69447  1.0000
  H   H8        1.0  0.21064  0.04339  0.30554  1.0000
  H   H9        1.0  0.84757  0.95212  0.43369  1.0000
  H   H10       1.0  0.15244  0.04787  0.56632  1.0000
  H   H11       1.0  0.09153  0.75379  0.50568  1.0000
  H   H12       1.0  0.90848  0.24619  0.49433  1.0000
  H   H13       1.0  0.60545  0.77033  0.34429  1.0000
  H   H14       1.0  0.39456  0.22968  0.65571  1.0000
  H   H15       1.0  0.87294  0.58175  0.40364  1.0000
  H   H16       1.0  0.12705  0.41826  0.59635  1.0000
  C   C1        1.0  0.35081  0.69369  0.88628  1.0000
  C   C2        1.0  0.64918  0.30635  0.11371  1.0000
  C   C3        1.0  0.36401  0.58591  0.80126  1.0000
  C   C4        1.0  0.63599  0.41408  0.19875  1.0000
  C   C5        1.0  0.53643  0.61564  0.66950  1.0000
  C   C6        1.0  0.46356  0.38436  0.33050  1.0000
  C   C7        1.0  0.69243  0.75253  0.62491  1.0000
  C   C8        1.0  0.30755  0.24746  0.37509  1.0000
  C   C9        1.0  0.67205  0.84931  0.72067  1.0000
  C   C10       1.0  0.32797  0.15068  0.27932  1.0000
  C   C11       1.0  0.87549  0.80188  0.48127  1.0000
  C   C12       1.0  0.12453  0.19812  0.51873  1.0000
  C   C13       1.0  0.82284  0.73256  0.36462  1.0000
  C   C14       1.0  0.17717  0.26745  0.63538  1.0000
  C   C15       1.0  0.99062  0.79784  0.21442  1.0000
  C   C16       1.0  0.00938  0.20216  0.78558  1.0000
  N   N1        1.0  0.50583  0.82232  0.84760  1.0000
  N   N2        1.0  0.49418  0.17767  0.15240  1.0000
  O   O1        1.0  0.89098  0.80401  0.10033  1.0000
  O   O2        1.0  0.10901  0.19599  0.89967  1.0000
  O   O3        1.0  0.22311  0.83415  0.21204  1.0000
  O   O4        1.0  0.77689  0.16586  0.78796  1.0000
