data_image0
_chemical_formula_structural       Cd2H44C48N8O8
_chemical_formula_sum              "Cd2 H44 C48 N8 O8"
_cell_length_a       10.2913
_cell_length_b       11.4502
_cell_length_c       11.461
_cell_angle_alpha    119.687
_cell_angle_beta     100.817
_cell_angle_gamma    98.1536

_space_group_name_H-M_alt    "P 1"
_space_group_IT_number       1

loop_
  _space_group_symop_operation_xyz
  'x, y, z'

loop_
  _atom_site_type_symbol
  _atom_site_label
  _atom_site_symmetry_multiplicity
  _atom_site_fract_x
  _atom_site_fract_y
  _atom_site_fract_z
  _atom_site_occupancy
  Cd  Cd1       1.0  0.10554  0.05493  0.41024  1.0000
  Cd  Cd2       1.0  0.89446  0.94506  0.58976  1.0000
  H   H1        1.0  0.14684  0.45180  0.89244  1.0000
  H   H2        1.0  0.85316  0.54819  0.10756  1.0000
  H   H3        1.0  0.17333  0.38841  0.72318  1.0000
  H   H4        1.0  0.82667  0.61159  0.27682  1.0000
  H   H5        1.0  0.99164  0.36481  0.52769  1.0000
  H   H6        1.0  0.00836  0.63519  0.47231  1.0000
  H   H7        1.0  0.80893  0.46244  0.46472  1.0000
  H   H8        1.0  0.19107  0.53756  0.53528  1.0000
  H   H9        1.0  0.78522  0.66465  0.88865  1.0000
  H   H10       1.0  0.21478  0.33536  0.11136  1.0000
  H   H11       1.0  0.96918  0.57103  0.95283  1.0000
  H   H12       1.0  0.03083  0.42897  0.04717  1.0000
  H   H13       1.0  0.59307  0.54405  0.53362  1.0000
  H   H14       1.0  0.40693  0.45595  0.46638  1.0000
  H   H15       1.0  0.62139  0.66959  0.71531  1.0000
  H   H16       1.0  0.37861  0.33041  0.28470  1.0000
  H   H17       1.0  0.02444  0.21068  0.21978  1.0000
  H   H18       1.0  0.97556  0.78932  0.78022  1.0000
  H   H19       1.0  0.77364  0.86694  0.19153  1.0000
  H   H20       1.0  0.22635  0.13307  0.80847  1.0000
  H   H21       1.0  0.64252  0.90189  0.97909  1.0000
  H   H22       1.0  0.35748  0.09811  0.02091  1.0000
  H   H23       1.0  0.75897  0.04293  0.87809  1.0000
  H   H24       1.0  0.24103  0.95707  0.12191  1.0000
  H   H25       1.0  0.89773  0.19243  0.99794  1.0000
  H   H26       1.0  0.10227  0.80757  0.00206  1.0000
  H   H27       1.0  0.74874  0.26495  0.23936  1.0000
  H   H28       1.0  0.25126  0.73506  0.76064  1.0000
  H   H29       1.0  0.59856  0.42126  0.31435  1.0000
  H   H30       1.0  0.40144  0.57874  0.68565  1.0000
  H   H31       1.0  0.45531  0.46073  0.14151  1.0000
  H   H32       1.0  0.54468  0.53927  0.85849  1.0000
  H   H33       1.0  0.47549  0.35117  0.89986  1.0000
  H   H34       1.0  0.52451  0.64883  0.10014  1.0000
  H   H35       1.0  0.66443  0.26958  0.76499  1.0000
  H   H36       1.0  0.33557  0.73042  0.23502  1.0000
  H   H37       1.0  0.70835  0.12601  0.76172  1.0000
  H   H38       1.0  0.29165  0.87400  0.23828  1.0000
  H   H39       1.0  0.42439  0.23532  0.62644  1.0000
  H   H40       1.0  0.57561  0.76468  0.37356  1.0000
  H   H41       1.0  0.49789  0.90503  0.67453  1.0000
  H   H42       1.0  0.50211  0.09496  0.32547  1.0000
  H   H43       1.0  0.23304  0.82023  0.49116  1.0000
  H   H44       1.0  0.76696  0.17977  0.50884  1.0000
  C   C1        1.0  0.02181  0.24365  0.73121  1.0000
  C   C2        1.0  0.97819  0.75634  0.26879  1.0000
  C   C3        1.0  0.09625  0.39221  0.77835  1.0000
  C   C4        1.0  0.90375  0.60779  0.22165  1.0000
  C   C5        1.0  0.99050  0.45784  0.74342  1.0000
  C   C6        1.0  0.00950  0.54215  0.25657  1.0000
  C   C7        1.0  0.94439  0.42866  0.60604  1.0000
  C   C8        1.0  0.05561  0.57134  0.39395  1.0000
  C   C9        1.0  0.84094  0.48189  0.57034  1.0000
  C   C10       1.0  0.15906  0.51811  0.42966  1.0000
  C   C11       1.0  0.78028  0.56532  0.67034  1.0000
  C   C12       1.0  0.21973  0.43468  0.32966  1.0000
  C   C13       1.0  0.82765  0.59578  0.80793  1.0000
  C   C14       1.0  0.17235  0.40422  0.19207  1.0000
  C   C15       1.0  0.93149  0.54255  0.84402  1.0000
  C   C16       1.0  0.06852  0.45745  0.15597  1.0000
  C   C17       1.0  0.67137  0.62646  0.63262  1.0000
  C   C18       1.0  0.32863  0.37355  0.36738  1.0000
  C   C19       1.0  0.72966  0.74169  0.61010  1.0000
  C   C20       1.0  0.27034  0.25831  0.38990  1.0000
  C   C21       1.0  0.94031  0.12114  0.18537  1.0000
  C   C22       1.0  0.05969  0.87886  0.81463  1.0000
  C   C23       1.0  0.80667  0.94300  0.16555  1.0000
  C   C24       1.0  0.19333  0.05700  0.83444  1.0000
  C   C25       1.0  0.74073  0.95901  0.06055  1.0000
  C   C26       1.0  0.25927  0.04099  0.93945  1.0000
  C   C27       1.0  0.79915  0.13112  0.98783  1.0000
  C   C28       1.0  0.20085  0.86888  0.01217  1.0000
  C   C29       1.0  0.70158  0.22177  0.02841  1.0000
  C   C30       1.0  0.29842  0.77823  0.97159  1.0000
  C   C31       1.0  0.68912  0.28446  0.16476  1.0000
  C   C32       1.0  0.31088  0.71554  0.83524  1.0000
  C   C33       1.0  0.60303  0.37110  0.20658  1.0000
  C   C34       1.0  0.39696  0.62890  0.79342  1.0000
  C   C35       1.0  0.52503  0.39501  0.11095  1.0000
  C   C36       1.0  0.47497  0.60499  0.88905  1.0000
  C   C37       1.0  0.53668  0.33333  0.97526  1.0000
  C   C38       1.0  0.46331  0.66667  0.02474  1.0000
  C   C39       1.0  0.62488  0.24775  0.93262  1.0000
  C   C40       1.0  0.37512  0.75226  0.06738  1.0000
  C   C41       1.0  0.63260  0.18586  0.78342  1.0000
  C   C42       1.0  0.36740  0.81413  0.21658  1.0000
  C   C43       1.0  0.40588  0.13378  0.61454  1.0000
  C   C44       1.0  0.59412  0.86622  0.38546  1.0000
  C   C45       1.0  0.44031  0.95931  0.63835  1.0000
  C   C46       1.0  0.55968  0.04069  0.36165  1.0000
  C   C47       1.0  0.31160  0.91924  0.54697  1.0000
  C   C48       1.0  0.68840  0.08077  0.45304  1.0000
  N   N1        1.0  0.93108  0.04465  0.24266  1.0000
  N   N2        1.0  0.06892  0.95535  0.75734  1.0000
  N   N3        1.0  0.82735  0.07210  0.07416  1.0000
  N   N4        1.0  0.17265  0.92789  0.92584  1.0000
  N   N5        1.0  0.49883  0.09550  0.67973  1.0000
  N   N6        1.0  0.50117  0.90450  0.32027  1.0000
  N   N7        1.0  0.29179  0.02910  0.53299  1.0000
  N   N8        1.0  0.70821  0.97090  0.46702  1.0000
  O   O1        1.0  0.02944  0.14232  0.61435  1.0000
  O   O2        1.0  0.97056  0.85768  0.38565  1.0000
  O   O3        1.0  0.95292  0.22371  0.80238  1.0000
  O   O4        1.0  0.04708  0.77630  0.19762  1.0000
  O   O5        1.0  0.78550  0.70912  0.51167  1.0000
  O   O6        1.0  0.21450  0.29088  0.48833  1.0000
  O   O7        1.0  0.72316  0.86473  0.69209  1.0000
  O   O8        1.0  0.27685  0.13527  0.30791  1.0000
