data_image0
_chemical_formula_structural       Cd2H44C48N8O8
_chemical_formula_sum              "Cd2 H44 C48 N8 O8"
_cell_length_a       10.8536
_cell_length_b       11.2295
_cell_length_c       11.4317
_cell_angle_alpha    87.744
_cell_angle_beta     62.6514
_cell_angle_gamma    66.7876

_space_group_name_H-M_alt    "P 1"
_space_group_IT_number       1

loop_
  _space_group_symop_operation_xyz
  'x, y, z'

loop_
  _atom_site_type_symbol
  _atom_site_label
  _atom_site_symmetry_multiplicity
  _atom_site_fract_x
  _atom_site_fract_y
  _atom_site_fract_z
  _atom_site_occupancy
  Cd  Cd1       1.0  0.89931  0.12408  0.66849  1.0000
  Cd  Cd2       1.0  0.10070  0.87592  0.33151  1.0000
  H   H1        1.0  0.02873  0.66030  0.18475  1.0000
  H   H2        1.0  0.97126  0.33970  0.81526  1.0000
  H   H3        1.0  0.52882  0.32244  0.27753  1.0000
  H   H4        1.0  0.47118  0.67755  0.72246  1.0000
  H   H5        1.0  0.05556  0.18955  0.35301  1.0000
  H   H6        1.0  0.94445  0.81045  0.64699  1.0000
  H   H7        1.0  0.72584  0.02818  0.97371  1.0000
  H   H8        1.0  0.27416  0.97182  0.02629  1.0000
  H   H9        1.0  0.36831  0.00220  0.17157  1.0000
  H   H10       1.0  0.63168  0.99781  0.82843  1.0000
  H   H11       1.0  0.15600  0.76617  0.92914  1.0000
  H   H12       1.0  0.84400  0.23383  0.07087  1.0000
  H   H13       1.0  0.52148  0.42599  0.09530  1.0000
  H   H14       1.0  0.47852  0.57401  0.90470  1.0000
  H   H15       1.0  0.40586  0.40811  0.03200  1.0000
  H   H16       1.0  0.59414  0.59189  0.96799  1.0000
  H   H17       1.0  0.40893  0.16940  0.02659  1.0000
  H   H18       1.0  0.59107  0.83060  0.97340  1.0000
  H   H19       1.0  0.73434  0.95562  0.17833  1.0000
  H   H20       1.0  0.26565  0.04438  0.82168  1.0000
  H   H21       1.0  0.91424  0.88425  0.17251  1.0000
  H   H22       1.0  0.08575  0.11575  0.82750  1.0000
  H   H23       1.0  0.42601  0.87742  0.33567  1.0000
  H   H24       1.0  0.57400  0.12258  0.66433  1.0000
  H   H25       1.0  0.46467  0.94669  0.44614  1.0000
  H   H26       1.0  0.53533  0.05332  0.55387  1.0000
  H   H27       1.0  0.48298  0.15940  0.42428  1.0000
  H   H28       1.0  0.51703  0.84060  0.57572  1.0000
  H   H29       1.0  0.63655  0.80203  0.12295  1.0000
  H   H30       1.0  0.36345  0.19797  0.87705  1.0000
  H   H31       1.0  0.19469  0.85614  0.68693  1.0000
  H   H32       1.0  0.80530  0.14386  0.31308  1.0000
  H   H33       1.0  0.08881  0.32828  0.17863  1.0000
  H   H34       1.0  0.91119  0.67172  0.82137  1.0000
  H   H35       1.0  0.12079  0.45264  0.23538  1.0000
  H   H36       1.0  0.87921  0.54736  0.76462  1.0000
  H   H37       1.0  0.72588  0.46905  0.70468  1.0000
  H   H38       1.0  0.27412  0.53095  0.29532  1.0000
  H   H39       1.0  0.80753  0.60104  0.48876  1.0000
  H   H40       1.0  0.19246  0.39897  0.51124  1.0000
  H   H41       1.0  0.79234  0.41785  0.22511  1.0000
  H   H42       1.0  0.20766  0.58215  0.77488  1.0000
  H   H43       1.0  0.60937  0.59502  0.16884  1.0000
  H   H44       1.0  0.39063  0.40497  0.83116  1.0000
  C   C1        1.0  0.93843  0.64444  0.17947  1.0000
  C   C2        1.0  0.06157  0.35556  0.82053  1.0000
  C   C3        1.0  0.92325  0.52721  0.20686  1.0000
  C   C4        1.0  0.07675  0.47279  0.79314  1.0000
  C   C5        1.0  0.49327  0.25250  0.25368  1.0000
  C   C6        1.0  0.50674  0.74750  0.74632  1.0000
  C   C7        1.0  0.97688  0.28235  0.42122  1.0000
  C   C8        1.0  0.02312  0.71765  0.57878  1.0000
  C   C9        1.0  0.47189  0.25763  0.14140  1.0000
  C   C10       1.0  0.52811  0.74238  0.85860  1.0000
  C   C11       1.0  0.22689  0.02429  0.49964  1.0000
  C   C12       1.0  0.77311  0.97571  0.50036  1.0000
  C   C13       1.0  0.84843  0.96797  0.92470  1.0000
  C   C14       1.0  0.15156  0.03203  0.07531  1.0000
  C   C15       1.0  0.83661  0.74373  0.14788  1.0000
  C   C16       1.0  0.16338  0.25627  0.85213  1.0000
  C   C17       1.0  0.40248  0.07348  0.19486  1.0000
  C   C18       1.0  0.59751  0.92652  0.80514  1.0000
  C   C19       1.0  0.07536  0.83051  0.89816  1.0000
  C   C20       1.0  0.92464  0.16948  0.10184  1.0000
  C   C21       1.0  0.42443  0.06824  0.30692  1.0000
  C   C22       1.0  0.57557  0.93176  0.69308  1.0000
  C   C23       1.0  0.64723  0.28346  0.91465  1.0000
  C   C24       1.0  0.35278  0.71654  0.08535  1.0000
  C   C25       1.0  0.50344  0.35459  0.04980  1.0000
  C   C26       1.0  0.49656  0.64541  0.95020  1.0000
  C   C27       1.0  0.42498  0.16711  0.11403  1.0000
  C   C28       1.0  0.57502  0.83289  0.88597  1.0000
  C   C29       1.0  0.84831  0.87324  0.12810  1.0000
  C   C30       1.0  0.15169  0.12676  0.87191  1.0000
  C   C31       1.0  0.39593  0.96840  0.39515  1.0000
  C   C32       1.0  0.60407  0.03160  0.60485  1.0000
  C   C33       1.0  0.46820  0.16014  0.33613  1.0000
  C   C34       1.0  0.53180  0.83986  0.66387  1.0000
  C   C35       1.0  0.71968  0.72387  0.14306  1.0000
  C   C36       1.0  0.28031  0.27613  0.85694  1.0000
  C   C37       1.0  0.09155  0.87677  0.78109  1.0000
  C   C38       1.0  0.90845  0.12323  0.21891  1.0000
  C   C39       1.0  0.03168  0.42348  0.24459  1.0000
  C   C40       1.0  0.96833  0.57652  0.75541  1.0000
  C   C41       1.0  0.80656  0.43069  0.59956  1.0000
  C   C42       1.0  0.19345  0.56931  0.40043  1.0000
  C   C43       1.0  0.84552  0.49714  0.49431  1.0000
  C   C44       1.0  0.15449  0.50286  0.50569  1.0000
  C   C45       1.0  0.80511  0.50880  0.20216  1.0000
  C   C46       1.0  0.19489  0.49120  0.79784  1.0000
  C   C47       1.0  0.70384  0.60682  0.16994  1.0000
  C   C48       1.0  0.29616  0.39317  0.83006  1.0000
  N   N1        1.0  0.92042  0.88898  0.98770  1.0000
  N   N2        1.0  0.07958  0.11102  0.01230  1.0000
  N   N3        1.0  0.94912  0.96298  0.79875  1.0000
  N   N4        1.0  0.05088  0.03702  0.20125  1.0000
  N   N5        1.0  0.95324  0.40133  0.38188  1.0000
  N   N6        1.0  0.04676  0.59867  0.61812  1.0000
  N   N7        1.0  0.88933  0.29698  0.55267  1.0000
  N   N8        1.0  0.11067  0.70302  0.44733  1.0000
  O   O1        1.0  0.77063  0.28894  0.89097  1.0000
  O   O2        1.0  0.22937  0.71106  0.10903  1.0000
  O   O3        1.0  0.13856  0.99113  0.47567  1.0000
  O   O4        1.0  0.86144  0.00886  0.52432  1.0000
  O   O5        1.0  0.63544  0.21803  0.83399  1.0000
  O   O6        1.0  0.36456  0.78197  0.16600  1.0000
  O   O7        1.0  0.17760  0.10237  0.60275  1.0000
  O   O8        1.0  0.82240  0.89763  0.39725  1.0000
