data_image0
_chemical_formula_structural       Cu2H40C56N20O12F16
_chemical_formula_sum              "Cu2 H40 C56 N20 O12 F16"
_cell_length_a       8.67591
_cell_length_b       9.90427
_cell_length_c       20.0103
_cell_angle_alpha    96.8964
_cell_angle_beta     89.9963
_cell_angle_gamma    115.974

_space_group_name_H-M_alt    "P 1"
_space_group_IT_number       1

loop_
  _space_group_symop_operation_xyz
  'x, y, z'

loop_
  _atom_site_type_symbol
  _atom_site_label
  _atom_site_symmetry_multiplicity
  _atom_site_fract_x
  _atom_site_fract_y
  _atom_site_fract_z
  _atom_site_occupancy
  Cu  Cu1       1.0  0.00000  0.00000  0.00000  1.0000
  Cu  Cu2       1.0  0.00000  0.00000  0.50000  1.0000
  H   H1        1.0  0.44533  0.54811  0.34465  1.0000
  H   H2        1.0  0.89766  0.45203  0.15530  1.0000
  H   H3        1.0  0.55467  0.45189  0.65535  1.0000
  H   H4        1.0  0.10234  0.54797  0.84470  1.0000
  H   H5        1.0  0.56838  0.47512  0.29545  1.0000
  H   H6        1.0  0.09352  0.52483  0.20460  1.0000
  H   H7        1.0  0.43162  0.52488  0.70455  1.0000
  H   H8        1.0  0.90648  0.47517  0.79540  1.0000
  H   H9        1.0  0.24537  0.59259  0.02009  1.0000
  H   H10       1.0  0.65324  0.40758  0.47989  1.0000
  H   H11       1.0  0.75463  0.40741  0.97991  1.0000
  H   H12       1.0  0.34676  0.59241  0.52011  1.0000
  H   H13       1.0  0.24746  0.76211  0.06153  1.0000
  H   H14       1.0  0.48562  0.23813  0.43853  1.0000
  H   H15       1.0  0.75254  0.23789  0.93847  1.0000
  H   H16       1.0  0.51438  0.76187  0.56147  1.0000
  H   H17       1.0  0.35219  0.79708  0.92675  1.0000
  H   H18       1.0  0.55529  0.20302  0.57312  1.0000
  H   H19       1.0  0.64781  0.20292  0.07325  1.0000
  H   H20       1.0  0.44471  0.79698  0.42688  1.0000
  H   H21       1.0  0.69031  0.95843  0.89489  1.0000
  H   H22       1.0  0.73171  0.04134  0.60495  1.0000
  H   H23       1.0  0.30969  0.04157  0.10511  1.0000
  H   H24       1.0  0.26829  0.95866  0.39505  1.0000
  H   H25       1.0  0.68763  0.82301  0.08717  1.0000
  H   H26       1.0  0.86481  0.17690  0.41271  1.0000
  H   H27       1.0  0.31237  0.17699  0.91283  1.0000
  H   H28       1.0  0.13519  0.82309  0.58729  1.0000
  H   H29       1.0  0.06144  0.01046  0.34055  1.0000
  H   H30       1.0  0.05105  0.98947  0.15948  1.0000
  H   H31       1.0  0.93856  0.98954  0.65945  1.0000
  H   H32       1.0  0.94895  0.01053  0.84052  1.0000
  H   H33       1.0  0.82608  0.78399  0.24491  1.0000
  H   H34       1.0  0.04242  0.21604  0.25512  1.0000
  H   H35       1.0  0.17392  0.21601  0.75509  1.0000
  H   H36       1.0  0.95758  0.78396  0.74488  1.0000
  H   H37       1.0  0.66123  0.69974  0.44219  1.0000
  H   H38       1.0  0.96138  0.30012  0.05787  1.0000
  H   H39       1.0  0.33876  0.30026  0.55781  1.0000
  H   H40       1.0  0.03862  0.69988  0.94213  1.0000
  C   C1        1.0  0.54148  0.57359  0.30620  1.0000
  C   C2        1.0  0.96810  0.42645  0.19380  1.0000
  C   C3        1.0  0.45852  0.42641  0.69380  1.0000
  C   C4        1.0  0.03190  0.57355  0.80620  1.0000
  C   C5        1.0  0.43823  0.72465  0.24023  1.0000
  C   C6        1.0  0.71343  0.27567  0.25967  1.0000
  C   C7        1.0  0.56177  0.27535  0.75977  1.0000
  C   C8        1.0  0.28657  0.72433  0.74033  1.0000
  C   C9        1.0  0.38629  0.75442  0.18017  1.0000
  C   C10       1.0  0.63175  0.24586  0.31974  1.0000
  C   C11       1.0  0.61371  0.24558  0.81983  1.0000
  C   C12       1.0  0.36825  0.75414  0.68026  1.0000
  C   C13       1.0  0.37162  0.66363  0.11903  1.0000
  C   C14       1.0  0.70807  0.33647  0.38090  1.0000
  C   C15       1.0  0.62838  0.33637  0.88097  1.0000
  C   C16       1.0  0.29193  0.66353  0.61910  1.0000
  C   C17       1.0  0.40869  0.54054  0.12133  1.0000
  C   C18       1.0  0.86835  0.45941  0.37862  1.0000
  C   C19       1.0  0.59131  0.45946  0.87867  1.0000
  C   C20       1.0  0.13165  0.54059  0.62138  1.0000
  C   C21       1.0  0.45933  0.51006  0.18155  1.0000
  C   C22       1.0  0.94944  0.48994  0.31842  1.0000
  C   C23       1.0  0.54066  0.48993  0.81845  1.0000
  C   C24       1.0  0.05056  0.51006  0.68158  1.0000
  C   C25       1.0  0.47704  0.60224  0.24230  1.0000
  C   C26       1.0  0.87484  0.39790  0.25767  1.0000
  C   C27       1.0  0.52295  0.39776  0.75770  1.0000
  C   C28       1.0  0.12517  0.60211  0.74233  1.0000
  C   C29       1.0  0.32348  0.69806  0.05341  1.0000
  C   C30       1.0  0.62571  0.30208  0.44657  1.0000
  C   C31       1.0  0.67652  0.30195  0.94659  1.0000
  C   C32       1.0  0.37429  0.69792  0.55343  1.0000
  C   C33       1.0  0.47189  0.82822  0.95494  1.0000
  C   C34       1.0  0.64384  0.17181  0.54495  1.0000
  C   C35       1.0  0.52811  0.17179  0.04506  1.0000
  C   C36       1.0  0.35616  0.82819  0.45505  1.0000
  C   C37       1.0  0.63966  0.90762  0.93981  1.0000
  C   C38       1.0  0.73200  0.09226  0.56006  1.0000
  C   C39       1.0  0.36034  0.09238  0.06019  1.0000
  C   C40       1.0  0.26800  0.90773  0.43994  1.0000
  C   C41       1.0  0.64363  0.84112  0.03979  1.0000
  C   C42       1.0  0.80268  0.15887  0.46009  1.0000
  C   C43       1.0  0.35637  0.15888  0.96021  1.0000
  C   C44       1.0  0.19731  0.84113  0.53991  1.0000
  C   C45       1.0  0.94435  0.91097  0.34700  1.0000
  C   C46       1.0  0.03336  0.08891  0.15303  1.0000
  C   C47       1.0  0.05565  0.08903  0.65300  1.0000
  C   C48       1.0  0.96664  0.91109  0.84697  1.0000
  C   C49       1.0  0.82803  0.80175  0.29957  1.0000
  C   C50       1.0  0.02642  0.19821  0.20046  1.0000
  C   C51       1.0  0.17198  0.19825  0.70043  1.0000
  C   C52       1.0  0.97358  0.80179  0.79954  1.0000
  C   C53       1.0  0.73805  0.75565  0.40207  1.0000
  C   C54       1.0  0.98231  0.24419  0.09798  1.0000
  C   C55       1.0  0.26195  0.24436  0.59793  1.0000
  C   C56       1.0  0.01769  0.75581  0.90202  1.0000
  N   N1        1.0  0.74484  0.91481  0.99310  1.0000
  N   N2        1.0  0.83006  0.08510  0.50678  1.0000
  N   N3        1.0  0.25516  0.08519  0.00690  1.0000
  N   N4        1.0  0.16994  0.91490  0.49322  1.0000
  N   N5        1.0  0.47669  0.78661  0.01802  1.0000
  N   N6        1.0  0.69032  0.21346  0.48188  1.0000
  N   N7        1.0  0.52331  0.21339  0.98198  1.0000
  N   N8        1.0  0.30967  0.78653  0.51811  1.0000
  N   N9        1.0  0.88688  0.88040  0.41034  1.0000
  N   N10       1.0  0.00632  0.11940  0.08970  1.0000
  N   N11       1.0  0.11312  0.11960  0.58966  1.0000
  N   N12       1.0  0.99369  0.88060  0.91030  1.0000
  N   N13       1.0  0.69809  0.70522  0.33522  1.0000
  N   N14       1.0  0.99295  0.29471  0.16482  1.0000
  N   N15       1.0  0.30191  0.29478  0.66478  1.0000
  N   N16       1.0  0.00705  0.70529  0.83518  1.0000
  N   N17       1.0  0.91053  0.67989  0.08943  1.0000
  N   N18       1.0  0.23152  0.32003  0.41055  1.0000
  N   N19       1.0  0.08947  0.32011  0.91057  1.0000
  N   N20       1.0  0.76849  0.67997  0.58945  1.0000
  O   O1        1.0  0.01126  0.79592  0.06306  1.0000
  O   O2        1.0  0.21608  0.20402  0.43698  1.0000
  O   O3        1.0  0.98874  0.20409  0.93694  1.0000
  O   O4        1.0  0.78392  0.79598  0.56302  1.0000
  O   O5        1.0  0.90266  0.55138  0.06759  1.0000
  O   O6        1.0  0.35169  0.44864  0.43259  1.0000
  O   O7        1.0  0.09735  0.44863  0.93241  1.0000
  O   O8        1.0  0.64832  0.55136  0.56741  1.0000
  O   O9        1.0  0.82076  0.69376  0.13731  1.0000
  O   O10       1.0  0.12850  0.30602  0.36241  1.0000
  O   O11       1.0  0.17924  0.30624  0.86269  1.0000
  O   O12       1.0  0.87151  0.69397  0.63760  1.0000
  F   F1        1.0  0.34872  0.87392  0.18164  1.0000
  F   F2        1.0  0.47456  0.12656  0.31828  1.0000
  F   F3        1.0  0.65128  0.12608  0.81836  1.0000
  F   F4        1.0  0.52544  0.87343  0.68172  1.0000
  F   F5        1.0  0.45345  0.81793  0.29779  1.0000
  F   F6        1.0  0.63535  0.18260  0.20208  1.0000
  F   F7        1.0  0.54654  0.18207  0.70221  1.0000
  F   F8        1.0  0.36465  0.81739  0.79792  1.0000
  F   F9        1.0  0.49575  0.39038  0.18024  1.0000
  F   F10       1.0  0.10565  0.60954  0.31976  1.0000
  F   F11       1.0  0.50423  0.60961  0.81976  1.0000
  F   F12       1.0  0.89436  0.39046  0.68024  1.0000
  F   F13       1.0  0.39956  0.45066  0.06361  1.0000
  F   F14       1.0  0.94913  0.54917  0.43637  1.0000
  F   F15       1.0  0.60043  0.54934  0.93639  1.0000
  F   F16       1.0  0.05087  0.45083  0.56363  1.0000
