data_image0
_chemical_formula_structural       Zn2H44C48N8O8
_chemical_formula_sum              "Zn2 H44 C48 N8 O8"
_cell_length_a       9.5226
_cell_length_b       12.2491
_cell_length_c       12.574
_cell_angle_alpha    104.621
_cell_angle_beta     96.8394
_cell_angle_gamma    105.1

_space_group_name_H-M_alt    "P 1"
_space_group_IT_number       1

loop_
  _space_group_symop_operation_xyz
  'x, y, z'

loop_
  _atom_site_type_symbol
  _atom_site_label
  _atom_site_symmetry_multiplicity
  _atom_site_fract_x
  _atom_site_fract_y
  _atom_site_fract_z
  _atom_site_occupancy
  Zn  Zn1       1.0  0.29522  0.26958  0.72403  1.0000
  Zn  Zn2       1.0  0.70478  0.73042  0.27597  1.0000
  H   H1        1.0  0.78061  0.01385  0.37870  1.0000
  H   H2        1.0  0.21939  0.98614  0.62130  1.0000
  H   H3        1.0  0.24628  0.42495  0.95361  1.0000
  H   H4        1.0  0.75371  0.57505  0.04639  1.0000
  H   H5        1.0  0.35300  0.32047  0.48694  1.0000
  H   H6        1.0  0.64699  0.67953  0.51306  1.0000
  H   H7        1.0  0.49393  0.43799  0.37750  1.0000
  H   H8        1.0  0.50606  0.56201  0.62250  1.0000
  H   H9        1.0  0.96314  0.20604  0.22617  1.0000
  H   H10       1.0  0.03686  0.79395  0.77383  1.0000
  H   H11       1.0  0.53681  0.21863  0.89496  1.0000
  H   H12       1.0  0.46319  0.78137  0.10503  1.0000
  H   H13       1.0  0.10351  0.32427  0.11741  1.0000
  H   H14       1.0  0.89649  0.67572  0.88259  1.0000
  H   H15       1.0  0.33349  0.52828  0.16121  1.0000
  H   H16       1.0  0.66650  0.47172  0.83879  1.0000
  H   H17       1.0  0.50160  0.51744  0.22933  1.0000
  H   H18       1.0  0.49839  0.48256  0.77068  1.0000
  H   H19       1.0  0.12396  0.21537  0.51776  1.0000
  H   H20       1.0  0.87604  0.78462  0.48224  1.0000
  H   H21       1.0  0.95644  0.21502  0.43896  1.0000
  H   H22       1.0  0.04356  0.78497  0.56105  1.0000
  H   H23       1.0  0.05134  0.80086  0.27562  1.0000
  H   H24       1.0  0.94866  0.19914  0.72438  1.0000
  H   H25       1.0  0.57894  0.32601  0.12713  1.0000
  H   H26       1.0  0.42106  0.67399  0.87287  1.0000
  H   H27       1.0  0.58203  0.09588  0.34692  1.0000
  H   H28       1.0  0.41797  0.90413  0.65308  1.0000
  H   H29       1.0  0.22846  0.03942  0.35725  1.0000
  H   H30       1.0  0.77154  0.96058  0.64275  1.0000
  H   H31       1.0  0.67965  0.20999  0.22118  1.0000
  H   H32       1.0  0.32035  0.79000  0.77882  1.0000
  H   H33       1.0  0.84059  0.37671  0.19281  1.0000
  H   H34       1.0  0.15942  0.62329  0.80719  1.0000
  H   H35       1.0  0.98465  0.45912  0.30605  1.0000
  H   H36       1.0  0.01536  0.54088  0.69395  1.0000
  H   H37       1.0  0.61142  0.07375  0.53057  1.0000
  H   H38       1.0  0.38858  0.92626  0.46943  1.0000
  H   H39       1.0  0.73149  0.18889  0.64311  1.0000
  H   H40       1.0  0.26851  0.81111  0.35689  1.0000
  H   H41       1.0  0.77934  0.40562  0.63057  1.0000
  H   H42       1.0  0.22066  0.59439  0.36942  1.0000
  H   H43       1.0  0.87297  0.52074  0.50451  1.0000
  H   H44       1.0  0.12704  0.47927  0.49549  1.0000
  C   C1        1.0  0.30744  0.38936  0.24135  1.0000
  C   C2        1.0  0.69254  0.61064  0.75865  1.0000
  C   C3        1.0  0.14865  0.25703  0.36393  1.0000
  C   C4        1.0  0.85134  0.74297  0.63607  1.0000
  C   C5        1.0  0.87843  0.98747  0.36366  1.0000
  C   C6        1.0  0.12157  0.01253  0.63635  1.0000
  C   C7        1.0  0.33243  0.38438  0.96885  1.0000
  C   C8        1.0  0.66757  0.61562  0.03116  1.0000
  C   C9        1.0  0.29838  0.32098  0.40580  1.0000
  C   C10       1.0  0.70161  0.67902  0.59421  1.0000
  C   C11       1.0  0.37751  0.38686  0.34445  1.0000
  C   C12       1.0  0.62248  0.61315  0.65555  1.0000
  C   C13       1.0  0.07993  0.25635  0.25871  1.0000
  C   C14       1.0  0.92006  0.74364  0.74129  1.0000
  C   C15       1.0  0.48519  0.27862  0.94259  1.0000
  C   C16       1.0  0.51481  0.72138  0.05741  1.0000
  C   C17       1.0  0.15858  0.32239  0.19796  1.0000
  C   C18       1.0  0.84141  0.67760  0.80204  1.0000
  C   C19       1.0  0.78636  0.37376  0.35339  1.0000
  C   C20       1.0  0.21364  0.62623  0.64660  1.0000
  C   C21       1.0  0.39118  0.46603  0.17886  1.0000
  C   C22       1.0  0.60881  0.53396  0.82114  1.0000
  C   C23       1.0  0.05984  0.19193  0.43259  1.0000
  C   C24       1.0  0.94015  0.80806  0.56742  1.0000
  C   C25       1.0  0.83837  0.55168  0.26550  1.0000
  C   C26       1.0  0.16163  0.44832  0.73450  1.0000
  C   C27       1.0  0.50728  0.17845  0.63653  1.0000
  C   C28       1.0  0.49273  0.82157  0.36348  1.0000
  C   C29       1.0  0.67605  0.24189  0.49830  1.0000
  C   C30       1.0  0.32395  0.75812  0.50170  1.0000
  C   C31       1.0  0.02449  0.88149  0.31097  1.0000
  C   C32       1.0  0.97551  0.11851  0.68903  1.0000
  C   C33       1.0  0.50661  0.33038  0.05610  1.0000
  C   C34       1.0  0.49339  0.66962  0.94390  1.0000
  C   C35       1.0  0.64506  0.18962  0.38200  1.0000
  C   C36       1.0  0.35494  0.81038  0.61800  1.0000
  C   C37       1.0  0.11121  0.99757  0.35060  1.0000
  C   C38       1.0  0.88879  0.00243  0.64940  1.0000
  C   C39       1.0  0.70027  0.25471  0.31114  1.0000
  C   C40       1.0  0.29973  0.74529  0.68886  1.0000
  C   C41       1.0  0.86392  0.43701  0.27853  1.0000
  C   C42       1.0  0.13609  0.56299  0.72146  1.0000
  C   C43       1.0  0.63516  0.16799  0.57552  1.0000
  C   C44       1.0  0.36484  0.83202  0.42448  1.0000
  C   C45       1.0  0.75590  0.36261  0.54037  1.0000
  C   C46       1.0  0.24411  0.63739  0.45962  1.0000
  C   C47       1.0  0.80928  0.42753  0.46940  1.0000
  C   C48       1.0  0.19073  0.57248  0.53059  1.0000
  N   N1        1.0  0.37626  0.31326  0.88924  1.0000
  N   N2        1.0  0.62374  0.68674  0.11076  1.0000
  N   N3        1.0  0.40977  0.39709  0.07084  1.0000
  N   N4        1.0  0.59023  0.60291  0.92916  1.0000
  N   N5        1.0  0.87972  0.87649  0.31994  1.0000
  N   N6        1.0  0.12029  0.12351  0.68006  1.0000
  N   N7        1.0  0.01693  0.06302  0.38335  1.0000
  N   N8        1.0  0.98307  0.93698  0.61665  1.0000
  O   O1        1.0  0.74115  0.58936  0.31547  1.0000
  O   O2        1.0  0.25885  0.41064  0.68453  1.0000
  O   O3        1.0  0.91165  0.60196  0.20557  1.0000
  O   O4        1.0  0.08835  0.39805  0.79443  1.0000
  O   O5        1.0  0.45139  0.26306  0.63171  1.0000
  O   O6        1.0  0.54862  0.73696  0.36830  1.0000
  O   O7        1.0  0.46586  0.10643  0.69025  1.0000
  O   O8        1.0  0.53414  0.89358  0.30975  1.0000
