data_image0
_chemical_formula_structural       Ag4H14C14I4N4
_chemical_formula_sum              "Ag4 H14 C14 I4 N4"
_cell_length_a       4.42097
_cell_length_b       11.8448
_cell_length_c       12.2299
_cell_angle_alpha    60.6346
_cell_angle_beta     81.4688
_cell_angle_gamma    81.8343

_space_group_name_H-M_alt    "P 1"
_space_group_IT_number       1

loop_
  _space_group_symop_operation_xyz
  'x, y, z'

loop_
  _atom_site_type_symbol
  _atom_site_label
  _atom_site_symmetry_multiplicity
  _atom_site_fract_x
  _atom_site_fract_y
  _atom_site_fract_z
  _atom_site_occupancy
  Ag  Ag1       1.0  0.81036  0.32631  0.92179  1.0000
  Ag  Ag2       1.0  0.18963  0.67368  0.07820  1.0000
  Ag  Ag3       1.0  0.31895  0.12175  0.97780  1.0000
  Ag  Ag4       1.0  0.68105  0.87825  0.02221  1.0000
  H   H1        1.0  0.28858  0.59129  0.81029  1.0000
  H   H2        1.0  0.71143  0.40870  0.18970  1.0000
  H   H3        1.0  0.92300  0.44958  0.60426  1.0000
  H   H4        1.0  0.07697  0.55041  0.39573  1.0000
  H   H5        1.0  0.57612  0.66775  0.43617  1.0000
  H   H6        1.0  0.42387  0.33226  0.56382  1.0000
  H   H7        1.0  0.97230  0.76674  0.63488  1.0000
  H   H8        1.0  0.02771  0.23327  0.36512  1.0000
  H   H9        1.0  0.06685  0.78988  0.47905  1.0000
  H   H10       1.0  0.93317  0.21013  0.52095  1.0000
  H   H11       1.0  0.46795  0.93666  0.33636  1.0000
  H   H12       1.0  0.53207  0.06335  0.66365  1.0000
  H   H13       1.0  0.22706  0.88160  0.71322  1.0000
  H   H14       1.0  0.77294  0.11841  0.28679  1.0000
  C   C1        1.0  0.41980  0.58115  0.73282  1.0000
  C   C2        1.0  0.58021  0.41885  0.26718  1.0000
  C   C3        1.0  0.74315  0.51256  0.62169  1.0000
  C   C4        1.0  0.25682  0.48742  0.37831  1.0000
  C   C5        1.0  0.57438  0.61926  0.53789  1.0000
  C   C6        1.0  0.42563  0.38074  0.46211  1.0000
  C   C7        1.0  0.16137  0.77977  0.56170  1.0000
  C   C8        1.0  0.83864  0.22023  0.43830  1.0000
  C   C9        1.0  0.32973  0.89612  0.52852  1.0000
  C   C10       1.0  0.67029  0.10389  0.47148  1.0000
  C   C11       1.0  0.48271  0.96386  0.40862  1.0000
  C   C12       1.0  0.51730  0.03614  0.59140  1.0000
  C   C13       1.0  0.34754  0.93315  0.61970  1.0000
  C   C14       1.0  0.65248  0.06685  0.38030  1.0000
  I   I1        1.0  0.87019  0.13326  0.81662  1.0000
  I   I2        1.0  0.12981  0.86673  0.18338  1.0000
  I   I3        1.0  0.23318  0.29101  0.08247  1.0000
  I   I4        1.0  0.76681  0.70899  0.91753  1.0000
  N   N1        1.0  0.64532  0.49009  0.74260  1.0000
  N   N2        1.0  0.35467  0.50991  0.25740  1.0000
  N   N3        1.0  0.36904  0.66079  0.61011  1.0000
  N   N4        1.0  0.63096  0.33921  0.38989  1.0000
