data_image0
_chemical_formula_structural       Mn2H12C20N16O4
_chemical_formula_sum              "Mn2 H12 C20 N16 O4"
_cell_length_a       7.52295
_cell_length_b       7.52442
_cell_length_c       12.0409
_cell_angle_alpha    84.7058
_cell_angle_beta     85.8752
_cell_angle_gamma    62.1805

_space_group_name_H-M_alt    "P 1"
_space_group_IT_number       1

loop_
  _space_group_symop_operation_xyz
  'x, y, z'

loop_
  _atom_site_type_symbol
  _atom_site_label
  _atom_site_symmetry_multiplicity
  _atom_site_fract_x
  _atom_site_fract_y
  _atom_site_fract_z
  _atom_site_occupancy
  Mn  Mn1       1.0  0.08097  0.91670  0.25014  1.0000
  Mn  Mn2       1.0  0.92633  0.07857  0.74890  1.0000
  H   H1        1.0  0.67991  0.19562  0.27702  1.0000
  H   H2        1.0  0.80215  0.32230  0.22196  1.0000
  H   H3        1.0  0.30995  0.81737  0.72839  1.0000
  H   H4        1.0  0.18119  0.68849  0.78099  1.0000
  H   H5        1.0  0.46080  0.59958  0.30881  1.0000
  H   H6        1.0  0.39426  0.53688  0.19840  1.0000
  H   H7        1.0  0.56268  0.37592  0.68785  1.0000
  H   H8        1.0  0.62816  0.43790  0.80123  1.0000
  H   H9        1.0  0.96371  0.55943  0.31275  1.0000
  H   H10       1.0  0.44610  0.02805  0.18780  1.0000
  H   H11       1.0  0.00649  0.45690  0.67455  1.0000
  H   H12       1.0  0.54459  0.99966  0.82170  1.0000
  C   C1        1.0  0.84343  0.79213  0.07166  1.0000
  C   C2        1.0  0.21689  0.14428  0.42519  1.0000
  C   C3        1.0  0.14838  0.21098  0.91040  1.0000
  C   C4        1.0  0.78669  0.85603  0.59021  1.0000
  C   C5        1.0  0.77540  0.64475  0.07287  1.0000
  C   C6        1.0  0.36134  0.21569  0.42414  1.0000
  C   C7        1.0  0.20516  0.36493  0.91233  1.0000
  C   C8        1.0  0.63481  0.79604  0.58961  1.0000
  C   C9        1.0  0.90886  0.61497  0.22924  1.0000
  C   C10       1.0  0.39143  0.08198  0.27015  1.0000
  C   C11       1.0  0.06700  0.39854  0.75653  1.0000
  C   C12       1.0  0.60211  0.93851  0.74123  1.0000
  C   C13       1.0  0.84595  0.91941  0.97955  1.0000
  C   C14       1.0  0.09579  0.13799  0.51788  1.0000
  C   C15       1.0  0.16801  0.07170  0.99991  1.0000
  C   C16       1.0  0.92294  0.83579  0.50110  1.0000
  C   C17       1.0  0.68643  0.60362  0.98691  1.0000
  C   C18       1.0  0.39339  0.30854  0.51074  1.0000
  C   C19       1.0  0.29773  0.39706  0.00048  1.0000
  C   C20       1.0  0.60602  0.69716  0.50418  1.0000
  N   N1        1.0  0.92731  0.77010  0.17341  1.0000
  N   N2        1.0  0.23822  0.06093  0.32482  1.0000
  N   N3        1.0  0.06102  0.23456  0.80972  1.0000
  N   N4        1.0  0.76465  0.94581  0.68860  1.0000
  N   N5        1.0  0.81907  0.53447  0.17335  1.0000
  N   N6        1.0  0.47076  0.17351  0.32552  1.0000
  N   N7        1.0  0.15196  0.48174  0.81446  1.0000
  N   N8        1.0  0.51913  0.85086  0.68537  1.0000
  N   N9        1.0  0.85536  0.00506  0.89405  1.0000
  N   N10       1.0  0.01708  0.12700  0.60452  1.0000
  N   N11       1.0  0.18995  0.96893  0.08212  1.0000
  N   N12       1.0  0.02309  0.81245  0.41941  1.0000
  N   N13       1.0  0.61379  0.56909  0.91474  1.0000
  N   N14       1.0  0.41268  0.38366  0.58653  1.0000
  N   N15       1.0  0.37460  0.41583  0.07619  1.0000
  N   N16       1.0  0.59148  0.61578  0.43001  1.0000
  O   O1        1.0  0.81343  0.18689  0.24971  1.0000
  O   O2        1.0  0.18192  0.82316  0.76417  1.0000
  O   O3        1.0  0.35345  0.63462  0.25605  1.0000
  O   O4        1.0  0.67599  0.36205  0.73244  1.0000
