data_image0
_chemical_formula_structural       Zn2H12C20N16O4
_chemical_formula_sum              "Zn2 H12 C20 N16 O4"
_cell_length_a       7.55293
_cell_length_b       7.55291
_cell_length_c       12.1819
_cell_angle_alpha    86.6524
_cell_angle_beta     86.6523
_cell_angle_gamma    61.7847

_space_group_name_H-M_alt    "P 1"
_space_group_IT_number       1

loop_
  _space_group_symop_operation_xyz
  'x, y, z'

loop_
  _atom_site_type_symbol
  _atom_site_label
  _atom_site_symmetry_multiplicity
  _atom_site_fract_x
  _atom_site_fract_y
  _atom_site_fract_z
  _atom_site_occupancy
  Zn  Zn1       1.0  0.09144  0.90857  0.25000  1.0000
  Zn  Zn2       1.0  0.90856  0.09144  0.75000  1.0000
  H   H1        1.0  0.46327  0.60321  0.30509  1.0000
  H   H2        1.0  0.39679  0.53673  0.19491  1.0000
  H   H3        1.0  0.53673  0.39679  0.69491  1.0000
  H   H4        1.0  0.60321  0.46327  0.80509  1.0000
  H   H5        1.0  0.69407  0.18271  0.27554  1.0000
  H   H6        1.0  0.81729  0.30594  0.22446  1.0000
  H   H7        1.0  0.30593  0.81729  0.72445  1.0000
  H   H8        1.0  0.18271  0.69406  0.77554  1.0000
  H   H9        1.0  0.99961  0.53679  0.31440  1.0000
  H   H10       1.0  0.46321  0.00039  0.18560  1.0000
  H   H11       1.0  0.00039  0.46321  0.68560  1.0000
  H   H12       1.0  0.53678  0.99961  0.81440  1.0000
  C   C1        1.0  0.85503  0.78049  0.08583  1.0000
  C   C2        1.0  0.21952  0.14497  0.41417  1.0000
  C   C3        1.0  0.14497  0.21950  0.91417  1.0000
  C   C4        1.0  0.78048  0.85505  0.58583  1.0000
  C   C5        1.0  0.78867  0.63433  0.08375  1.0000
  C   C6        1.0  0.36568  0.21134  0.41626  1.0000
  C   C7        1.0  0.21133  0.36566  0.91626  1.0000
  C   C8        1.0  0.63432  0.78867  0.58374  1.0000
  C   C9        1.0  0.93691  0.59591  0.23447  1.0000
  C   C10       1.0  0.40410  0.06309  0.26554  1.0000
  C   C11       1.0  0.06309  0.40409  0.76553  1.0000
  C   C12       1.0  0.59590  0.93691  0.73447  1.0000
  C   C13       1.0  0.83934  0.91623  0.99858  1.0000
  C   C14       1.0  0.08378  0.16066  0.50142  1.0000
  C   C15       1.0  0.16066  0.08376  0.00142  1.0000
  C   C16       1.0  0.91622  0.83936  0.49858  1.0000
  C   C17       1.0  0.68750  0.60929  0.99734  1.0000
  C   C18       1.0  0.39072  0.31251  0.50266  1.0000
  C   C19       1.0  0.31249  0.39069  0.00265  1.0000
  C   C20       1.0  0.60929  0.68751  0.49734  1.0000
  N   N1        1.0  0.94886  0.75361  0.18323  1.0000
  N   N2        1.0  0.24639  0.05114  0.31678  1.0000
  N   N3        1.0  0.05114  0.24639  0.81677  1.0000
  N   N4        1.0  0.75360  0.94887  0.68323  1.0000
  N   N5        1.0  0.84244  0.51846  0.17858  1.0000
  N   N6        1.0  0.48155  0.15756  0.32142  1.0000
  N   N7        1.0  0.15756  0.48154  0.82142  1.0000
  N   N8        1.0  0.51845  0.84244  0.67858  1.0000
  N   N9        1.0  0.82375  0.01738  0.91972  1.0000
  N   N10       1.0  0.98261  0.17626  0.58029  1.0000
  N   N11       1.0  0.17626  0.98260  0.08028  1.0000
  N   N12       1.0  0.01739  0.82375  0.41972  1.0000
  N   N13       1.0  0.60504  0.59716  0.92233  1.0000
  N   N14       1.0  0.40285  0.39497  0.57767  1.0000
  N   N15       1.0  0.39496  0.40283  0.07767  1.0000
  N   N16       1.0  0.59716  0.60504  0.42233  1.0000
  O   O1        1.0  0.35959  0.64043  0.25000  1.0000
  O   O2        1.0  0.64041  0.35958  0.75000  1.0000
  O   O3        1.0  0.82673  0.17327  0.25000  1.0000
  O   O4        1.0  0.17327  0.82673  0.75000  1.0000
