data_image0
_chemical_formula_structural       Cd2H36C52N4O12
_chemical_formula_sum              "Cd2 H36 C52 N4 O12"
_cell_length_a       7.15374
_cell_length_b       11.5054
_cell_length_c       14.1677
_cell_angle_alpha    113.961
_cell_angle_beta     95.8034
_cell_angle_gamma    89.9966

_space_group_name_H-M_alt    "P 1"
_space_group_IT_number       1

loop_
  _space_group_symop_operation_xyz
  'x, y, z'

loop_
  _atom_site_type_symbol
  _atom_site_label
  _atom_site_symmetry_multiplicity
  _atom_site_fract_x
  _atom_site_fract_y
  _atom_site_fract_z
  _atom_site_occupancy
  Cd  Cd1       1.0  0.24984  0.39491  0.00004  1.0000
  Cd  Cd2       1.0  0.75017  0.60509  0.99996  1.0000
  H   H1        1.0  0.14036  0.42366  0.23102  1.0000
  H   H2        1.0  0.35916  0.19290  0.76907  1.0000
  H   H3        1.0  0.85963  0.57634  0.76897  1.0000
  H   H4        1.0  0.64084  0.80710  0.23093  1.0000
  H   H5        1.0  0.11242  0.29401  0.33613  1.0000
  H   H6        1.0  0.38756  0.95816  0.66396  1.0000
  H   H7        1.0  0.88757  0.70599  0.66387  1.0000
  H   H8        1.0  0.61244  0.04184  0.33604  1.0000
  H   H9        1.0  0.15851  0.05952  0.25219  1.0000
  H   H10       1.0  0.34178  0.80756  0.74791  1.0000
  H   H11       1.0  0.84148  0.94048  0.74780  1.0000
  H   H12       1.0  0.65822  0.19245  0.25209  1.0000
  H   H13       1.0  0.21214  0.86527  0.08885  1.0000
  H   H14       1.0  0.28824  0.77650  0.91093  1.0000
  H   H15       1.0  0.78785  0.13473  0.91115  1.0000
  H   H16       1.0  0.71176  0.22351  0.08907  1.0000
  H   H17       1.0  0.48934  0.51659  0.27095  1.0000
  H   H18       1.0  0.01079  0.24552  0.72907  1.0000
  H   H19       1.0  0.51066  0.48342  0.72905  1.0000
  H   H20       1.0  0.98922  0.75448  0.27093  1.0000
  H   H21       1.0  0.60452  0.36948  0.22157  1.0000
  H   H22       1.0  0.89521  0.14802  0.77851  1.0000
  H   H23       1.0  0.39548  0.63052  0.77843  1.0000
  H   H24       1.0  0.10479  0.85199  0.22150  1.0000
  H   H25       1.0  0.52912  0.39270  0.37409  1.0000
  H   H26       1.0  0.97099  0.01850  0.62578  1.0000
  H   H27       1.0  0.47089  0.60730  0.62591  1.0000
  H   H28       1.0  0.02901  0.98151  0.37423  1.0000
  H   H29       1.0  0.09163  0.62447  0.37641  1.0000
  H   H30       1.0  0.40847  0.24813  0.62366  1.0000
  H   H31       1.0  0.90838  0.37553  0.62359  1.0000
  H   H32       1.0  0.59153  0.75187  0.37635  1.0000
  H   H33       1.0  0.60125  0.31885  0.51469  1.0000
  H   H34       1.0  0.89872  0.80411  0.48516  1.0000
  H   H35       1.0  0.39877  0.68114  0.48531  1.0000
  H   H36       1.0  0.10128  0.19589  0.51484  1.0000
  C   C1        1.0  0.16020  0.32137  0.19785  1.0000
  C   C2        1.0  0.33955  0.12378  0.80226  1.0000
  C   C3        1.0  0.83979  0.67863  0.80215  1.0000
  C   C4        1.0  0.66045  0.87622  0.19774  1.0000
  C   C5        1.0  0.14428  0.24808  0.25590  1.0000
  C   C6        1.0  0.35586  0.99245  0.74421  1.0000
  C   C7        1.0  0.85571  0.75192  0.74410  1.0000
  C   C8        1.0  0.64413  0.00755  0.25579  1.0000
  C   C9        1.0  0.16877  0.11869  0.20904  1.0000
  C   C10       1.0  0.33148  0.90990  0.79104  1.0000
  C   C11       1.0  0.83123  0.88132  0.79096  1.0000
  C   C12       1.0  0.66851  0.09010  0.20896  1.0000
  C   C13       1.0  0.20820  0.06247  0.10456  1.0000
  C   C14       1.0  0.29203  0.95809  0.89549  1.0000
  C   C15       1.0  0.79179  0.93753  0.89544  1.0000
  C   C16       1.0  0.70796  0.04191  0.10450  1.0000
  C   C17       1.0  0.22701  0.14488  0.05316  1.0000
  C   C18       1.0  0.27304  0.09188  0.94697  1.0000
  C   C19       1.0  0.77298  0.85512  0.94684  1.0000
  C   C20       1.0  0.72696  0.90812  0.05303  1.0000
  C   C21       1.0  0.22999  0.92875  0.05025  1.0000
  C   C22       1.0  0.27027  0.87855  0.94966  1.0000
  C   C23       1.0  0.77000  0.07125  0.94975  1.0000
  C   C24       1.0  0.72972  0.12145  0.05033  1.0000
  C   C25       1.0  0.64757  0.49372  0.14516  1.0000
  C   C26       1.0  0.85231  0.34874  0.85471  1.0000
  C   C27       1.0  0.35243  0.50629  0.85484  1.0000
  C   C28       1.0  0.14769  0.65127  0.14529  1.0000
  C   C29       1.0  0.62069  0.47220  0.24232  1.0000
  C   C30       1.0  0.87927  0.22989  0.75763  1.0000
  C   C31       1.0  0.37931  0.52780  0.75768  1.0000
  C   C32       1.0  0.12073  0.77011  0.24237  1.0000
  C   C33       1.0  0.80231  0.48568  0.39745  1.0000
  C   C34       1.0  0.69786  0.08822  0.60247  1.0000
  C   C35       1.0  0.19769  0.51432  0.60255  1.0000
  C   C36       1.0  0.30214  0.91179  0.39753  1.0000
  C   C37       1.0  0.66789  0.41490  0.41817  1.0000
  C   C38       1.0  0.83218  0.99666  0.58177  1.0000
  C   C39       1.0  0.33212  0.58510  0.58183  1.0000
  C   C40       1.0  0.16782  0.00335  0.41824  1.0000
  C   C41       1.0  0.98159  0.52097  0.45896  1.0000
  C   C42       1.0  0.51851  0.06203  0.54103  1.0000
  C   C43       1.0  0.01841  0.47903  0.54104  1.0000
  C   C44       1.0  0.48150  0.93798  0.45898  1.0000
  C   C45       1.0  0.12045  0.59452  0.43982  1.0000
  C   C46       1.0  0.37963  0.15474  0.56022  1.0000
  C   C47       1.0  0.87956  0.40548  0.56018  1.0000
  C   C48       1.0  0.62036  0.84526  0.43978  1.0000
  C   C49       1.0  0.70846  0.37455  0.49956  1.0000
  C   C50       1.0  0.79150  0.87494  0.50035  1.0000
  C   C51       1.0  0.29155  0.62545  0.50044  1.0000
  C   C52       1.0  0.20850  0.12506  0.49965  1.0000
  N   N1        1.0  0.20248  0.27147  0.10036  1.0000
  N   N2        1.0  0.29730  0.17131  0.89977  1.0000
  N   N3        1.0  0.79751  0.72853  0.89964  1.0000
  N   N4        1.0  0.70270  0.82869  0.10023  1.0000
  O   O1        1.0  0.57303  0.41047  0.05954  1.0000
  O   O2        1.0  0.92662  0.35129  0.94043  1.0000
  O   O3        1.0  0.42697  0.58953  0.94046  1.0000
  O   O4        1.0  0.07339  0.64872  0.05958  1.0000
  O   O5        1.0  0.73972  0.59385  0.15696  1.0000
  O   O6        1.0  0.76036  0.43706  0.84274  1.0000
  O   O7        1.0  0.26028  0.40615  0.84304  1.0000
  O   O8        1.0  0.23965  0.56294  0.15727  1.0000
  O   O9        1.0  0.77860  0.52641  0.31930  1.0000
  O   O10       1.0  0.72157  0.20713  0.68058  1.0000
  O   O11       1.0  0.22141  0.47359  0.68070  1.0000
  O   O12       1.0  0.27844  0.79287  0.31943  1.0000
