data_image0
_chemical_formula_structural       Cu4H12C8S2N16O16
_chemical_formula_sum              "Cu4 H12 C8 S2 N16 O16"
_cell_length_a       6.25209
_cell_length_b       9.65824
_cell_length_c       11.1776
_cell_angle_alpha    84.798
_cell_angle_beta     73.7537
_cell_angle_gamma    71.1141

_space_group_name_H-M_alt    "P 1"
_space_group_IT_number       1

loop_
  _space_group_symop_operation_xyz
  'x, y, z'

loop_
  _atom_site_type_symbol
  _atom_site_label
  _atom_site_symmetry_multiplicity
  _atom_site_fract_x
  _atom_site_fract_y
  _atom_site_fract_z
  _atom_site_occupancy
  Cu  Cu1       1.0  0.96530  0.22911  0.84231  1.0000
  Cu  Cu2       1.0  0.03683  0.77093  0.15774  1.0000
  Cu  Cu3       1.0  0.94440  0.27091  0.34241  1.0000
  Cu  Cu4       1.0  0.55761  0.72911  0.65772  1.0000
  H   H1        1.0  0.46814  0.90093  0.40546  1.0000
  H   H2        1.0  0.77441  0.09894  0.59469  1.0000
  H   H3        1.0  0.11905  0.59916  0.90555  1.0000
  H   H4        1.0  0.62361  0.40098  0.09456  1.0000
  H   H5        1.0  0.17508  0.36568  0.64455  1.0000
  H   H6        1.0  0.18554  0.63440  0.35537  1.0000
  H   H7        1.0  0.29068  0.13432  0.14466  1.0000
  H   H8        1.0  0.56989  0.86566  0.85531  1.0000
  H   H9        1.0  0.94875  0.33328  0.61029  1.0000
  H   H10       1.0  0.89257  0.66671  0.38971  1.0000
  H   H11       1.0  0.03196  0.16680  0.11039  1.0000
  H   H12       1.0  0.30929  0.83323  0.88977  1.0000
  C   C1        1.0  0.26703  0.03284  0.67008  1.0000
  C   C2        1.0  0.96989  0.96730  0.32996  1.0000
  C   C3        1.0  0.05026  0.46716  0.17017  1.0000
  C   C4        1.0  0.68739  0.53277  0.82987  1.0000
  C   C5        1.0  0.33230  0.11849  0.47065  1.0000
  C   C6        1.0  0.92138  0.88142  0.52933  1.0000
  C   C7        1.0  0.20065  0.38158  0.97073  1.0000
  C   C8        1.0  0.55318  0.61853  0.02924  1.0000
  S   S1        1.0  0.76843  0.99989  0.99988  1.0000
  S   S2        1.0  0.51838  0.50003  0.49999  1.0000
  N   N1        1.0  0.44044  0.96955  0.47599  1.0000
  N   N2        1.0  0.88586  0.03038  0.52411  1.0000
  N   N3        1.0  0.16006  0.53049  0.97605  1.0000
  N   N4        1.0  0.66659  0.46956  0.02401  1.0000
  N   N5        1.0  0.38664  0.91552  0.59822  1.0000
  N   N6        1.0  0.90032  0.08452  0.40190  1.0000
  N   N7        1.0  0.05252  0.58447  0.09829  1.0000
  N   N8        1.0  0.73503  0.41550  0.90179  1.0000
  N   N9        1.0  0.23640  0.15716  0.59668  1.0000
  N   N10       1.0  0.99031  0.84289  0.40328  1.0000
  N   N11       1.0  0.14367  0.34286  0.09677  1.0000
  N   N12       1.0  0.58345  0.65713  0.90321  1.0000
  N   N13       1.0  0.08411  0.29012  0.65271  1.0000
  N   N14       1.0  0.02710  0.70993  0.34725  1.0000
  N   N15       1.0  0.12418  0.20993  0.15282  1.0000
  N   N16       1.0  0.48703  0.79010  0.84723  1.0000
  O   O1        1.0  0.18762  0.03830  0.78758  1.0000
  O   O2        1.0  0.01316  0.96189  0.21246  1.0000
  O   O3        1.0  0.97640  0.46168  0.28768  1.0000
  O   O4        1.0  0.72528  0.53821  0.71238  1.0000
  O   O5        1.0  0.31810  0.19829  0.37888  1.0000
  O   O6        1.0  0.89523  0.80147  0.62098  1.0000
  O   O7        1.0  0.26606  0.30179  0.87900  1.0000
  O   O8        1.0  0.44709  0.69844  0.12092  1.0000
  O   O9        1.0  0.84211  0.13630  0.00373  1.0000
  O   O10       1.0  0.98228  0.86347  0.99629  1.0000
  O   O11       1.0  0.72848  0.36361  0.50383  1.0000
  O   O12       1.0  0.59591  0.63641  0.49630  1.0000
  O   O13       1.0  0.58540  0.99852  0.11500  1.0000
  O   O14       1.0  0.70004  0.00121  0.88449  1.0000
  O   O15       1.0  0.33407  0.50142  0.61515  1.0000
  O   O16       1.0  0.45114  0.49870  0.38465  1.0000
