data_image0
_chemical_formula_structural       Cd2H36C48N12Cl4O6
_chemical_formula_sum              "Cd2 H36 C48 N12 Cl4 O6"
_cell_length_a       8.55551
_cell_length_b       10.0517
_cell_length_c       13.3655
_cell_angle_alpha    81.6271
_cell_angle_beta     88.7711
_cell_angle_gamma    87.6359

_space_group_name_H-M_alt    "P 1"
_space_group_IT_number       1

loop_
  _space_group_symop_operation_xyz
  'x, y, z'

loop_
  _atom_site_type_symbol
  _atom_site_label
  _atom_site_symmetry_multiplicity
  _atom_site_fract_x
  _atom_site_fract_y
  _atom_site_fract_z
  _atom_site_occupancy
  Cd  Cd1       1.0  0.50000  0.50000  0.50000  1.0000
  Cd  Cd2       1.0  0.50000  0.00000  0.50000  1.0000
  H   H1        1.0  0.64901  0.72522  0.17231  1.0000
  H   H2        1.0  0.35098  0.27478  0.82768  1.0000
  H   H3        1.0  0.55469  0.36521  0.17466  1.0000
  H   H4        1.0  0.44531  0.63479  0.82534  1.0000
  H   H5        1.0  0.81592  0.42310  0.72079  1.0000
  H   H6        1.0  0.18408  0.57690  0.27921  1.0000
  H   H7        1.0  0.81025  0.12419  0.41146  1.0000
  H   H8        1.0  0.18974  0.87581  0.58854  1.0000
  H   H9        1.0  0.97814  0.14750  0.25483  1.0000
  H   H10       1.0  0.02186  0.85250  0.74517  1.0000
  H   H11       1.0  0.94783  0.98652  0.13030  1.0000
  H   H12       1.0  0.05217  0.01348  0.86970  1.0000
  H   H13       1.0  0.59091  0.79711  0.33008  1.0000
  H   H14       1.0  0.40908  0.20289  0.66992  1.0000
  H   H15       1.0  0.97066  0.71859  0.90831  1.0000
  H   H16       1.0  0.02934  0.28141  0.09169  1.0000
  H   H17       1.0  0.75790  0.34768  0.86953  1.0000
  H   H18       1.0  0.24210  0.65232  0.13047  1.0000
  H   H19       1.0  0.64930  0.53391  0.13291  1.0000
  H   H20       1.0  0.35069  0.46609  0.86709  1.0000
  H   H21       1.0  0.39408  0.09236  0.04585  1.0000
  H   H22       1.0  0.60592  0.90764  0.95415  1.0000
  H   H23       1.0  0.24813  0.90961  0.14967  1.0000
  H   H24       1.0  0.75188  0.09039  0.85033  1.0000
  H   H25       1.0  0.23811  0.89984  0.33894  1.0000
  H   H26       1.0  0.76190  0.10016  0.66106  1.0000
  H   H27       1.0  0.49098  0.24514  0.32274  1.0000
  H   H28       1.0  0.50902  0.75486  0.67726  1.0000
  H   H29       1.0  0.84310  0.28469  0.59631  1.0000
  H   H30       1.0  0.15690  0.71532  0.40369  1.0000
  H   H31       1.0  0.00515  0.20784  0.45623  1.0000
  H   H32       1.0  0.99485  0.79216  0.54377  1.0000
  H   H33       1.0  0.27025  0.30250  0.41825  1.0000
  H   H34       1.0  0.72975  0.69750  0.58175  1.0000
  H   H35       1.0  0.22290  0.53421  0.65046  1.0000
  H   H36       1.0  0.77710  0.46579  0.34954  1.0000
  C   C1        1.0  0.80477  0.05407  0.35695  1.0000
  C   C2        1.0  0.19522  0.94593  0.64306  1.0000
  C   C3        1.0  0.89706  0.06605  0.26971  1.0000
  C   C4        1.0  0.10294  0.93395  0.73029  1.0000
  C   C5        1.0  0.87980  0.97772  0.20019  1.0000
  C   C6        1.0  0.12020  0.02228  0.79981  1.0000
  C   C7        1.0  0.77122  0.87574  0.22210  1.0000
  C   C8        1.0  0.22878  0.12426  0.77790  1.0000
  C   C9        1.0  0.67984  0.87219  0.31114  1.0000
  C   C10       1.0  0.32016  0.12781  0.68886  1.0000
  C   C11       1.0  0.84912  0.75046  0.08260  1.0000
  C   C12       1.0  0.15088  0.24954  0.91740  1.0000
  C   C13       1.0  0.80898  0.63969  0.02495  1.0000
  C   C14       1.0  0.19102  0.36031  0.97505  1.0000
  C   C15       1.0  0.88915  0.63964  0.93272  1.0000
  C   C16       1.0  0.11085  0.36036  0.06728  1.0000
  C   C17       1.0  0.87022  0.53760  0.87414  1.0000
  C   C18       1.0  0.12978  0.46240  0.12586  1.0000
  C   C19       1.0  0.77204  0.43277  0.90983  1.0000
  C   C20       1.0  0.22796  0.56723  0.09017  1.0000
  C   C21       1.0  0.69239  0.43025  0.00253  1.0000
  C   C22       1.0  0.30761  0.56975  0.99747  1.0000
  C   C23       1.0  0.70988  0.53472  0.06002  1.0000
  C   C24       1.0  0.29012  0.46528  0.93998  1.0000
  C   C25       1.0  0.59550  0.30966  0.03312  1.0000
  C   C26       1.0  0.40450  0.69034  0.96688  1.0000
  C   C27       1.0  0.44932  0.18611  0.17634  1.0000
  C   C28       1.0  0.55068  0.81389  0.82366  1.0000
  C   C29       1.0  0.38206  0.08851  0.12721  1.0000
  C   C30       1.0  0.61794  0.91149  0.87279  1.0000
  C   C31       1.0  0.30204  0.98623  0.18591  1.0000
  C   C32       1.0  0.69796  0.01377  0.81409  1.0000
  C   C33       1.0  0.29508  0.98075  0.29057  1.0000
  C   C34       1.0  0.70492  0.01925  0.70943  1.0000
  C   C35       1.0  0.43572  0.17324  0.28204  1.0000
  C   C36       1.0  0.56428  0.82676  0.71796  1.0000
  C   C37       1.0  0.97087  0.53883  0.78128  1.0000
  C   C38       1.0  0.02913  0.46117  0.21872  1.0000
  C   C39       1.0  0.02091  0.41374  0.63663  1.0000
  C   C40       1.0  0.97910  0.58626  0.36337  1.0000
  C   C41       1.0  0.96080  0.32065  0.58024  1.0000
  C   C42       1.0  0.03920  0.67935  0.41976  1.0000
  C   C43       1.0  0.04957  0.27907  0.50152  1.0000
  C   C44       1.0  0.95044  0.72093  0.49848  1.0000
  C   C45       1.0  0.19649  0.33102  0.47959  1.0000
  C   C46       1.0  0.80352  0.66898  0.52041  1.0000
  C   C47       1.0  0.17052  0.46155  0.61012  1.0000
  C   C48       1.0  0.82949  0.53845  0.38988  1.0000
  N   N1        1.0  0.69618  0.96018  0.37616  1.0000
  N   N2        1.0  0.30382  0.03982  0.62384  1.0000
  N   N3        1.0  0.74789  0.77905  0.15875  1.0000
  N   N4        1.0  0.25210  0.22095  0.84125  1.0000
  N   N5        1.0  0.53270  0.29500  0.12913  1.0000
  N   N6        1.0  0.46730  0.70500  0.87087  1.0000
  N   N7        1.0  0.36318  0.07207  0.33813  1.0000
  N   N8        1.0  0.63682  0.92793  0.66187  1.0000
  N   N9        1.0  0.93017  0.45241  0.71620  1.0000
  N   N10       1.0  0.06983  0.54759  0.28380  1.0000
  N   N11       1.0  0.25370  0.42010  0.53345  1.0000
  N   N12       1.0  0.74630  0.57990  0.46655  1.0000
  Cl  Cl1       1.0  0.39911  0.75722  0.50022  1.0000
  Cl  Cl2       1.0  0.60089  0.24278  0.49978  1.0000
  Cl  Cl3       1.0  0.45621  0.53803  0.29656  1.0000
  Cl  Cl4       1.0  0.54379  0.46198  0.70344  1.0000
  O   O1        1.0  0.97110  0.81150  0.06095  1.0000
  O   O2        1.0  0.02890  0.18850  0.93905  1.0000
  O   O3        1.0  0.57551  0.22789  0.97384  1.0000
  O   O4        1.0  0.42449  0.77211  0.02616  1.0000
  O   O5        1.0  0.08712  0.60958  0.76769  1.0000
  O   O6        1.0  0.91289  0.39042  0.23231  1.0000
