data_image0
_chemical_formula_structural       Cd4H44C28S8N12O8
_chemical_formula_sum              "Cd4 H44 C28 S8 N12 O8"
_cell_length_a       10.5435
_cell_length_b       10.3787
_cell_length_c       13.3491
_cell_angle_alpha    90.0002
_cell_angle_beta     89.9999
_cell_angle_gamma    119.906

_space_group_name_H-M_alt    "P 1"
_space_group_IT_number       1

loop_
  _space_group_symop_operation_xyz
  'x, y, z'

loop_
  _atom_site_type_symbol
  _atom_site_label
  _atom_site_symmetry_multiplicity
  _atom_site_fract_x
  _atom_site_fract_y
  _atom_site_fract_z
  _atom_site_occupancy
  Cd  Cd1       1.0  0.29178  0.08995  0.93974  1.0000
  Cd  Cd2       1.0  0.70823  0.41005  0.43975  1.0000
  Cd  Cd3       1.0  0.70823  0.91006  0.06026  1.0000
  Cd  Cd4       1.0  0.29180  0.58995  0.56027  1.0000
  H   H1        1.0  0.50015  0.50429  0.71297  1.0000
  H   H2        1.0  0.49985  0.99572  0.21298  1.0000
  H   H3        1.0  0.49985  0.49571  0.28702  1.0000
  H   H4        1.0  0.50014  0.00428  0.78702  1.0000
  H   H5        1.0  0.50949  0.68859  0.79985  1.0000
  H   H6        1.0  0.49051  0.81141  0.29985  1.0000
  H   H7        1.0  0.49051  0.31141  0.20015  1.0000
  H   H8        1.0  0.50949  0.18859  0.70015  1.0000
  H   H9        1.0  0.65048  0.71004  0.87211  1.0000
  H   H10       1.0  0.34953  0.78996  0.37211  1.0000
  H   H11       1.0  0.34951  0.28995  0.12789  1.0000
  H   H12       1.0  0.65048  0.21004  0.62790  1.0000
  H   H13       1.0  0.48084  0.58222  0.90543  1.0000
  H   H14       1.0  0.51916  0.91778  0.40543  1.0000
  H   H15       1.0  0.51915  0.41778  0.09457  1.0000
  H   H16       1.0  0.48084  0.08222  0.59457  1.0000
  H   H17       1.0  0.69771  0.44908  0.72303  1.0000
  H   H18       1.0  0.30229  0.05091  0.22302  1.0000
  H   H19       1.0  0.30228  0.55091  0.27697  1.0000
  H   H20       1.0  0.69771  0.94908  0.77697  1.0000
  H   H21       1.0  0.73943  0.66756  0.62865  1.0000
  H   H22       1.0  0.26056  0.83243  0.12865  1.0000
  H   H23       1.0  0.26056  0.33243  0.37135  1.0000
  H   H24       1.0  0.73943  0.16756  0.87136  1.0000
  H   H25       1.0  0.90578  0.70671  0.68816  1.0000
  H   H26       1.0  0.09422  0.79329  0.18816  1.0000
  H   H27       1.0  0.09421  0.29328  0.31184  1.0000
  H   H28       1.0  0.90577  0.20671  0.81184  1.0000
  H   H29       1.0  0.80139  0.78227  0.73653  1.0000
  H   H30       1.0  0.19861  0.71772  0.23652  1.0000
  H   H31       1.0  0.19861  0.21772  0.26347  1.0000
  H   H32       1.0  0.80139  0.28228  0.76348  1.0000
  H   H33       1.0  0.89954  0.57004  0.84826  1.0000
  H   H34       1.0  0.10045  0.92995  0.34826  1.0000
  H   H35       1.0  0.10044  0.42994  0.15174  1.0000
  H   H36       1.0  0.89955  0.07005  0.65174  1.0000
  H   H37       1.0  0.73083  0.44523  0.90635  1.0000
  H   H38       1.0  0.26917  0.05476  0.40635  1.0000
  H   H39       1.0  0.26916  0.55475  0.09365  1.0000
  H   H40       1.0  0.73084  0.94524  0.59365  1.0000
  H   H41       1.0  0.80205  0.64037  0.91469  1.0000
  H   H42       1.0  0.19795  0.85963  0.41469  1.0000
  H   H43       1.0  0.19795  0.35962  0.08531  1.0000
  H   H44       1.0  0.80205  0.14037  0.58531  1.0000
  C   C1        1.0  0.94212  0.96909  0.87801  1.0000
  C   C2        1.0  0.05791  0.53092  0.37802  1.0000
  C   C3        1.0  0.05789  0.03091  0.12199  1.0000
  C   C4        1.0  0.94214  0.46911  0.62199  1.0000
  C   C5        1.0  0.38474  0.83153  0.94583  1.0000
  C   C6        1.0  0.61526  0.66846  0.44583  1.0000
  C   C7        1.0  0.61525  0.16848  0.05417  1.0000
  C   C8        1.0  0.38475  0.33154  0.55417  1.0000
  C   C9        1.0  0.45946  0.36381  0.83968  1.0000
  C   C10       1.0  0.54054  0.13619  0.33968  1.0000
  C   C11       1.0  0.54053  0.63619  0.16031  1.0000
  C   C12       1.0  0.45945  0.86382  0.66031  1.0000
  C   C13       1.0  0.55310  0.51134  0.78528  1.0000
  C   C14       1.0  0.44690  0.98866  0.28528  1.0000
  C   C15       1.0  0.44689  0.48866  0.21471  1.0000
  C   C16       1.0  0.55310  0.01134  0.71472  1.0000
  C   C17       1.0  0.71036  0.54434  0.76692  1.0000
  C   C18       1.0  0.28963  0.95565  0.26692  1.0000
  C   C19       1.0  0.28963  0.45565  0.23308  1.0000
  C   C20       1.0  0.71036  0.04435  0.73308  1.0000
  C   C21       1.0  0.79344  0.68283  0.70152  1.0000
  C   C22       1.0  0.20655  0.81716  0.20152  1.0000
  C   C23       1.0  0.20655  0.31716  0.29848  1.0000
  C   C24       1.0  0.79343  0.18283  0.79848  1.0000
  C   C25       1.0  0.78932  0.55043  0.86479  1.0000
  C   C26       1.0  0.21067  0.94957  0.36479  1.0000
  C   C27       1.0  0.21067  0.44956  0.13521  1.0000
  C   C28       1.0  0.78933  0.05043  0.63521  1.0000
  S   S1        1.0  0.08573  0.05864  0.80811  1.0000
  S   S2        1.0  0.91430  0.44138  0.30811  1.0000
  S   S3        1.0  0.91428  0.94135  0.19190  1.0000
  S   S4        1.0  0.08575  0.55865  0.69190  1.0000
  S   S5        1.0  0.23272  0.81684  0.90349  1.0000
  S   S6        1.0  0.76728  0.68313  0.40348  1.0000
  S   S7        1.0  0.76727  0.18316  0.09653  1.0000
  S   S8        1.0  0.23273  0.31685  0.59652  1.0000
  N   N1        1.0  0.83166  0.90063  0.92413  1.0000
  N   N2        1.0  0.16836  0.59939  0.42415  1.0000
  N   N3        1.0  0.16832  0.09937  0.07586  1.0000
  N   N4        1.0  0.83169  0.40065  0.57587  1.0000
  N   N5        1.0  0.49515  0.83997  0.97355  1.0000
  N   N6        1.0  0.50486  0.66004  0.47356  1.0000
  N   N7        1.0  0.50484  0.16004  0.02645  1.0000
  N   N8        1.0  0.49515  0.33996  0.52645  1.0000
  N   N9        1.0  0.54872  0.63224  0.84436  1.0000
  N   N10       1.0  0.45129  0.86776  0.34436  1.0000
  N   N11       1.0  0.45128  0.36776  0.15564  1.0000
  N   N12       1.0  0.54871  0.13224  0.65564  1.0000
  O   O1        1.0  0.44773  0.24604  0.80041  1.0000
  O   O2        1.0  0.55228  0.25395  0.30041  1.0000
  O   O3        1.0  0.55228  0.75396  0.19959  1.0000
  O   O4        1.0  0.44771  0.74603  0.69958  1.0000
  O   O5        1.0  0.39788  0.36463  0.92081  1.0000
  O   O6        1.0  0.60213  0.13537  0.42081  1.0000
  O   O7        1.0  0.60212  0.63537  0.07918  1.0000
  O   O8        1.0  0.39789  0.86465  0.57918  1.0000
