data_image0
_chemical_formula_structural       Cd4H40C48S8N16O4
_chemical_formula_sum              "Cd4 H40 C48 S8 N16 O4"
_cell_length_a       7.54156
_cell_length_b       11.4278
_cell_length_c       16.5209
_cell_angle_alpha    98.0917
_cell_angle_beta     89.9992
_cell_angle_gamma    90.0002

_space_group_name_H-M_alt    "P 1"
_space_group_IT_number       1

loop_
  _space_group_symop_operation_xyz
  'x, y, z'

loop_
  _atom_site_type_symbol
  _atom_site_label
  _atom_site_symmetry_multiplicity
  _atom_site_fract_x
  _atom_site_fract_y
  _atom_site_fract_z
  _atom_site_occupancy
  Cd  Cd1       1.0  0.17990  0.49013  0.23624  1.0000
  Cd  Cd2       1.0  0.67992  0.00987  0.76376  1.0000
  Cd  Cd3       1.0  0.82010  0.50987  0.76376  1.0000
  Cd  Cd4       1.0  0.32009  0.99014  0.23624  1.0000
  H   H1        1.0  0.67591  0.12999  0.19925  1.0000
  H   H2        1.0  0.17591  0.37000  0.80076  1.0000
  H   H3        1.0  0.32410  0.87000  0.80075  1.0000
  H   H4        1.0  0.82409  0.63000  0.19925  1.0000
  H   H5        1.0  0.71478  0.40953  0.05458  1.0000
  H   H6        1.0  0.21478  0.09047  0.94543  1.0000
  H   H7        1.0  0.28522  0.59047  0.94542  1.0000
  H   H8        1.0  0.78523  0.90952  0.05457  1.0000
  H   H9        1.0  0.68284  0.11189  0.00024  1.0000
  H   H10       1.0  0.18283  0.38810  0.99977  1.0000
  H   H11       1.0  0.31717  0.88811  0.99976  1.0000
  H   H12       1.0  0.81715  0.61189  0.00024  1.0000
  H   H13       1.0  0.49579  0.20514  0.00208  1.0000
  H   H14       1.0  0.99578  0.29485  0.99792  1.0000
  H   H15       1.0  0.50422  0.79486  0.99791  1.0000
  H   H16       1.0  0.00421  0.70513  0.00208  1.0000
  H   H17       1.0  0.50226  0.09239  0.06641  1.0000
  H   H18       1.0  0.00226  0.40760  0.93359  1.0000
  H   H19       1.0  0.49774  0.90761  0.93358  1.0000
  H   H20       1.0  0.99773  0.59239  0.06641  1.0000
  H   H21       1.0  0.74657  0.48058  0.34993  1.0000
  H   H22       1.0  0.24658  0.01942  0.65007  1.0000
  H   H23       1.0  0.25343  0.51942  0.65007  1.0000
  H   H24       1.0  0.75342  0.98058  0.34992  1.0000
  H   H25       1.0  0.83246  0.47618  0.49409  1.0000
  H   H26       1.0  0.33246  0.02382  0.50591  1.0000
  H   H27       1.0  0.16755  0.52383  0.50591  1.0000
  H   H28       1.0  0.66754  0.97617  0.49409  1.0000
  H   H29       1.0  0.96226  0.29327  0.53602  1.0000
  H   H30       1.0  0.46225  0.20674  0.46398  1.0000
  H   H31       1.0  0.03774  0.70674  0.46398  1.0000
  H   H32       1.0  0.53774  0.79326  0.53602  1.0000
  H   H33       1.0  0.00063  0.11446  0.43297  1.0000
  H   H34       1.0  0.50063  0.38554  0.56703  1.0000
  H   H35       1.0  0.99937  0.88554  0.56704  1.0000
  H   H36       1.0  0.49937  0.61446  0.43297  1.0000
  H   H37       1.0  0.92062  0.11969  0.28740  1.0000
  H   H38       1.0  0.42063  0.38032  0.71260  1.0000
  H   H39       1.0  0.07938  0.88031  0.71260  1.0000
  H   H40       1.0  0.57937  0.61968  0.28740  1.0000
  C   C1        1.0  0.15955  0.20588  0.14348  1.0000
  C   C2        1.0  0.65955  0.29413  0.85651  1.0000
  C   C3        1.0  0.84044  0.79413  0.85651  1.0000
  C   C4        1.0  0.34045  0.70590  0.14349  1.0000
  C   C5        1.0  0.14959  0.77579  0.32612  1.0000
  C   C6        1.0  0.64960  0.72422  0.67388  1.0000
  C   C7        1.0  0.85041  0.22421  0.67388  1.0000
  C   C8        1.0  0.35040  0.27578  0.32613  1.0000
  C   C9        1.0  0.79807  0.39765  0.18245  1.0000
  C   C10       1.0  0.29808  0.10235  0.81756  1.0000
  C   C11       1.0  0.20193  0.60234  0.81756  1.0000
  C   C12       1.0  0.70192  0.89765  0.18244  1.0000
  C   C13       1.0  0.66487  0.24326  0.10579  1.0000
  C   C14       1.0  0.16488  0.25673  0.89422  1.0000
  C   C15       1.0  0.33513  0.75673  0.89421  1.0000
  C   C16       1.0  0.83513  0.74326  0.10579  1.0000
  C   C17       1.0  0.72300  0.35888  0.10512  1.0000
  C   C18       1.0  0.22300  0.14112  0.89488  1.0000
  C   C19       1.0  0.27701  0.64112  0.89488  1.0000
  C   C20       1.0  0.77700  0.85888  0.10512  1.0000
  C   C21       1.0  0.58151  0.15850  0.04049  1.0000
  C   C22       1.0  0.08151  0.34149  0.95952  1.0000
  C   C23       1.0  0.41850  0.84150  0.95951  1.0000
  C   C24       1.0  0.91848  0.65850  0.04048  1.0000
  C   C25       1.0  0.82757  0.30043  0.31028  1.0000
  C   C26       1.0  0.32759  0.19957  0.68973  1.0000
  C   C27       1.0  0.17242  0.69957  0.68972  1.0000
  C   C28       1.0  0.67241  0.80043  0.31027  1.0000
  C   C29       1.0  0.80309  0.40099  0.36825  1.0000
  C   C30       1.0  0.30311  0.09900  0.63175  1.0000
  C   C31       1.0  0.19691  0.59900  0.63175  1.0000
  C   C32       1.0  0.69690  0.90099  0.36825  1.0000
  C   C33       1.0  0.85153  0.39771  0.44921  1.0000
  C   C34       1.0  0.35153  0.10229  0.55079  1.0000
  C   C35       1.0  0.14847  0.60229  0.55079  1.0000
  C   C36       1.0  0.64847  0.89770  0.44921  1.0000
  C   C37       1.0  0.92306  0.29498  0.47277  1.0000
  C   C38       1.0  0.42305  0.20502  0.52723  1.0000
  C   C39       1.0  0.07694  0.70502  0.52723  1.0000
  C   C40       1.0  0.57695  0.79498  0.47277  1.0000
  C   C41       1.0  0.94501  0.19480  0.41475  1.0000
  C   C42       1.0  0.44501  0.30521  0.58526  1.0000
  C   C43       1.0  0.05499  0.80521  0.58526  1.0000
  C   C44       1.0  0.55499  0.69480  0.41474  1.0000
  C   C45       1.0  0.89892  0.19690  0.33318  1.0000
  C   C46       1.0  0.39893  0.30310  0.66682  1.0000
  C   C47       1.0  0.10107  0.80310  0.66682  1.0000
  C   C48       1.0  0.60106  0.69690  0.33317  1.0000
  S   S1        1.0  0.11949  0.06426  0.12196  1.0000
  S   S2        1.0  0.61948  0.43575  0.87804  1.0000
  S   S3        1.0  0.88051  0.93575  0.87804  1.0000
  S   S4        1.0  0.38051  0.56427  0.12196  1.0000
  S   S5        1.0  0.17184  0.91600  0.36129  1.0000
  S   S6        1.0  0.67185  0.58400  0.63871  1.0000
  S   S7        1.0  0.82816  0.08400  0.63870  1.0000
  S   S8        1.0  0.32814  0.41599  0.36129  1.0000
  N   N1        1.0  0.18741  0.30843  0.15712  1.0000
  N   N2        1.0  0.68741  0.19158  0.84288  1.0000
  N   N3        1.0  0.81259  0.69158  0.84288  1.0000
  N   N4        1.0  0.31257  0.80844  0.15712  1.0000
  N   N5        1.0  0.12861  0.67395  0.30423  1.0000
  N   N6        1.0  0.62863  0.82605  0.69576  1.0000
  N   N7        1.0  0.87139  0.32606  0.69576  1.0000
  N   N8        1.0  0.37139  0.17394  0.30424  1.0000
  N   N9        1.0  0.77779  0.30523  0.22807  1.0000
  N   N10       1.0  0.27780  0.19477  0.77193  1.0000
  N   N11       1.0  0.22221  0.69476  0.77193  1.0000
  N   N12       1.0  0.72220  0.80523  0.22807  1.0000
  N   N13       1.0  0.69983  0.21233  0.17984  1.0000
  N   N14       1.0  0.19984  0.28767  0.82016  1.0000
  N   N15       1.0  0.30017  0.78766  0.82016  1.0000
  N   N16       1.0  0.80016  0.71233  0.17984  1.0000
  O   O1        1.0  0.87941  0.49424  0.21135  1.0000
  O   O2        1.0  0.37942  0.00576  0.78865  1.0000
  O   O3        1.0  0.12059  0.50576  0.78865  1.0000
  O   O4        1.0  0.62059  0.99424  0.21135  1.0000
