data_image0
_chemical_formula_structural       La2NiH22C26N6O20
_chemical_formula_sum              "La2 Ni1 H22 C26 N6 O20"
_cell_length_a       6.92662
_cell_length_b       9.17769
_cell_length_c       13.9282
_cell_angle_alpha    86.7664
_cell_angle_beta     84.8406
_cell_angle_gamma    75.7123

_space_group_name_H-M_alt    "P 1"
_space_group_IT_number       1

loop_
  _space_group_symop_operation_xyz
  'x, y, z'

loop_
  _atom_site_type_symbol
  _atom_site_label
  _atom_site_symmetry_multiplicity
  _atom_site_fract_x
  _atom_site_fract_y
  _atom_site_fract_z
  _atom_site_occupancy
  La  La1       1.0  0.49393  0.71651  0.40640  1.0000
  La  La2       1.0  0.50605  0.28350  0.59360  1.0000
  Ni  Ni1       1.0  0.50001  0.49999  0.99999  1.0000
  H   H1        1.0  0.16580  0.43460  0.99015  1.0000
  H   H2        1.0  0.83420  0.56539  0.00985  1.0000
  H   H3        1.0  0.28815  0.25439  0.97893  1.0000
  H   H4        1.0  0.71186  0.74560  0.02106  1.0000
  H   H5        1.0  0.76888  0.15347  0.05889  1.0000
  H   H6        1.0  0.23113  0.84653  0.94112  1.0000
  H   H7        1.0  0.73425  0.09077  0.24184  1.0000
  H   H8        1.0  0.26575  0.90924  0.75817  1.0000
  H   H9        1.0  0.98011  0.53735  0.13774  1.0000
  H   H10       1.0  0.01988  0.46265  0.86226  1.0000
  H   H11       1.0  0.07952  0.25897  0.39477  1.0000
  H   H12       1.0  0.92048  0.74103  0.60522  1.0000
  H   H13       1.0  0.34079  0.07953  0.12140  1.0000
  H   H14       1.0  0.65922  0.92046  0.87860  1.0000
  H   H15       1.0  0.74622  0.91666  0.50853  1.0000
  H   H16       1.0  0.25377  0.08334  0.49147  1.0000
  H   H17       1.0  0.70795  0.97337  0.40502  1.0000
  H   H18       1.0  0.29204  0.02663  0.59498  1.0000
  H   H19       1.0  0.12117  0.61473  0.49782  1.0000
  H   H20       1.0  0.87883  0.38527  0.50217  1.0000
  H   H21       1.0  0.01523  0.76405  0.43849  1.0000
  H   H22       1.0  0.98477  0.23595  0.56151  1.0000
  C   C1        1.0  0.69565  0.22968  0.11499  1.0000
  C   C2        1.0  0.30435  0.77031  0.88501  1.0000
  C   C3        1.0  0.58649  0.31987  0.26072  1.0000
  C   C4        1.0  0.41352  0.68012  0.73929  1.0000
  C   C5        1.0  0.52905  0.43205  0.19053  1.0000
  C   C6        1.0  0.47096  0.56794  0.80947  1.0000
  C   C7        1.0  0.41069  0.58972  0.18459  1.0000
  C   C8        1.0  0.58932  0.41028  0.81541  1.0000
  C   C9        1.0  0.55127  0.31073  0.36715  1.0000
  C   C10       1.0  0.44873  0.68928  0.63285  1.0000
  C   C11       1.0  0.87594  0.53520  0.32482  1.0000
  C   C12       1.0  0.12406  0.46480  0.67518  1.0000
  C   C13       1.0  0.15793  0.30929  0.11483  1.0000
  C   C14       1.0  0.84206  0.69071  0.88517  1.0000
  C   C15       1.0  0.04627  0.42828  0.17101  1.0000
  C   C16       1.0  0.95372  0.57171  0.82899  1.0000
  C   C17       1.0  0.01612  0.41013  0.27096  1.0000
  C   C18       1.0  0.98388  0.58987  0.72904  1.0000
  C   C19       1.0  0.10421  0.27428  0.31722  1.0000
  C   C20       1.0  0.89578  0.72572  0.68278  1.0000
  C   C21       1.0  0.24773  0.17341  0.16192  1.0000
  C   C22       1.0  0.75227  0.82658  0.83808  1.0000
  C   C23       1.0  0.22365  0.15748  0.26241  1.0000
  C   C24       1.0  0.77635  0.84252  0.73759  1.0000
  C   C25       1.0  0.33430  0.01731  0.31213  1.0000
  C   C26       1.0  0.66570  0.98269  0.68787  1.0000
  N   N1        1.0  0.17298  0.32695  0.01479  1.0000
  N   N2        1.0  0.82703  0.67305  0.98521  1.0000
  N   N3        1.0  0.59797  0.37277  0.10139  1.0000
  N   N4        1.0  0.40204  0.62722  0.89861  1.0000
  N   N5        1.0  0.69071  0.19567  0.21060  1.0000
  N   N6        1.0  0.30930  0.80433  0.78940  1.0000
  O   O1        1.0  0.38559  0.63855  0.09493  1.0000
  O   O2        1.0  0.61441  0.36145  0.90506  1.0000
  O   O3        1.0  0.34105  0.66874  0.25510  1.0000
  O   O4        1.0  0.65896  0.33127  0.74490  1.0000
  O   O5        1.0  0.59170  0.18134  0.40866  1.0000
  O   O6        1.0  0.40830  0.81867  0.59134  1.0000
  O   O7        1.0  0.48222  0.43122  0.41303  1.0000
  O   O8        1.0  0.51778  0.56880  0.58697  1.0000
  O   O9        1.0  0.85008  0.52898  0.41709  1.0000
  O   O10       1.0  0.14992  0.47103  0.58290  1.0000
  O   O11       1.0  0.77168  0.64307  0.27583  1.0000
  O   O12       1.0  0.22831  0.35692  0.72417  1.0000
  O   O13       1.0  0.26448  0.98088  0.39671  1.0000
  O   O14       1.0  0.73550  0.01912  0.60329  1.0000
  O   O15       1.0  0.49359  0.93720  0.27193  1.0000
  O   O16       1.0  0.50642  0.06281  0.72808  1.0000
  O   O17       1.0  0.74549  0.87768  0.44258  1.0000
  O   O18       1.0  0.25450  0.12232  0.55743  1.0000
  O   O19       1.0  0.14486  0.70305  0.45784  1.0000
  O   O20       1.0  0.85514  0.29695  0.54215  1.0000
