data_image0
_chemical_formula_structural       Ga2H18C28O10
_chemical_formula_sum              "Ga2 H18 C28 O10"
_cell_length_a       6.8025
_cell_length_b       9.40745
_cell_length_c       10.9463
_cell_angle_alpha    90.2997
_cell_angle_beta     90.0649
_cell_angle_gamma    111.133

_space_group_name_H-M_alt    "P 1"
_space_group_IT_number       1

loop_
  _space_group_symop_operation_xyz
  'x, y, z'

loop_
  _atom_site_type_symbol
  _atom_site_label
  _atom_site_symmetry_multiplicity
  _atom_site_fract_x
  _atom_site_fract_y
  _atom_site_fract_z
  _atom_site_occupancy
  Ga  Ga1       1.0  0.50000  0.50000  0.50000  1.0000
  Ga  Ga2       1.0  1.00000  0.50000  0.50000  1.0000
  H   H1        1.0  0.81225  0.62530  0.37092  1.0000
  H   H2        1.0  0.18775  0.37470  0.62908  1.0000
  H   H3        1.0  0.83868  0.67578  0.90545  1.0000
  H   H4        1.0  0.16133  0.32422  0.09454  1.0000
  H   H5        1.0  0.81692  0.63318  0.13033  1.0000
  H   H6        1.0  0.18309  0.36682  0.86967  1.0000
  H   H7        1.0  0.68512  0.37066  0.21142  1.0000
  H   H8        1.0  0.31490  0.62934  0.78858  1.0000
  H   H9        1.0  0.57398  0.14842  0.06953  1.0000
  H   H10       1.0  0.42602  0.85158  0.93047  1.0000
  H   H11       1.0  0.25457  0.14091  0.81003  1.0000
  H   H12       1.0  0.11323  0.85896  0.19071  1.0000
  H   H13       1.0  0.74542  0.85908  0.18997  1.0000
  H   H14       1.0  0.88676  0.14104  0.80929  1.0000
  H   H15       1.0  0.14471  0.92005  0.66403  1.0000
  H   H16       1.0  0.22507  0.07995  0.33657  1.0000
  H   H17       1.0  0.85529  0.07994  0.33597  1.0000
  H   H18       1.0  0.77494  0.92006  0.66343  1.0000
  C   C1        1.0  0.73097  0.46079  0.72664  1.0000
  C   C2        1.0  0.26903  0.53921  0.27336  1.0000
  C   C3        1.0  0.71848  0.43583  0.86196  1.0000
  C   C4        1.0  0.28152  0.56417  0.13803  1.0000
  C   C5        1.0  0.78088  0.56058  0.94209  1.0000
  C   C6        1.0  0.21913  0.43942  0.05791  1.0000
  C   C7        1.0  0.76850  0.53644  0.06755  1.0000
  C   C8        1.0  0.23152  0.46356  0.93244  1.0000
  C   C9        1.0  0.69424  0.38853  0.11328  1.0000
  C   C10       1.0  0.30577  0.61147  0.88672  1.0000
  C   C11       1.0  0.63200  0.26408  0.03353  1.0000
  C   C12       1.0  0.36800  0.73592  0.96647  1.0000
  C   C13       1.0  0.64338  0.28632  0.90683  1.0000
  C   C14       1.0  0.35661  0.71368  0.09317  1.0000
  C   C15       1.0  0.57770  0.15505  0.81997  1.0000
  C   C16       1.0  0.42229  0.84495  0.18003  1.0000
  C   C17       1.0  0.36893  0.09279  0.77760  1.0000
  C   C18       1.0  0.27595  0.90712  0.22282  1.0000
  C   C19       1.0  0.63106  0.90721  0.22240  1.0000
  C   C20       1.0  0.72404  0.09288  0.77719  1.0000
  C   C21       1.0  0.30707  0.97040  0.69610  1.0000
  C   C22       1.0  0.33696  0.02961  0.30425  1.0000
  C   C23       1.0  0.69293  0.02959  0.30390  1.0000
  C   C24       1.0  0.66304  0.97039  0.69575  1.0000
  C   C25       1.0  0.45360  0.90767  0.65525  1.0000
  C   C26       1.0  0.54640  0.09233  0.34475  1.0000
  C   C27       1.0  0.38335  0.76731  0.57725  1.0000
  C   C28       1.0  0.61665  0.23269  0.42275  1.0000
  O   O1        1.0  0.56816  0.46982  0.67513  1.0000
  O   O2        1.0  0.09724  0.53002  0.32474  1.0000
  O   O3        1.0  0.43183  0.53018  0.32487  1.0000
  O   O4        1.0  0.90276  0.46998  0.67526  1.0000
  O   O5        1.0  0.52323  0.71212  0.54888  1.0000
  O   O6        1.0  0.81166  0.28776  0.45119  1.0000
  O   O7        1.0  0.47678  0.28788  0.45112  1.0000
  O   O8        1.0  0.18834  0.71224  0.54881  1.0000
  O   O9        1.0  0.79385  0.58810  0.45435  1.0000
  O   O10       1.0  0.20615  0.41190  0.54565  1.0000
