data_image0
_chemical_formula_structural       Tb2H40C44N2O22
_chemical_formula_sum              "Tb2 H40 C44 N2 O22"
_cell_length_a       7.5916
_cell_length_b       11.3359
_cell_length_c       12.9168
_cell_angle_alpha    75.8374
_cell_angle_beta     83.5012
_cell_angle_gamma    81.8281

_space_group_name_H-M_alt    "P 1"
_space_group_IT_number       1

loop_
  _space_group_symop_operation_xyz
  'x, y, z'

loop_
  _atom_site_type_symbol
  _atom_site_label
  _atom_site_symmetry_multiplicity
  _atom_site_fract_x
  _atom_site_fract_y
  _atom_site_fract_z
  _atom_site_occupancy
  Tb  Tb1       1.0  0.10379  0.39127  0.35090  1.0000
  Tb  Tb2       1.0  0.89621  0.60873  0.64910  1.0000
  H   H1        1.0  0.31428  0.82091  0.53498  1.0000
  H   H2        1.0  0.68572  0.17909  0.46502  1.0000
  H   H3        1.0  0.55053  0.18007  0.11867  1.0000
  H   H4        1.0  0.44947  0.81994  0.88133  1.0000
  H   H5        1.0  0.65573  0.78482  0.19065  1.0000
  H   H6        1.0  0.34426  0.21518  0.80934  1.0000
  H   H7        1.0  0.35771  0.97019  0.42114  1.0000
  H   H8        1.0  0.64230  0.02981  0.57886  1.0000
  H   H9        1.0  0.81697  0.22891  0.82225  1.0000
  H   H10       1.0  0.18302  0.77109  0.17775  1.0000
  H   H11       1.0  0.13351  0.10862  0.56180  1.0000
  H   H12       1.0  0.86650  0.89138  0.43819  1.0000
  H   H13       1.0  0.94186  0.84181  0.83548  1.0000
  H   H14       1.0  0.05814  0.15820  0.16452  1.0000
  H   H15       1.0  0.15166  0.64791  0.06609  1.0000
  H   H16       1.0  0.84834  0.35209  0.93391  1.0000
  H   H17       1.0  0.94971  0.74966  0.06560  1.0000
  H   H18       1.0  0.05028  0.25034  0.93440  1.0000
  H   H19       1.0  0.00391  0.66823  0.96285  1.0000
  H   H20       1.0  0.99608  0.33177  0.03715  1.0000
  H   H21       1.0  0.52482  0.47224  0.18734  1.0000
  H   H22       1.0  0.47517  0.52776  0.81267  1.0000
  H   H23       1.0  0.73391  0.39180  0.22759  1.0000
  H   H24       1.0  0.26608  0.60820  0.77241  1.0000
  H   H25       1.0  0.65711  0.38452  0.10348  1.0000
  H   H26       1.0  0.34289  0.61547  0.89653  1.0000
  H   H27       1.0  0.50673  0.65203  0.06335  1.0000
  H   H28       1.0  0.49327  0.34797  0.93665  1.0000
  H   H29       1.0  0.65371  0.62323  0.95063  1.0000
  H   H30       1.0  0.34629  0.37676  0.04937  1.0000
  H   H31       1.0  0.69314  0.73459  0.01795  1.0000
  H   H32       1.0  0.30686  0.26541  0.98205  1.0000
  H   H33       1.0  0.45757  0.37646  0.43328  1.0000
  H   H34       1.0  0.54243  0.62354  0.56672  1.0000
  H   H35       1.0  0.72881  0.39690  0.44816  1.0000
  H   H36       1.0  0.27120  0.60310  0.55184  1.0000
  H   H37       1.0  0.42347  0.51977  0.37652  1.0000
  H   H38       1.0  0.57654  0.48023  0.62348  1.0000
  H   H39       1.0  0.71929  0.53432  0.37999  1.0000
  H   H40       1.0  0.28071  0.46568  0.62001  1.0000
  C   C1        1.0  0.44641  0.08456  0.27343  1.0000
  C   C2        1.0  0.55359  0.91544  0.72656  1.0000
  C   C3        1.0  0.54087  0.09120  0.17371  1.0000
  C   C4        1.0  0.45913  0.90880  0.82629  1.0000
  C   C5        1.0  0.62083  0.98352  0.14279  1.0000
  C   C6        1.0  0.37917  0.01648  0.85720  1.0000
  C   C7        1.0  0.60004  0.86958  0.21343  1.0000
  C   C8        1.0  0.39996  0.13042  0.78657  1.0000
  C   C9        1.0  0.50430  0.86256  0.31364  1.0000
  C   C10       1.0  0.49570  0.13744  0.68635  1.0000
  C   C11       1.0  0.43144  0.97058  0.34412  1.0000
  C   C12       1.0  0.56856  0.02942  0.65587  1.0000
  C   C13       1.0  0.34928  0.19762  0.30366  1.0000
  C   C14       1.0  0.65072  0.80238  0.69634  1.0000
  C   C15       1.0  0.47683  0.73790  0.38207  1.0000
  C   C16       1.0  0.52317  0.26211  0.61793  1.0000
  C   C17       1.0  0.71406  0.99267  0.04021  1.0000
  C   C18       1.0  0.28595  0.00733  0.95979  1.0000
  C   C19       1.0  0.78850  0.00734  0.94989  1.0000
  C   C20       1.0  0.21150  0.99266  0.05011  1.0000
  C   C21       1.0  0.87484  0.03175  0.84507  1.0000
  C   C22       1.0  0.12516  0.96825  0.15493  1.0000
  C   C23       1.0  0.88292  0.15411  0.78771  1.0000
  C   C24       1.0  0.11707  0.84589  0.21229  1.0000
  C   C25       1.0  0.97361  0.18177  0.68620  1.0000
  C   C26       1.0  0.02640  0.81824  0.31379  1.0000
  C   C27       1.0  0.05826  0.08709  0.63975  1.0000
  C   C28       1.0  0.94175  0.91291  0.36025  1.0000
  C   C29       1.0  0.04421  0.96540  0.69416  1.0000
  C   C30       1.0  0.95578  0.03461  0.30584  1.0000
  C   C31       1.0  0.95237  0.93722  0.79549  1.0000
  C   C32       1.0  0.04762  0.06278  0.20451  1.0000
  C   C33       1.0  0.98160  0.31319  0.62718  1.0000
  C   C34       1.0  0.01840  0.68681  0.37282  1.0000
  C   C35       1.0  0.12436  0.86409  0.64339  1.0000
  C   C36       1.0  0.87565  0.13591  0.35661  1.0000
  C   C37       1.0  0.92263  0.55481  0.11557  1.0000
  C   C38       1.0  0.07736  0.44519  0.88443  1.0000
  C   C39       1.0  0.01166  0.66211  0.04849  1.0000
  C   C40       1.0  0.98834  0.33789  0.95152  1.0000
  C   C41       1.0  0.66185  0.44350  0.15908  1.0000
  C   C42       1.0  0.33815  0.55649  0.84093  1.0000
  C   C43       1.0  0.64618  0.64499  0.02955  1.0000
  C   C44       1.0  0.35381  0.35501  0.97045  1.0000
  N   N1        1.0  0.74974  0.55098  0.10490  1.0000
  N   N2        1.0  0.25025  0.44901  0.89511  1.0000
  O   O1        1.0  0.29272  0.19386  0.40102  1.0000
  O   O2        1.0  0.70730  0.80614  0.59899  1.0000
  O   O3        1.0  0.31689  0.29471  0.23006  1.0000
  O   O4        1.0  0.68311  0.70529  0.76994  1.0000
  O   O5        1.0  0.53426  0.64585  0.34369  1.0000
  O   O6        1.0  0.46574  0.35416  0.65630  1.0000
  O   O7        1.0  0.39396  0.72730  0.47650  1.0000
  O   O8        1.0  0.60604  0.27270  0.52350  1.0000
  O   O9        1.0  0.91383  0.39555  0.67621  1.0000
  O   O10       1.0  0.08617  0.60446  0.32378  1.0000
  O   O11       1.0  0.05678  0.33331  0.53280  1.0000
  O   O12       1.0  0.94322  0.66669  0.46721  1.0000
  O   O13       1.0  0.26242  0.89004  0.57508  1.0000
  O   O14       1.0  0.73758  0.10997  0.42491  1.0000
  O   O15       1.0  0.06426  0.76350  0.66525  1.0000
  O   O16       1.0  0.93575  0.23650  0.33476  1.0000
  O   O17       1.0  0.01247  0.46887  0.17687  1.0000
  O   O18       1.0  0.98753  0.53112  0.82313  1.0000
  O   O19       1.0  0.79463  0.45465  0.39263  1.0000
  O   O20       1.0  0.20537  0.54535  0.60737  1.0000
  O   O21       1.0  0.37477  0.43953  0.39008  1.0000
  O   O22       1.0  0.62523  0.56048  0.60992  1.0000
