data_image0
_chemical_formula_structural       Cd2H12C16Br4N8Cl4
_chemical_formula_sum              "Cd2 H12 C16 Br4 N8 Cl4"
_cell_length_a       3.85927
_cell_length_b       10.4804
_cell_length_c       16.4305
_cell_angle_alpha    89.9999
_cell_angle_beta     90
_cell_angle_gamma    94.7918

_space_group_name_H-M_alt    "P 1"
_space_group_IT_number       1

loop_
  _space_group_symop_operation_xyz
  'x, y, z'

loop_
  _atom_site_type_symbol
  _atom_site_label
  _atom_site_symmetry_multiplicity
  _atom_site_fract_x
  _atom_site_fract_y
  _atom_site_fract_z
  _atom_site_occupancy
  Cd  Cd1       1.0  0.50000  0.50000  0.50000  1.0000
  Cd  Cd2       1.0  0.50000  1.00000  1.00000  1.0000
  H   H1        1.0  0.28663  0.19174  0.48473  1.0000
  H   H2        1.0  0.71337  0.30826  0.98472  1.0000
  H   H3        1.0  0.71337  0.80826  0.51527  1.0000
  H   H4        1.0  0.28663  0.69174  0.01527  1.0000
  H   H5        1.0  0.64558  0.44908  0.30431  1.0000
  H   H6        1.0  0.35442  0.05092  0.80431  1.0000
  H   H7        1.0  0.35442  0.55092  0.69569  1.0000
  H   H8        1.0  0.64558  0.94908  0.19569  1.0000
  H   H9        1.0  0.69210  0.26354  0.20638  1.0000
  H   H10       1.0  0.30791  0.23646  0.70638  1.0000
  H   H11       1.0  0.30790  0.73646  0.79362  1.0000
  H   H12       1.0  0.69210  0.76354  0.29362  1.0000
  C   C1        1.0  0.39187  0.10827  0.36595  1.0000
  C   C2        1.0  0.60813  0.39174  0.86595  1.0000
  C   C3        1.0  0.60813  0.89173  0.63405  1.0000
  C   C4        1.0  0.39187  0.60826  0.13405  1.0000
  C   C5        1.0  0.37485  0.20787  0.42224  1.0000
  C   C6        1.0  0.62516  0.29213  0.92225  1.0000
  C   C7        1.0  0.62514  0.79213  0.57776  1.0000
  C   C8        1.0  0.37485  0.70788  0.07776  1.0000
  C   C9        1.0  0.57732  0.35006  0.32251  1.0000
  C   C10       1.0  0.42268  0.14993  0.82252  1.0000
  C   C11       1.0  0.42268  0.64994  0.67748  1.0000
  C   C12       1.0  0.57732  0.85006  0.17749  1.0000
  C   C13       1.0  0.59875  0.24821  0.26857  1.0000
  C   C14       1.0  0.40126  0.25179  0.76857  1.0000
  C   C15       1.0  0.40126  0.75179  0.73143  1.0000
  C   C16       1.0  0.59874  0.74820  0.23143  1.0000
  Br  Br1       1.0  0.03101  0.63052  0.41288  1.0000
  Br  Br2       1.0  0.96900  0.86948  0.91288  1.0000
  Br  Br3       1.0  0.96900  0.36948  0.58712  1.0000
  Br  Br4       1.0  0.03101  0.13052  0.08712  1.0000
  N   N1        1.0  0.50808  0.12669  0.29054  1.0000
  N   N2        1.0  0.49193  0.37331  0.79054  1.0000
  N   N3        1.0  0.49192  0.87331  0.70946  1.0000
  N   N4        1.0  0.50808  0.62669  0.20946  1.0000
  N   N5        1.0  0.47007  0.32826  0.39947  1.0000
  N   N6        1.0  0.52993  0.17174  0.89946  1.0000
  N   N7        1.0  0.52993  0.67175  0.60053  1.0000
  N   N8        1.0  0.47006  0.82825  0.10053  1.0000
  Cl  Cl1       1.0  0.25730  0.95295  0.39457  1.0000
  Cl  Cl2       1.0  0.74271  0.54705  0.89457  1.0000
  Cl  Cl3       1.0  0.74271  0.04705  0.60543  1.0000
  Cl  Cl4       1.0  0.25729  0.45295  0.10543  1.0000
