data_image0
_chemical_formula_structural       Cd2H12C16I4N8Cl4
_chemical_formula_sum              "Cd2 H12 C16 I4 N8 Cl4"
_cell_length_a       4.12386
_cell_length_b       10.5301
_cell_length_c       17.0233
_cell_angle_alpha    90
_cell_angle_beta     91.9999
_cell_angle_gamma    90

_space_group_name_H-M_alt    "P 1"
_space_group_IT_number       1

loop_
  _space_group_symop_operation_xyz
  'x, y, z'

loop_
  _atom_site_type_symbol
  _atom_site_label
  _atom_site_symmetry_multiplicity
  _atom_site_fract_x
  _atom_site_fract_y
  _atom_site_fract_z
  _atom_site_occupancy
  Cd  Cd1       1.0  0.50000  1.00000  0.50000  1.0000
  Cd  Cd2       1.0  0.50000  0.50000  1.00000  1.0000
  H   H1        1.0  0.35318  0.30479  0.48629  1.0000
  H   H2        1.0  0.64681  0.80479  0.01371  1.0000
  H   H3        1.0  0.64681  0.69521  0.51371  1.0000
  H   H4        1.0  0.35320  0.19521  0.98629  1.0000
  H   H5        1.0  0.58217  0.05294  0.30730  1.0000
  H   H6        1.0  0.41784  0.55294  0.19270  1.0000
  H   H7        1.0  0.41784  0.94706  0.69270  1.0000
  H   H8        1.0  0.58217  0.44706  0.80730  1.0000
  H   H9        1.0  0.55397  0.23438  0.20932  1.0000
  H   H10       1.0  0.44602  0.73438  0.29068  1.0000
  H   H11       1.0  0.44602  0.76561  0.79068  1.0000
  H   H12       1.0  0.55398  0.26562  0.70932  1.0000
  C   C1        1.0  0.36680  0.38546  0.36790  1.0000
  C   C2        1.0  0.63320  0.88546  0.13209  1.0000
  C   C3        1.0  0.63319  0.61454  0.63209  1.0000
  C   C4        1.0  0.36681  0.11454  0.86790  1.0000
  C   C5        1.0  0.39600  0.28866  0.42419  1.0000
  C   C6        1.0  0.60400  0.78866  0.07581  1.0000
  C   C7        1.0  0.60400  0.71134  0.57581  1.0000
  C   C8        1.0  0.39600  0.21134  0.92419  1.0000
  C   C9        1.0  0.52540  0.14987  0.32523  1.0000
  C   C10       1.0  0.47460  0.64987  0.17477  1.0000
  C   C11       1.0  0.47460  0.85013  0.67477  1.0000
  C   C12       1.0  0.52541  0.35013  0.82523  1.0000
  C   C13       1.0  0.50557  0.24951  0.27125  1.0000
  C   C14       1.0  0.49443  0.74952  0.22874  1.0000
  C   C15       1.0  0.49443  0.75048  0.72874  1.0000
  C   C16       1.0  0.50557  0.25048  0.77126  1.0000
  I   I1        1.0  0.99665  0.86565  0.40742  1.0000
  I   I2        1.0  0.00336  0.36565  0.09258  1.0000
  I   I3        1.0  0.00336  0.13435  0.59258  1.0000
  I   I4        1.0  0.99665  0.63436  0.90742  1.0000
  N   N1        1.0  0.42536  0.36790  0.29262  1.0000
  N   N2        1.0  0.57463  0.86790  0.20738  1.0000
  N   N3        1.0  0.57463  0.63210  0.70738  1.0000
  N   N4        1.0  0.42537  0.13210  0.79262  1.0000
  N   N5        1.0  0.47346  0.17125  0.40165  1.0000
  N   N6        1.0  0.52655  0.67126  0.09835  1.0000
  N   N7        1.0  0.52655  0.82875  0.59835  1.0000
  N   N8        1.0  0.47346  0.32875  0.90165  1.0000
  Cl  Cl1       1.0  0.24249  0.53518  0.39660  1.0000
  Cl  Cl2       1.0  0.75750  0.03518  0.10339  1.0000
  Cl  Cl3       1.0  0.75750  0.46482  0.60339  1.0000
  Cl  Cl4       1.0  0.24249  0.96482  0.89660  1.0000
