data_image0
_chemical_formula_structural       Cu4H28C8N44
_chemical_formula_sum              "Cu4 H28 C8 N44"
_cell_length_a       7.33198
_cell_length_b       9.407
_cell_length_c       12.5248
_cell_angle_alpha    89.9998
_cell_angle_beta     90.0001
_cell_angle_gamma    90.8625

_space_group_name_H-M_alt    "P 1"
_space_group_IT_number       1

loop_
  _space_group_symop_operation_xyz
  'x, y, z'

loop_
  _atom_site_type_symbol
  _atom_site_label
  _atom_site_symmetry_multiplicity
  _atom_site_fract_x
  _atom_site_fract_y
  _atom_site_fract_z
  _atom_site_occupancy
  Cu  Cu1       1.0  0.09999  0.78415  0.09705  1.0000
  Cu  Cu2       1.0  0.89999  0.71579  0.59698  1.0000
  Cu  Cu3       1.0  0.90001  0.21579  0.90300  1.0000
  Cu  Cu4       1.0  0.09996  0.28413  0.40292  1.0000
  H   H1        1.0  0.34124  0.80488  0.24793  1.0000
  H   H2        1.0  0.65887  0.69518  0.74790  1.0000
  H   H3        1.0  0.65881  0.19509  0.75215  1.0000
  H   H4        1.0  0.34129  0.30497  0.25213  1.0000
  H   H5        1.0  0.61190  0.06534  0.07498  1.0000
  H   H6        1.0  0.38809  0.43469  0.57491  1.0000
  H   H7        1.0  0.38810  0.93469  0.92505  1.0000
  H   H8        1.0  0.61191  0.56535  0.42497  1.0000
  H   H9        1.0  0.38863  0.92138  0.15391  1.0000
  H   H10       1.0  0.61144  0.57865  0.65393  1.0000
  H   H11       1.0  0.61148  0.07861  0.84620  1.0000
  H   H12       1.0  0.38856  0.42142  0.34622  1.0000
  H   H13       1.0  0.45098  0.75419  0.13908  1.0000
  H   H14       1.0  0.54909  0.74584  0.63907  1.0000
  H   H15       1.0  0.54910  0.24576  0.86102  1.0000
  H   H16       1.0  0.45097  0.25427  0.36101  1.0000
  H   H17       1.0  0.32731  0.65939  0.96229  1.0000
  H   H18       1.0  0.67264  0.84058  0.46225  1.0000
  H   H19       1.0  0.67265  0.34059  0.03774  1.0000
  H   H20       1.0  0.32730  0.15941  0.53770  1.0000
  H   H21       1.0  0.11235  0.63601  0.92597  1.0000
  H   H22       1.0  0.88762  0.86394  0.42593  1.0000
  H   H23       1.0  0.88763  0.36397  0.07406  1.0000
  H   H24       1.0  0.11234  0.13601  0.57403  1.0000
  H   H25       1.0  0.19642  0.53778  0.02339  1.0000
  H   H26       1.0  0.80355  0.96214  0.52339  1.0000
  H   H27       1.0  0.80355  0.46216  0.97661  1.0000
  H   H28       1.0  0.19642  0.03776  0.47663  1.0000
  C   C1        1.0  0.72903  0.88075  0.01955  1.0000
  C   C2        1.0  0.27091  0.61923  0.51948  1.0000
  C   C3        1.0  0.27091  0.11921  0.98049  1.0000
  C   C4        1.0  0.72906  0.38079  0.48042  1.0000
  C   C5        1.0  0.85807  0.03299  0.15484  1.0000
  C   C6        1.0  0.14188  0.46698  0.65476  1.0000
  C   C7        1.0  0.14185  0.96694  0.84521  1.0000
  C   C8        1.0  0.85812  0.53305  0.34515  1.0000
  N   N1        1.0  0.10876  0.03225  0.24453  1.0000
  N   N2        1.0  0.89125  0.46769  0.74449  1.0000
  N   N3        1.0  0.89129  0.96772  0.75545  1.0000
  N   N4        1.0  0.10872  0.53221  0.25540  1.0000
  N   N5        1.0  0.72519  0.99930  0.08179  1.0000
  N   N6        1.0  0.27472  0.50065  0.58169  1.0000
  N   N7        1.0  0.27469  0.00060  0.91829  1.0000
  N   N8        1.0  0.72526  0.49937  0.41821  1.0000
  N   N9        1.0  0.86242  0.78389  0.01762  1.0000
  N   N10       1.0  0.13753  0.71610  0.51757  1.0000
  N   N11       1.0  0.13746  0.21601  0.98248  1.0000
  N   N12       1.0  0.86248  0.28396  0.48242  1.0000
  N   N13       1.0  0.01700  0.96384  0.16559  1.0000
  N   N14       1.0  0.98291  0.53605  0.66547  1.0000
  N   N15       1.0  0.98297  0.03610  0.83444  1.0000
  N   N16       1.0  0.01693  0.46377  0.33432  1.0000
  N   N17       1.0  0.64851  0.71831  0.90790  1.0000
  N   N18       1.0  0.35147  0.78179  0.40792  1.0000
  N   N19       1.0  0.35154  0.28183  0.09200  1.0000
  N   N20       1.0  0.64846  0.21828  0.59203  1.0000
  N   N21       1.0  0.59446  0.84321  0.95144  1.0000
  N   N22       1.0  0.40552  0.65686  0.45142  1.0000
  N   N23       1.0  0.40560  0.15692  0.04848  1.0000
  N   N24       1.0  0.59442  0.34317  0.54848  1.0000
  N   N25       1.0  0.80670  0.68285  0.94700  1.0000
  N   N26       1.0  0.19326  0.81719  0.44700  1.0000
  N   N27       1.0  0.19324  0.31715  0.05299  1.0000
  N   N28       1.0  0.80671  0.18288  0.55299  1.0000
  N   N29       1.0  0.34946  0.81780  0.16615  1.0000
  N   N30       1.0  0.65063  0.68224  0.66613  1.0000
  N   N31       1.0  0.65063  0.18218  0.83393  1.0000
  N   N32       1.0  0.34945  0.31784  0.33391  1.0000
  N   N33       1.0  0.84689  0.14160  0.22360  1.0000
  N   N34       1.0  0.15318  0.35845  0.72361  1.0000
  N   N35       1.0  0.15309  0.85832  0.77645  1.0000
  N   N36       1.0  0.84703  0.64178  0.27649  1.0000
  N   N37       1.0  0.00690  0.13633  0.27760  1.0000
  N   N38       1.0  0.99321  0.36371  0.77763  1.0000
  N   N39       1.0  0.99316  0.86364  0.72240  1.0000
  N   N40       1.0  0.00698  0.63642  0.22245  1.0000
  N   N41       1.0  0.19856  0.63825  0.99036  1.0000
  N   N42       1.0  0.80139  0.86170  0.49032  1.0000
  N   N43       1.0  0.80140  0.36172  0.00967  1.0000
  N   N44       1.0  0.19855  0.13824  0.50964  1.0000
