data_image0
_chemical_formula_structural       Cu4H28C8N44
_chemical_formula_sum              "Cu4 H28 C8 N44"
_cell_length_a       5.87649
_cell_length_b       10.0235
_cell_length_c       13.9234
_cell_angle_alpha    90.0007
_cell_angle_beta     89.4963
_cell_angle_gamma    90

_space_group_name_H-M_alt    "P 1"
_space_group_IT_number       1

loop_
  _space_group_symop_operation_xyz
  'x, y, z'

loop_
  _atom_site_type_symbol
  _atom_site_label
  _atom_site_symmetry_multiplicity
  _atom_site_fract_x
  _atom_site_fract_y
  _atom_site_fract_z
  _atom_site_occupancy
  Cu  Cu1       1.0  0.08282  0.12562  0.24158  1.0000
  Cu  Cu2       1.0  0.41717  0.62563  0.25843  1.0000
  Cu  Cu3       1.0  0.91717  0.87438  0.75842  1.0000
  Cu  Cu4       1.0  0.58282  0.37439  0.74158  1.0000
  H   H1        1.0  0.64182  0.09766  0.98222  1.0000
  H   H2        1.0  0.85820  0.59765  0.51777  1.0000
  H   H3        1.0  0.35817  0.90235  0.01778  1.0000
  H   H4        1.0  0.14184  0.40233  0.48222  1.0000
  H   H5        1.0  0.90076  0.08228  0.40811  1.0000
  H   H6        1.0  0.59924  0.58228  0.09189  1.0000
  H   H7        1.0  0.09924  0.91772  0.59189  1.0000
  H   H8        1.0  0.40076  0.41772  0.90811  1.0000
  H   H9        1.0  0.08956  0.96097  0.38323  1.0000
  H   H10       1.0  0.41044  0.46097  0.11676  1.0000
  H   H11       1.0  0.91044  0.03903  0.61677  1.0000
  H   H12       1.0  0.58955  0.53903  0.88323  1.0000
  H   H13       1.0  0.17899  0.10901  0.41876  1.0000
  H   H14       1.0  0.32100  0.60901  0.08124  1.0000
  H   H15       1.0  0.82100  0.89098  0.58124  1.0000
  H   H16       1.0  0.67899  0.39099  0.91876  1.0000
  H   H17       1.0  0.44827  0.26342  0.21709  1.0000
  H   H18       1.0  0.05172  0.76342  0.28290  1.0000
  H   H19       1.0  0.55172  0.73659  0.78291  1.0000
  H   H20       1.0  0.94827  0.23658  0.71710  1.0000
  H   H21       1.0  0.41874  0.22447  0.33397  1.0000
  H   H22       1.0  0.08125  0.72447  0.16603  1.0000
  H   H23       1.0  0.58126  0.77553  0.66603  1.0000
  H   H24       1.0  0.91875  0.27554  0.83397  1.0000
  H   H25       1.0  0.51831  0.11500  0.25694  1.0000
  H   H26       1.0  0.98170  0.61500  0.24306  1.0000
  H   H27       1.0  0.48170  0.88501  0.74306  1.0000
  H   H28       1.0  0.01831  0.38501  0.75694  1.0000
  C   C1        1.0  0.71464  0.00978  0.11471  1.0000
  C   C2        1.0  0.78535  0.50981  0.38531  1.0000
  C   C3        1.0  0.28535  0.99021  0.88530  1.0000
  C   C4        1.0  0.21464  0.49023  0.61472  1.0000
  C   C5        1.0  0.92757  0.18663  0.04084  1.0000
  C   C6        1.0  0.57238  0.68665  0.45916  1.0000
  C   C7        1.0  0.07240  0.81337  0.95917  1.0000
  C   C8        1.0  0.42756  0.31338  0.54084  1.0000
  N   N1        1.0  0.82716  0.00855  0.19916  1.0000
  N   N2        1.0  0.67287  0.50853  0.30084  1.0000
  N   N3        1.0  0.17285  0.99147  0.80084  1.0000
  N   N4        1.0  0.32719  0.49144  0.69916  1.0000
  N   N5        1.0  0.73295  0.90672  0.25126  1.0000
  N   N6        1.0  0.76706  0.40671  0.24873  1.0000
  N   N7        1.0  0.26705  0.09328  0.74873  1.0000
  N   N8        1.0  0.23296  0.59327  0.75125  1.0000
  N   N9        1.0  0.57341  0.85160  0.19999  1.0000
  N   N10       1.0  0.92660  0.35159  0.30000  1.0000
  N   N11       1.0  0.42660  0.14840  0.80000  1.0000
  N   N12       1.0  0.07341  0.64839  0.69998  1.0000
  N   N13       1.0  0.55550  0.91348  0.11352  1.0000
  N   N14       1.0  0.94448  0.41348  0.38647  1.0000
  N   N15       1.0  0.44449  0.08652  0.88648  1.0000
  N   N16       1.0  0.05550  0.58651  0.61351  1.0000
  N   N17       1.0  0.75239  0.09729  0.04129  1.0000
  N   N18       1.0  0.74756  0.59732  0.45872  1.0000
  N   N19       1.0  0.24756  0.90270  0.95872  1.0000
  N   N20       1.0  0.25238  0.40274  0.54130  1.0000
  N   N21       1.0  0.96695  0.27258  0.96859  1.0000
  N   N22       1.0  0.53306  0.77258  0.53142  1.0000
  N   N23       1.0  0.03304  0.72743  0.03141  1.0000
  N   N24       1.0  0.46699  0.22741  0.46860  1.0000
  N   N25       1.0  0.15605  0.34019  0.99480  1.0000
  N   N26       1.0  0.34397  0.84018  0.50520  1.0000
  N   N27       1.0  0.84396  0.65982  0.00520  1.0000
  N   N28       1.0  0.65609  0.15980  0.49480  1.0000
  N   N29       1.0  0.22718  0.29831  0.07804  1.0000
  N   N30       1.0  0.27284  0.79830  0.42196  1.0000
  N   N31       1.0  0.77282  0.70169  0.92196  1.0000
  N   N32       1.0  0.72720  0.20167  0.57804  1.0000
  N   N33       1.0  0.08506  0.20050  0.10985  1.0000
  N   N34       1.0  0.41494  0.70049  0.39013  1.0000
  N   N35       1.0  0.91493  0.79951  0.89014  1.0000
  N   N36       1.0  0.58506  0.29948  0.60984  1.0000
  N   N37       1.0  0.05835  0.06173  0.37799  1.0000
  N   N38       1.0  0.44165  0.56173  0.12200  1.0000
  N   N39       1.0  0.94165  0.93827  0.62201  1.0000
  N   N40       1.0  0.55835  0.43827  0.87800  1.0000
  N   N41       1.0  0.40155  0.18994  0.26428  1.0000
  N   N42       1.0  0.09845  0.68994  0.23572  1.0000
  N   N43       1.0  0.59844  0.81006  0.73572  1.0000
  N   N44       1.0  0.90156  0.31006  0.76428  1.0000
