data_image0
_chemical_formula_structural       Cd2H12C16N8Cl8
_chemical_formula_sum              "Cd2 H12 C16 N8 Cl8"
_cell_length_a       3.77259
_cell_length_b       10.2193
_cell_length_c       16.194
_cell_angle_alpha    89.9997
_cell_angle_beta     89.9998
_cell_angle_gamma    92.9169

_space_group_name_H-M_alt    "P 1"
_space_group_IT_number       1

loop_
  _space_group_symop_operation_xyz
  'x, y, z'

loop_
  _atom_site_type_symbol
  _atom_site_label
  _atom_site_symmetry_multiplicity
  _atom_site_fract_x
  _atom_site_fract_y
  _atom_site_fract_z
  _atom_site_occupancy
  Cd  Cd1       1.0  0.50001  0.50000  0.50000  1.0000
  Cd  Cd2       1.0  0.50000  1.00000  0.00000  1.0000
  H   H1        1.0  0.25282  0.18998  0.48304  1.0000
  H   H2        1.0  0.74718  0.31002  0.98303  1.0000
  H   H3        1.0  0.74719  0.81003  0.51696  1.0000
  H   H4        1.0  0.25281  0.68997  0.01697  1.0000
  H   H5        1.0  0.70130  0.44179  0.30528  1.0000
  H   H6        1.0  0.29871  0.05820  0.80528  1.0000
  H   H7        1.0  0.29869  0.55821  0.69472  1.0000
  H   H8        1.0  0.70131  0.94179  0.19472  1.0000
  H   H9        1.0  0.74405  0.24931  0.20646  1.0000
  H   H10       1.0  0.25595  0.25069  0.70646  1.0000
  H   H11       1.0  0.25592  0.75070  0.79354  1.0000
  H   H12       1.0  0.74407  0.74931  0.29354  1.0000
  C   C1        1.0  0.38544  0.09966  0.36508  1.0000
  C   C2        1.0  0.61455  0.40033  0.86507  1.0000
  C   C3        1.0  0.61455  0.90034  0.63493  1.0000
  C   C4        1.0  0.38545  0.59966  0.13493  1.0000
  C   C5        1.0  0.36306  0.20309  0.42121  1.0000
  C   C6        1.0  0.63694  0.29691  0.92121  1.0000
  C   C7        1.0  0.63694  0.79692  0.57879  1.0000
  C   C8        1.0  0.36306  0.70308  0.07879  1.0000
  C   C9        1.0  0.61348  0.34234  0.32276  1.0000
  C   C10       1.0  0.38653  0.15766  0.82275  1.0000
  C   C11       1.0  0.38651  0.65767  0.67725  1.0000
  C   C12       1.0  0.61349  0.84233  0.17725  1.0000
  C   C13       1.0  0.63348  0.23695  0.26842  1.0000
  C   C14       1.0  0.36652  0.26305  0.76842  1.0000
  C   C15       1.0  0.36650  0.76306  0.73157  1.0000
  C   C16       1.0  0.63349  0.73695  0.23158  1.0000
  N   N1        1.0  0.52147  0.11504  0.28998  1.0000
  N   N2        1.0  0.47853  0.38496  0.78997  1.0000
  N   N3        1.0  0.47850  0.88496  0.71002  1.0000
  N   N4        1.0  0.52149  0.61504  0.21003  1.0000
  N   N5        1.0  0.48044  0.32384  0.39911  1.0000
  N   N6        1.0  0.51956  0.17616  0.89911  1.0000
  N   N7        1.0  0.51956  0.67616  0.60089  1.0000
  N   N8        1.0  0.48044  0.82384  0.10089  1.0000
  Cl  Cl1       1.0  0.01605  0.62402  0.41782  1.0000
  Cl  Cl2       1.0  0.98396  0.87598  0.91782  1.0000
  Cl  Cl3       1.0  0.98397  0.37598  0.58219  1.0000
  Cl  Cl4       1.0  0.01604  0.12402  0.08218  1.0000
  Cl  Cl5       1.0  0.23450  0.94335  0.39345  1.0000
  Cl  Cl6       1.0  0.76548  0.55665  0.89345  1.0000
  Cl  Cl7       1.0  0.76548  0.05666  0.60655  1.0000
  Cl  Cl8       1.0  0.23452  0.44334  0.10655  1.0000
