data_image0
_chemical_formula_structural       Cd2H24C20I4N8
_chemical_formula_sum              "Cd2 H24 C20 I4 N8"
_cell_length_a       4.15388
_cell_length_b       8.3361
_cell_length_c       22.0239
_cell_angle_alpha    90.0005
_cell_angle_beta     89.9997
_cell_angle_gamma    97.1231

_space_group_name_H-M_alt    "P 1"
_space_group_IT_number       1

loop_
  _space_group_symop_operation_xyz
  'x, y, z'

loop_
  _atom_site_type_symbol
  _atom_site_label
  _atom_site_symmetry_multiplicity
  _atom_site_fract_x
  _atom_site_fract_y
  _atom_site_fract_z
  _atom_site_occupancy
  Cd  Cd1       1.0  0.50000  0.00001  0.50000  1.0000
  Cd  Cd2       1.0  1.00000  0.50002  0.00000  1.0000
  H   H1        1.0  0.34643  0.98090  0.35351  1.0000
  H   H2        1.0  0.15352  0.51910  0.85352  1.0000
  H   H3        1.0  0.65359  0.01910  0.64648  1.0000
  H   H4        1.0  0.84635  0.48089  0.14649  1.0000
  H   H5        1.0  0.59736  0.62076  0.46784  1.0000
  H   H6        1.0  0.90268  0.87929  0.96785  1.0000
  H   H7        1.0  0.40271  0.37927  0.53216  1.0000
  H   H8        1.0  0.09733  0.12076  0.03215  1.0000
  H   H9        1.0  0.60065  0.43137  0.37836  1.0000
  H   H10       1.0  0.89940  0.06864  0.87836  1.0000
  H   H11       1.0  0.39942  0.56864  0.62164  1.0000
  H   H12       1.0  0.10065  0.93137  0.12162  1.0000
  H   H13       1.0  0.22926  0.70280  0.21823  1.0000
  H   H14       1.0  0.27073  0.79717  0.71823  1.0000
  H   H15       1.0  0.77077  0.29719  0.78177  1.0000
  H   H16       1.0  0.72921  0.20277  0.28177  1.0000
  H   H17       1.0  0.55968  0.85847  0.22381  1.0000
  H   H18       1.0  0.94032  0.64151  0.72382  1.0000
  H   H19       1.0  0.44036  0.14153  0.77618  1.0000
  H   H20       1.0  0.05963  0.35844  0.27618  1.0000
  H   H21       1.0  0.16994  0.90039  0.24531  1.0000
  H   H22       1.0  0.33004  0.59958  0.74532  1.0000
  H   H23       1.0  0.83009  0.09960  0.75468  1.0000
  H   H24       1.0  0.66990  0.40037  0.25469  1.0000
  C   C1        1.0  0.40094  0.75220  0.30849  1.0000
  C   C2        1.0  0.09906  0.74780  0.80849  1.0000
  C   C3        1.0  0.59911  0.24780  0.69151  1.0000
  C   C4        1.0  0.90088  0.25218  0.19151  1.0000
  C   C5        1.0  0.40250  0.85692  0.35852  1.0000
  C   C6        1.0  0.09747  0.64308  0.85852  1.0000
  C   C7        1.0  0.59752  0.14308  0.64148  1.0000
  C   C8        1.0  0.90245  0.35691  0.14148  1.0000
  C   C9        1.0  0.53904  0.65774  0.42205  1.0000
  C   C10       1.0  0.96098  0.84229  0.92205  1.0000
  C   C11       1.0  0.46100  0.34228  0.57795  1.0000
  C   C12       1.0  0.03901  0.15774  0.07794  1.0000
  C   C13       1.0  0.54085  0.55434  0.37236  1.0000
  C   C14       1.0  0.95917  0.94568  0.87236  1.0000
  C   C15       1.0  0.45922  0.44567  0.62765  1.0000
  C   C16       1.0  0.04083  0.05434  0.12764  1.0000
  C   C17       1.0  0.33228  0.80613  0.24576  1.0000
  C   C18       1.0  0.16770  0.69384  0.74576  1.0000
  C   C19       1.0  0.66775  0.19386  0.75424  1.0000
  C   C20       1.0  0.83223  0.30611  0.25424  1.0000
  I   I1        1.0  0.97175  0.80438  0.56377  1.0000
  I   I2        1.0  0.52826  0.69564  0.06376  1.0000
  I   I3        1.0  0.02828  0.19562  0.43624  1.0000
  I   I4        1.0  0.47175  0.30440  0.93623  1.0000
  N   N1        1.0  0.47071  0.60004  0.31616  1.0000
  N   N2        1.0  0.02930  0.89996  0.81616  1.0000
  N   N3        1.0  0.52933  0.39996  0.68384  1.0000
  N   N4        1.0  0.97068  0.10002  0.18384  1.0000
  N   N5        1.0  0.47034  0.80953  0.41468  1.0000
  N   N6        1.0  0.02965  0.69050  0.91469  1.0000
  N   N7        1.0  0.52970  0.19049  0.58531  1.0000
  N   N8        1.0  0.97030  0.30953  0.08531  1.0000
