data_image0
_chemical_formula_structural       Co3H18C28N4O18
_chemical_formula_sum              "Co3 H18 C28 N4 O18"
_cell_length_a       8.81307
_cell_length_b       9.5032
_cell_length_c       10.0098
_cell_angle_alpha    79.1596
_cell_angle_beta     87.4932
_cell_angle_gamma    73.2847

_space_group_name_H-M_alt    "P 1"
_space_group_IT_number       1

loop_
  _space_group_symop_operation_xyz
  'x, y, z'

loop_
  _atom_site_type_symbol
  _atom_site_label
  _atom_site_symmetry_multiplicity
  _atom_site_fract_x
  _atom_site_fract_y
  _atom_site_fract_z
  _atom_site_occupancy
  Co  Co1       1.0  0.00021  0.50009  0.49972  1.0000
  Co  Co2       1.0  0.89282  0.41535  0.82948  1.0000
  Co  Co3       1.0  0.10697  0.58467  0.17053  1.0000
  H   H1        1.0  0.69480  0.78544  0.48145  1.0000
  H   H2        1.0  0.30504  0.21479  0.51865  1.0000
  H   H3        1.0  0.73375  0.23469  0.39479  1.0000
  H   H4        1.0  0.26628  0.76549  0.60522  1.0000
  H   H5        1.0  0.92746  0.94497  0.76880  1.0000
  H   H6        1.0  0.07277  0.05514  0.23108  1.0000
  H   H7        1.0  0.38397  0.30323  0.99484  1.0000
  H   H8        1.0  0.61635  0.69616  0.00517  1.0000
  H   H9        1.0  0.65805  0.31932  0.02066  1.0000
  H   H10       1.0  0.34209  0.68035  0.97928  1.0000
  H   H11       1.0  0.66356  0.53161  0.61854  1.0000
  H   H12       1.0  0.33608  0.46876  0.38161  1.0000
  H   H13       1.0  0.39330  0.51445  0.57547  1.0000
  H   H14       1.0  0.60637  0.48568  0.42475  1.0000
  H   H15       1.0  0.01743  0.27125  0.05123  1.0000
  H   H16       1.0  0.98268  0.72827  0.94838  1.0000
  H   H17       1.0  0.97200  0.17156  0.95542  1.0000
  H   H18       1.0  0.02790  0.82829  0.04405  1.0000
  C   C1        1.0  0.85034  0.70098  0.72922  1.0000
  C   C2        1.0  0.14978  0.29912  0.27066  1.0000
  C   C3        1.0  0.81646  0.84802  0.63546  1.0000
  C   C4        1.0  0.18360  0.15211  0.36449  1.0000
  C   C5        1.0  0.73285  0.87315  0.51362  1.0000
  C   C6        1.0  0.26714  0.12705  0.48639  1.0000
  C   C7        1.0  0.70122  0.01410  0.43135  1.0000
  C   C8        1.0  0.29872  0.98608  0.56867  1.0000
  C   C9        1.0  0.75544  0.12763  0.46345  1.0000
  C   C10       1.0  0.24454  0.87255  0.53655  1.0000
  C   C11       1.0  0.83841  0.10176  0.58577  1.0000
  C   C12       1.0  0.16175  0.89833  0.41413  1.0000
  C   C13       1.0  0.86482  0.96351  0.67282  1.0000
  C   C14       1.0  0.13534  0.03659  0.32708  1.0000
  C   C15       1.0  0.20680  0.39919  0.75027  1.0000
  C   C16       1.0  0.79302  0.60064  0.25013  1.0000
  C   C17       1.0  0.36818  0.40571  0.78089  1.0000
  C   C18       1.0  0.63176  0.59407  0.21926  1.0000
  C   C19       1.0  0.44257  0.35305  0.90841  1.0000
  C   C20       1.0  0.55758  0.64655  0.09161  1.0000
  C   C21       1.0  0.59507  0.36293  0.92394  1.0000
  C   C22       1.0  0.40501  0.63683  0.07603  1.0000
  C   C23       1.0  0.59870  0.48022  0.69844  1.0000
  C   C24       1.0  0.40103  0.51993  0.30169  1.0000
  C   C25       1.0  0.44933  0.47036  0.67513  1.0000
  C   C26       1.0  0.55046  0.52964  0.32502  1.0000
  C   C27       1.0  0.89909  0.22329  0.62046  1.0000
  C   C28       1.0  0.10127  0.77671  0.37943  1.0000
  N   N1        1.0  0.67402  0.42507  0.82071  1.0000
  N   N2        1.0  0.32594  0.57497  0.17933  1.0000
  N   N3        1.0  0.60793  0.04362  0.30517  1.0000
  N   N4        1.0  0.39196  0.95662  0.69491  1.0000
  O   O1        1.0  0.85826  0.69148  0.85567  1.0000
  O   O2        1.0  0.14195  0.30857  0.14427  1.0000
  O   O3        1.0  0.86650  0.58137  0.67724  1.0000
  O   O4        1.0  0.13342  0.41886  0.32260  1.0000
  O   O5        1.0  0.56161  0.94096  0.27751  1.0000
  O   O6        1.0  0.43868  0.05912  0.72232  1.0000
  O   O7        1.0  0.57945  0.17090  0.23425  1.0000
  O   O8        1.0  0.41991  0.82945  0.76610  1.0000
  O   O9        1.0  0.10829  0.40554  0.84805  1.0000
  O   O10       1.0  0.89168  0.59462  0.15236  1.0000
  O   O11       1.0  0.94154  0.21327  0.74229  1.0000
  O   O12       1.0  0.05866  0.78680  0.25758  1.0000
  O   O13       1.0  0.90053  0.32932  0.52144  1.0000
  O   O14       1.0  0.09993  0.67057  0.47837  1.0000
  O   O15       1.0  0.17946  0.39089  0.62886  1.0000
  O   O16       1.0  0.82009  0.60884  0.37159  1.0000
  O   O17       1.0  0.92881  0.25944  0.99776  1.0000
  O   O18       1.0  0.07117  0.74013  0.00212  1.0000
