data_image0
_chemical_formula_structural       Cd4H40C40N20Cl12O4
_chemical_formula_sum              "Cd4 H40 C40 N20 Cl12 O4"
_cell_length_a       7.01788
_cell_length_b       13.7927
_cell_length_c       15.5397
_cell_angle_alpha    104.055
_cell_angle_beta     90.0001
_cell_angle_gamma    90

_space_group_name_H-M_alt    "P 1"
_space_group_IT_number       1

loop_
  _space_group_symop_operation_xyz
  'x, y, z'

loop_
  _atom_site_type_symbol
  _atom_site_label
  _atom_site_symmetry_multiplicity
  _atom_site_fract_x
  _atom_site_fract_y
  _atom_site_fract_z
  _atom_site_occupancy
  Cd  Cd1       1.0  0.08724  0.57798  0.25044  1.0000
  Cd  Cd2       1.0  0.58724  0.42202  0.74956  1.0000
  Cd  Cd3       1.0  0.56518  0.44982  0.27093  1.0000
  Cd  Cd4       1.0  0.06518  0.55018  0.72907  1.0000
  H   H1        1.0  0.23246  0.23828  0.28919  1.0000
  H   H2        1.0  0.73246  0.76172  0.71081  1.0000
  H   H3        1.0  0.19633  0.59201  0.02917  1.0000
  H   H4        1.0  0.69633  0.40799  0.97083  1.0000
  H   H5        1.0  0.36039  0.87404  0.99369  1.0000
  H   H6        1.0  0.86039  0.12596  0.00631  1.0000
  H   H7        1.0  0.35180  0.80169  0.88229  1.0000
  H   H8        1.0  0.85180  0.19831  0.11771  1.0000
  H   H9        1.0  0.29811  0.15700  0.55474  1.0000
  H   H10       1.0  0.79811  0.84300  0.44526  1.0000
  H   H11       1.0  0.20789  0.05588  0.47227  1.0000
  H   H12       1.0  0.70789  0.94412  0.52773  1.0000
  H   H13       1.0  0.37247  0.10293  0.70856  1.0000
  H   H14       1.0  0.87247  0.89707  0.29144  1.0000
  H   H15       1.0  0.61883  0.16780  0.88689  1.0000
  H   H16       1.0  0.11883  0.83220  0.11311  1.0000
  H   H17       1.0  0.22403  0.95429  0.78001  1.0000
  H   H18       1.0  0.72402  0.04571  0.22000  1.0000
  H   H19       1.0  0.70810  0.01368  0.74431  1.0000
  H   H20       1.0  0.20809  0.98632  0.25568  1.0000
  H   H21       1.0  0.94499  0.86668  0.66039  1.0000
  H   H22       1.0  0.44499  0.13332  0.33961  1.0000
  H   H23       1.0  0.68805  0.69621  0.24768  1.0000
  H   H24       1.0  0.18805  0.30379  0.75232  1.0000
  H   H25       1.0  0.96598  0.33687  0.27078  1.0000
  H   H26       1.0  0.46598  0.66313  0.72922  1.0000
  H   H27       1.0  0.99026  0.68002  0.93263  1.0000
  H   H28       1.0  0.49026  0.31998  0.06737  1.0000
  H   H29       1.0  0.41932  0.78914  0.21959  1.0000
  H   H30       1.0  0.91931  0.21086  0.78041  1.0000
  H   H31       1.0  0.70877  0.77244  0.90078  1.0000
  H   H32       1.0  0.20877  0.22756  0.09922  1.0000
  H   H33       1.0  0.61760  0.27875  0.55550  1.0000
  H   H34       1.0  0.11760  0.72125  0.44450  1.0000
  H   H35       1.0  0.42657  0.39106  0.47636  1.0000
  H   H36       1.0  0.92657  0.60894  0.52364  1.0000
  H   H37       1.0  0.44838  0.07638  0.00682  1.0000
  H   H38       1.0  0.94838  0.92362  0.99317  1.0000
  H   H39       1.0  0.90376  0.17610  0.57867  1.0000
  H   H40       1.0  0.40376  0.82390  0.42133  1.0000
  C   C1        1.0  0.52863  0.76944  0.16826  1.0000
  C   C2        1.0  0.02863  0.23056  0.83174  1.0000
  C   C3        1.0  0.11549  0.24477  0.33664  1.0000
  C   C4        1.0  0.61549  0.75523  0.66336  1.0000
  C   C5        1.0  0.81589  0.69028  0.12517  1.0000
  C   C6        1.0  0.31589  0.30972  0.87483  1.0000
  C   C7        1.0  0.82072  0.31361  0.38148  1.0000
  C   C8        1.0  0.32072  0.68638  0.61852  1.0000
  C   C9        1.0  0.79796  0.71409  0.04324  1.0000
  C   C10       1.0  0.29796  0.28591  0.95676  1.0000
  C   C11       1.0  0.82378  0.26716  0.45184  1.0000
  C   C12       1.0  0.32378  0.73283  0.54816  1.0000
  C   C13       1.0  0.63565  0.76779  0.02606  1.0000
  C   C14       1.0  0.13565  0.23221  0.97394  1.0000
  C   C15       1.0  0.98416  0.20872  0.46307  1.0000
  C   C16       1.0  0.48417  0.79128  0.53693  1.0000
  C   C17       1.0  0.06263  0.63027  0.04934  1.0000
  C   C18       1.0  0.56262  0.36973  0.95066  1.0000
  C   C19       1.0  0.56193  0.35597  0.45386  1.0000
  C   C20       1.0  0.06193  0.64403  0.54614  1.0000
  C   C21       1.0  0.44272  0.85105  0.93226  1.0000
  C   C22       1.0  0.94272  0.14895  0.06774  1.0000
  C   C23       1.0  0.17619  0.10578  0.53729  1.0000
  C   C24       1.0  0.67619  0.89422  0.46272  1.0000
  C   C25       1.0  0.50331  0.94086  0.90280  1.0000
  C   C26       1.0  0.00331  0.05914  0.09719  1.0000
  C   C27       1.0  0.15877  0.04865  0.60618  1.0000
  C   C28       1.0  0.65876  0.95136  0.39383  1.0000
  C   C29       1.0  0.50273  0.04127  0.94122  1.0000
  C   C30       1.0  0.00274  0.95873  0.05877  1.0000
  C   C31       1.0  0.25743  0.05163  0.68267  1.0000
  C   C32       1.0  0.75743  0.94837  0.31733  1.0000
  C   C33       1.0  0.59021  0.08903  0.87892  1.0000
  C   C34       1.0  0.09020  0.91096  0.12107  1.0000
  C   C35       1.0  0.18183  0.97352  0.71909  1.0000
  C   C36       1.0  0.68182  0.02648  0.28091  1.0000
  C   C37       1.0  0.63939  0.01494  0.80699  1.0000
  C   C38       1.0  0.13938  0.98505  0.19301  1.0000
  C   C39       1.0  0.04271  0.92782  0.66221  1.0000
  C   C40       1.0  0.54270  0.07219  0.33779  1.0000
  N   N1        1.0  0.50338  0.79316  0.09210  1.0000
  N   N2        1.0  0.00338  0.20684  0.90790  1.0000
  N   N3        1.0  0.12818  0.20032  0.40241  1.0000
  N   N4        1.0  0.62818  0.79968  0.59759  1.0000
  N   N5        1.0  0.68104  0.71958  0.18888  1.0000
  N   N6        1.0  0.18104  0.28042  0.81111  1.0000
  N   N7        1.0  0.96666  0.30070  0.32248  1.0000
  N   N8        1.0  0.46666  0.69930  0.67752  1.0000
  N   N9        1.0  0.60800  0.79398  0.95007  1.0000
  N   N10       1.0  0.10800  0.20602  0.04993  1.0000
  N   N11       1.0  0.00339  0.16240  0.52846  1.0000
  N   N12       1.0  0.50339  0.83761  0.47154  1.0000
  N   N13       1.0  0.95920  0.67526  0.99686  1.0000
  N   N14       1.0  0.45920  0.32474  0.00314  1.0000
  N   N15       1.0  0.65420  0.29470  0.49578  1.0000
  N   N16       1.0  0.15420  0.70530  0.50422  1.0000
  N   N17       1.0  0.97942  0.63833  0.12860  1.0000
  N   N18       1.0  0.47942  0.36167  0.87140  1.0000
  N   N19       1.0  0.65927  0.36879  0.38306  1.0000
  N   N20       1.0  0.15927  0.63121  0.61694  1.0000
  Cl  Cl1       1.0  0.16484  0.76998  0.32566  1.0000
  Cl  Cl2       1.0  0.66484  0.23002  0.67434  1.0000
  Cl  Cl3       1.0  0.39927  0.52908  0.15414  1.0000
  Cl  Cl4       1.0  0.89927  0.47092  0.84587  1.0000
  Cl  Cl5       1.0  0.89025  0.41206  0.17338  1.0000
  Cl  Cl6       1.0  0.39025  0.58794  0.82662  1.0000
  Cl  Cl7       1.0  0.75662  0.61823  0.34795  1.0000
  Cl  Cl8       1.0  0.25662  0.38177  0.65205  1.0000
  Cl  Cl9       1.0  0.47221  0.26279  0.18201  1.0000
  Cl  Cl10      1.0  0.97220  0.73722  0.81799  1.0000
  Cl  Cl11      1.0  0.25160  0.49635  0.36490  1.0000
  Cl  Cl12      1.0  0.75160  0.50364  0.63510  1.0000
  O   O1        1.0  0.58706  0.92379  0.82007  1.0000
  O   O2        1.0  0.08706  0.07621  0.17993  1.0000
  O   O3        1.0  0.02656  0.97235  0.59237  1.0000
  O   O4        1.0  0.52656  0.02765  0.40763  1.0000
