data_image0
_chemical_formula_structural       Ag4H12C16N8O4
_chemical_formula_sum              "Ag4 H12 C16 N8 O4"
_cell_length_a       5.27072
_cell_length_b       7.58436
_cell_length_c       11.2742
_cell_angle_alpha    97.9092
_cell_angle_beta     90.0016
_cell_angle_gamma    89.9994

_space_group_name_H-M_alt    "P 1"
_space_group_IT_number       1

loop_
  _space_group_symop_operation_xyz
  'x, y, z'

loop_
  _atom_site_type_symbol
  _atom_site_label
  _atom_site_symmetry_multiplicity
  _atom_site_fract_x
  _atom_site_fract_y
  _atom_site_fract_z
  _atom_site_occupancy
  Ag  Ag1       1.0  0.74178  0.09856  0.45091  1.0000
  Ag  Ag2       1.0  0.24182  0.40145  0.04909  1.0000
  Ag  Ag3       1.0  0.25821  0.90144  0.54909  1.0000
  Ag  Ag4       1.0  0.75820  0.59855  0.95091  1.0000
  H   H1        1.0  0.62060  0.80724  0.21738  1.0000
  H   H2        1.0  0.12062  0.69275  0.28262  1.0000
  H   H3        1.0  0.37941  0.19275  0.78262  1.0000
  H   H4        1.0  0.87939  0.30724  0.71737  1.0000
  H   H5        1.0  0.42517  0.06269  0.11512  1.0000
  H   H6        1.0  0.92518  0.43732  0.38489  1.0000
  H   H7        1.0  0.57484  0.93733  0.88488  1.0000
  H   H8        1.0  0.07480  0.56266  0.61512  1.0000
  H   H9        1.0  0.19565  0.17648  0.30500  1.0000
  H   H10       1.0  0.69567  0.32353  0.19501  1.0000
  H   H11       1.0  0.80436  0.82353  0.69501  1.0000
  H   H12       1.0  0.30433  0.67647  0.80500  1.0000
  C   C1        1.0  0.80456  0.86029  0.19698  1.0000
  C   C2        1.0  0.30455  0.63971  0.30301  1.0000
  C   C3        1.0  0.19548  0.13973  0.80302  1.0000
  C   C4        1.0  0.69544  0.36029  0.69698  1.0000
  C   C5        1.0  0.15379  0.84830  0.06572  1.0000
  C   C6        1.0  0.65380  0.65171  0.43429  1.0000
  C   C7        1.0  0.84622  0.15171  0.93428  1.0000
  C   C8        1.0  0.34617  0.34828  0.56572  1.0000
  C   C9        1.0  0.24946  0.00157  0.14038  1.0000
  C   C10       1.0  0.74947  0.49842  0.35963  1.0000
  C   C11       1.0  0.75054  0.99844  0.85962  1.0000
  C   C12       1.0  0.25051  0.50156  0.64038  1.0000
  C   C13       1.0  0.12205  0.06603  0.24283  1.0000
  C   C14       1.0  0.62206  0.43399  0.25718  1.0000
  C   C15       1.0  0.87796  0.93398  0.75717  1.0000
  C   C16       1.0  0.37794  0.56600  0.74282  1.0000
  N   N1        1.0  0.89902  0.99304  0.27547  1.0000
  N   N2        1.0  0.39904  0.50696  0.22454  1.0000
  N   N3        1.0  0.10098  0.00697  0.72453  1.0000
  N   N4        1.0  0.60097  0.49303  0.77546  1.0000
  N   N5        1.0  0.91563  0.78697  0.09574  1.0000
  N   N6        1.0  0.41565  0.71303  0.40427  1.0000
  N   N7        1.0  0.08436  0.21304  0.90425  1.0000
  N   N8        1.0  0.58433  0.28696  0.59573  1.0000
  O   O1        1.0  0.27069  0.76744  0.97701  1.0000
  O   O2        1.0  0.77069  0.73255  0.52301  1.0000
  O   O3        1.0  0.72933  0.23258  0.02298  1.0000
  O   O4        1.0  0.22929  0.26744  0.47700  1.0000
