data_image0
_chemical_formula_structural       Ag8H24C32N16O8
_chemical_formula_sum              "Ag8 H24 C32 N16 O8"
_cell_length_a       7.10976
_cell_length_b       11.5608
_cell_length_c       11.9198
_cell_angle_alpha    90.007
_cell_angle_beta     89.9928
_cell_angle_gamma    90.0009

_space_group_name_H-M_alt    "P 1"
_space_group_IT_number       1

loop_
  _space_group_symop_operation_xyz
  'x, y, z'

loop_
  _atom_site_type_symbol
  _atom_site_label
  _atom_site_symmetry_multiplicity
  _atom_site_fract_x
  _atom_site_fract_y
  _atom_site_fract_z
  _atom_site_occupancy
  Ag  Ag1       1.0  0.26204  0.44665  0.57323  1.0000
  Ag  Ag2       1.0  0.23791  0.05337  0.07329  1.0000
  Ag  Ag3       1.0  0.26202  0.55336  0.92677  1.0000
  Ag  Ag4       1.0  0.23797  0.94664  0.42670  1.0000
  Ag  Ag5       1.0  0.73795  0.55336  0.42675  1.0000
  Ag  Ag6       1.0  0.76204  0.94664  0.92672  1.0000
  Ag  Ag7       1.0  0.73792  0.44664  0.07321  1.0000
  Ag  Ag8       1.0  0.76205  0.05337  0.57331  1.0000
  H   H1        1.0  0.25521  0.65366  0.44769  1.0000
  H   H2        1.0  0.24480  0.84631  0.94770  1.0000
  H   H3        1.0  0.25517  0.34632  0.05233  1.0000
  H   H4        1.0  0.24483  0.15369  0.55228  1.0000
  H   H5        1.0  0.74479  0.34634  0.55232  1.0000
  H   H6        1.0  0.75517  0.15369  0.05228  1.0000
  H   H7        1.0  0.74479  0.65368  0.94767  1.0000
  H   H8        1.0  0.75514  0.84633  0.44771  1.0000
  H   H9        1.0  0.96761  0.31690  0.21243  1.0000
  H   H10       1.0  0.53249  0.18311  0.71248  1.0000
  H   H11       1.0  0.96750  0.68313  0.28758  1.0000
  H   H12       1.0  0.53235  0.81691  0.78754  1.0000
  H   H13       1.0  0.03237  0.68308  0.78754  1.0000
  H   H14       1.0  0.46750  0.81688  0.28754  1.0000
  H   H15       1.0  0.03246  0.31687  0.71241  1.0000
  H   H16       1.0  0.46766  0.18308  0.21247  1.0000
  H   H17       1.0  0.50082  0.60256  0.76073  1.0000
  H   H18       1.0  0.99909  0.89749  0.26074  1.0000
  H   H19       1.0  0.50088  0.39746  0.73929  1.0000
  H   H20       1.0  0.99915  0.10254  0.23927  1.0000
  H   H21       1.0  0.49919  0.39743  0.23928  1.0000
  H   H22       1.0  0.00094  0.10250  0.73927  1.0000
  H   H23       1.0  0.49914  0.60253  0.26072  1.0000
  H   H24       1.0  0.00085  0.89744  0.76073  1.0000
  C   C1        1.0  0.31906  0.69112  0.52285  1.0000
  C   C2        1.0  0.18088  0.80889  0.02286  1.0000
  C   C3        1.0  0.31907  0.30888  0.97717  1.0000
  C   C4        1.0  0.18090  0.19112  0.47713  1.0000
  C   C5        1.0  0.68091  0.30890  0.47717  1.0000
  C   C6        1.0  0.81914  0.19111  0.97714  1.0000
  C   C7        1.0  0.68090  0.69112  0.02284  1.0000
  C   C8        1.0  0.81910  0.80889  0.52284  1.0000
  C   C9        1.0  0.08989  0.35810  0.37554  1.0000
  C   C10       1.0  0.41011  0.14190  0.87556  1.0000
  C   C11       1.0  0.08984  0.64192  0.12447  1.0000
  C   C12       1.0  0.41005  0.85811  0.62445  1.0000
  C   C13       1.0  0.91013  0.64190  0.62442  1.0000
  C   C14       1.0  0.58988  0.85809  0.12445  1.0000
  C   C15       1.0  0.91021  0.35808  0.87554  1.0000
  C   C16       1.0  0.58996  0.14189  0.37558  1.0000
  C   C17       1.0  0.02891  0.28064  0.28843  1.0000
  C   C18       1.0  0.47120  0.21938  0.78849  1.0000
  C   C19       1.0  0.02883  0.71939  0.21158  1.0000
  C   C20       1.0  0.47110  0.78063  0.71153  1.0000
  C   C21       1.0  0.97111  0.71936  0.71154  1.0000
  C   C22       1.0  0.52882  0.78061  0.21153  1.0000
  C   C23       1.0  0.97118  0.28060  0.78842  1.0000
  C   C24       1.0  0.52891  0.21935  0.28849  1.0000
  C   C25       1.0  0.45170  0.66371  0.69715  1.0000
  C   C26       1.0  0.04824  0.83631  0.19719  1.0000
  C   C27       1.0  0.45175  0.33631  0.80286  1.0000
  C   C28       1.0  0.04833  0.16371  0.30281  1.0000
  C   C29       1.0  0.54835  0.33629  0.30285  1.0000
  C   C30       1.0  0.95175  0.16368  0.80281  1.0000
  C   C31       1.0  0.54826  0.66369  0.19715  1.0000
  C   C32       1.0  0.95163  0.83628  0.69718  1.0000
  N   N1        1.0  0.37281  0.61649  0.60327  1.0000
  N   N2        1.0  0.12713  0.88352  0.10330  1.0000
  N   N3        1.0  0.37283  0.38351  0.89675  1.0000
  N   N4        1.0  0.12718  0.11650  0.39670  1.0000
  N   N5        1.0  0.62719  0.38351  0.39674  1.0000
  N   N6        1.0  0.87288  0.11648  0.89671  1.0000
  N   N7        1.0  0.62716  0.61648  0.10325  1.0000
  N   N8        1.0  0.87282  0.88351  0.60329  1.0000
  N   N9        1.0  0.33491  0.80528  0.52797  1.0000
  N   N10       1.0  0.16506  0.69472  0.02801  1.0000
  N   N11       1.0  0.33491  0.19472  0.97203  1.0000
  N   N12       1.0  0.16510  0.30529  0.47199  1.0000
  N   N13       1.0  0.66511  0.19473  0.47204  1.0000
  N   N14       1.0  0.83493  0.30528  0.97199  1.0000
  N   N15       1.0  0.66505  0.80528  0.02797  1.0000
  N   N16       1.0  0.83489  0.69473  0.52798  1.0000
  O   O1        1.0  0.08038  0.46641  0.37243  1.0000
  O   O2        1.0  0.41964  0.03360  0.87245  1.0000
  O   O3        1.0  0.08032  0.53361  0.12758  1.0000
  O   O4        1.0  0.41959  0.96641  0.62754  1.0000
  O   O5        1.0  0.91966  0.53360  0.62752  1.0000
  O   O6        1.0  0.58037  0.96640  0.12756  1.0000
  O   O7        1.0  0.91977  0.46639  0.87243  1.0000
  O   O8        1.0  0.58043  0.03358  0.37249  1.0000
