data_image0
_chemical_formula_structural       Fe2H12C28N16O4
_chemical_formula_sum              "Fe2 H12 C28 N16 O4"
_cell_length_a       7.78435
_cell_length_b       8.88064
_cell_length_c       11.2802
_cell_angle_alpha    89.9999
_cell_angle_beta     101.595
_cell_angle_gamma    89.9967

_space_group_name_H-M_alt    "P 1"
_space_group_IT_number       1

loop_
  _space_group_symop_operation_xyz
  'x, y, z'

loop_
  _atom_site_type_symbol
  _atom_site_label
  _atom_site_symmetry_multiplicity
  _atom_site_fract_x
  _atom_site_fract_y
  _atom_site_fract_z
  _atom_site_occupancy
  Fe  Fe1       1.0  0.99999  0.50001  1.00000  1.0000
  Fe  Fe2       1.0  0.50001  0.00000  0.50000  1.0000
  H   H1        1.0  0.55779  0.39845  0.85482  1.0000
  H   H2        1.0  0.94225  0.89840  0.64521  1.0000
  H   H3        1.0  0.44220  0.60154  0.14518  1.0000
  H   H4        1.0  0.05774  0.10160  0.35478  1.0000
  H   H5        1.0  0.39749  0.42653  0.71775  1.0000
  H   H6        1.0  0.10255  0.92643  0.78226  1.0000
  H   H7        1.0  0.60249  0.57346  0.28225  1.0000
  H   H8        1.0  0.89743  0.07356  0.21773  1.0000
  H   H9        1.0  0.41334  0.24663  0.79267  1.0000
  H   H10       1.0  0.08672  0.74657  0.70731  1.0000
  H   H11       1.0  0.58664  0.75336  0.20733  1.0000
  H   H12       1.0  0.91327  0.25344  0.29268  1.0000
  C   C1        1.0  0.18332  0.44202  0.26048  1.0000
  C   C2        1.0  0.31666  0.94201  0.23953  1.0000
  C   C3        1.0  0.81668  0.55799  0.73952  1.0000
  C   C4        1.0  0.68335  0.05799  0.76048  1.0000
  C   C5        1.0  0.34170  0.30977  0.43464  1.0000
  C   C6        1.0  0.15826  0.80977  0.06536  1.0000
  C   C7        1.0  0.65829  0.69023  0.56535  1.0000
  C   C8        1.0  0.84174  0.19023  0.93464  1.0000
  C   C9        1.0  0.19863  0.55242  0.46186  1.0000
  C   C10       1.0  0.30134  0.05243  0.03815  1.0000
  C   C11       1.0  0.80137  0.44758  0.53813  1.0000
  C   C12       1.0  0.69869  0.94757  0.96187  1.0000
  C   C13       1.0  0.29836  0.41598  0.87457  1.0000
  C   C14       1.0  0.20167  0.91594  0.62545  1.0000
  C   C15       1.0  0.70163  0.58402  0.12543  1.0000
  C   C16       1.0  0.79833  0.08407  0.37455  1.0000
  C   C17       1.0  0.24710  0.43711  0.38566  1.0000
  C   C18       1.0  0.25286  0.93709  0.11433  1.0000
  C   C19       1.0  0.75290  0.56290  0.61434  1.0000
  C   C20       1.0  0.74716  0.06291  0.88568  1.0000
  C   C21       1.0  0.08175  0.66989  0.39808  1.0000
  C   C22       1.0  0.41821  0.16986  0.10192  1.0000
  C   C23       1.0  0.91826  0.33012  0.60192  1.0000
  C   C24       1.0  0.58181  0.83012  0.89809  1.0000
  C   C25       1.0  0.42558  0.36895  0.80593  1.0000
  C   C26       1.0  0.07444  0.86889  0.69408  1.0000
  C   C27       1.0  0.57440  0.63105  0.19406  1.0000
  C   C28       1.0  0.92554  0.13111  0.30591  1.0000
  N   N1        1.0  0.12243  0.45194  0.15728  1.0000
  N   N2        1.0  0.37756  0.95194  0.34273  1.0000
  N   N3        1.0  0.87756  0.54807  0.84272  1.0000
  N   N4        1.0  0.62245  0.04806  0.65728  1.0000
  N   N5        1.0  0.41323  0.19786  0.46919  1.0000
  N   N6        1.0  0.08673  0.69786  0.03082  1.0000
  N   N7        1.0  0.58677  0.80215  0.53081  1.0000
  N   N8        1.0  0.91325  0.30214  0.96918  1.0000
  N   N9        1.0  0.98615  0.76581  0.35608  1.0000
  N   N10       1.0  0.51380  0.26578  0.14391  1.0000
  N   N11       1.0  0.01385  0.23420  0.64393  1.0000
  N   N12       1.0  0.48622  0.73421  0.85608  1.0000
  N   N13       1.0  0.19304  0.45062  0.92877  1.0000
  N   N14       1.0  0.30699  0.95059  0.57123  1.0000
  N   N15       1.0  0.80695  0.54939  0.07122  1.0000
  N   N16       1.0  0.69301  0.04942  0.42877  1.0000
  O   O1        1.0  0.24179  0.56023  0.57407  1.0000
  O   O2        1.0  0.25813  0.06025  0.92591  1.0000
  O   O3        1.0  0.75821  0.43978  0.42593  1.0000
  O   O4        1.0  0.74190  0.93974  0.07411  1.0000
