data_image0
_chemical_formula_structural       Ag4H8C16N12O12
_chemical_formula_sum              "Ag4 H8 C16 N12 O12"
_cell_length_a       5.51308
_cell_length_b       8.28404
_cell_length_c       13.6617
_cell_angle_alpha    89.996
_cell_angle_beta     91.7742
_cell_angle_gamma    90.0079

_space_group_name_H-M_alt    "P 1"
_space_group_IT_number       1

loop_
  _space_group_symop_operation_xyz
  'x, y, z'

loop_
  _atom_site_type_symbol
  _atom_site_label
  _atom_site_symmetry_multiplicity
  _atom_site_fract_x
  _atom_site_fract_y
  _atom_site_fract_z
  _atom_site_occupancy
  Ag  Ag1       1.0  0.23606  0.99164  0.26964  1.0000
  Ag  Ag2       1.0  0.76393  0.49164  0.73038  1.0000
  Ag  Ag3       1.0  0.92296  0.20776  0.88754  1.0000
  Ag  Ag4       1.0  0.07698  0.70776  0.11246  1.0000
  H   H1        1.0  0.77128  0.22348  0.31680  1.0000
  H   H2        1.0  0.22873  0.72348  0.68320  1.0000
  H   H3        1.0  0.50384  0.34945  0.02405  1.0000
  H   H4        1.0  0.49621  0.84947  0.97594  1.0000
  H   H5        1.0  0.12893  0.59906  0.34119  1.0000
  H   H6        1.0  0.87104  0.09903  0.65882  1.0000
  H   H7        1.0  0.52481  0.84884  0.46901  1.0000
  H   H8        1.0  0.47524  0.34883  0.53099  1.0000
  C   C1        1.0  0.61302  0.30130  0.17647  1.0000
  C   C2        1.0  0.38699  0.80131  0.82352  1.0000
  C   C3        1.0  0.78029  0.21863  0.23712  1.0000
  C   C4        1.0  0.21970  0.71863  0.76287  1.0000
  C   C5        1.0  0.62967  0.28747  0.07439  1.0000
  C   C6        1.0  0.37035  0.78748  0.92561  1.0000
  C   C7        1.0  0.97404  0.12205  0.09726  1.0000
  C   C8        1.0  0.02593  0.62207  0.90275  1.0000
  C   C9        1.0  0.83249  0.71323  0.41811  1.0000
  C   C10       1.0  0.16753  0.21321  0.58189  1.0000
  C   C11       1.0  0.95959  0.66762  0.33518  1.0000
  C   C12       1.0  0.04039  0.16761  0.66482  1.0000
  C   C13       1.0  0.62008  0.80515  0.40551  1.0000
  C   C14       1.0  0.37996  0.30515  0.59449  1.0000
  C   C15       1.0  0.65638  0.78842  0.23426  1.0000
  C   C16       1.0  0.34361  0.28843  0.76575  1.0000
  N   N1        1.0  0.43055  0.39921  0.21768  1.0000
  N   N2        1.0  0.56947  0.89922  0.78230  1.0000
  N   N3        1.0  0.95010  0.12740  0.19905  1.0000
  N   N4        1.0  0.04987  0.62739  0.80096  1.0000
  N   N5        1.0  0.80639  0.20281  0.03651  1.0000
  N   N6        1.0  0.19361  0.70282  0.96350  1.0000
  N   N7        1.0  0.92610  0.67801  0.51398  1.0000
  N   N8        1.0  0.07392  0.17800  0.48601  1.0000
  N   N9        1.0  0.87680  0.70668  0.24627  1.0000
  N   N10       1.0  0.12315  0.20669  0.75373  1.0000
  N   N11       1.0  0.53484  0.84288  0.31691  1.0000
  N   N12       1.0  0.46519  0.34289  0.68310  1.0000
  O   O1        1.0  0.14473  0.04619  0.06201  1.0000
  O   O2        1.0  0.85519  0.54623  0.93801  1.0000
  O   O3        1.0  0.46416  0.45170  0.30312  1.0000
  O   O4        1.0  0.53587  0.95168  0.69686  1.0000
  O   O5        1.0  0.24393  0.42915  0.16605  1.0000
  O   O6        1.0  0.75610  0.92917  0.83394  1.0000
  O   O7        1.0  0.57051  0.81606  0.15104  1.0000
  O   O8        1.0  0.42946  0.31608  0.84896  1.0000
  O   O9        1.0  0.13432  0.61774  0.52364  1.0000
  O   O10       1.0  0.86567  0.11774  0.47636  1.0000
  O   O11       1.0  0.79604  0.71018  0.58516  1.0000
  O   O12       1.0  0.20401  0.21017  0.41484  1.0000
