data_image0
_chemical_formula_structural       Zn4H40C56O20
_chemical_formula_sum              "Zn4 H40 C56 O20"
_cell_length_a       5.77194
_cell_length_b       12.8603
_cell_length_c       16.9814
_cell_angle_alpha    103.705
_cell_angle_beta     90.0015
_cell_angle_gamma    89.999

_space_group_name_H-M_alt    "P 1"
_space_group_IT_number       1

loop_
  _space_group_symop_operation_xyz
  'x, y, z'

loop_
  _atom_site_type_symbol
  _atom_site_label
  _atom_site_symmetry_multiplicity
  _atom_site_fract_x
  _atom_site_fract_y
  _atom_site_fract_z
  _atom_site_occupancy
  Zn  Zn1       1.0  0.02853  0.94068  0.88765  1.0000
  Zn  Zn2       1.0  0.52857  0.05933  0.61236  1.0000
  Zn  Zn3       1.0  0.97147  0.05933  0.11235  1.0000
  Zn  Zn4       1.0  0.47146  0.94067  0.38765  1.0000
  H   H1        1.0  0.80812  0.55125  0.91416  1.0000
  H   H2        1.0  0.30816  0.44875  0.58584  1.0000
  H   H3        1.0  0.19188  0.44876  0.08585  1.0000
  H   H4        1.0  0.69186  0.55124  0.41415  1.0000
  H   H5        1.0  0.05251  0.50269  0.79018  1.0000
  H   H6        1.0  0.55255  0.49731  0.70982  1.0000
  H   H7        1.0  0.94749  0.49731  0.20982  1.0000
  H   H8        1.0  0.44750  0.50268  0.29017  1.0000
  H   H9        1.0  0.01342  0.60511  0.68326  1.0000
  H   H10       1.0  0.51348  0.39490  0.81674  1.0000
  H   H11       1.0  0.98661  0.39491  0.31675  1.0000
  H   H12       1.0  0.48656  0.60511  0.18326  1.0000
  H   H13       1.0  0.71554  0.74720  0.69786  1.0000
  H   H14       1.0  0.21560  0.25282  0.80214  1.0000
  H   H15       1.0  0.28450  0.25282  0.30214  1.0000
  H   H16       1.0  0.78443  0.74720  0.19787  1.0000
  H   H17       1.0  0.29211  0.55821  0.91790  1.0000
  H   H18       1.0  0.79207  0.44177  0.58210  1.0000
  H   H19       1.0  0.70791  0.44177  0.08209  1.0000
  H   H20       1.0  0.20787  0.55822  0.41790  1.0000
  H   H21       1.0  0.05485  0.59266  0.04409  1.0000
  H   H22       1.0  0.55487  0.40733  0.45590  1.0000
  H   H23       1.0  0.94514  0.40732  0.95590  1.0000
  H   H24       1.0  0.44514  0.59265  0.54409  1.0000
  H   H25       1.0  0.13300  0.75559  0.15443  1.0000
  H   H26       1.0  0.63303  0.24441  0.34555  1.0000
  H   H27       1.0  0.86700  0.24439  0.84556  1.0000
  H   H28       1.0  0.36702  0.75556  0.65444  1.0000
  H   H29       1.0  0.45169  0.87766  0.13913  1.0000
  H   H30       1.0  0.95170  0.12233  0.36087  1.0000
  H   H31       1.0  0.54830  0.12232  0.86086  1.0000
  H   H32       1.0  0.04833  0.87765  0.63915  1.0000
  H   H33       1.0  0.88357  0.01466  0.76233  1.0000
  H   H34       1.0  0.38359  0.98533  0.73768  1.0000
  H   H35       1.0  0.11642  0.98534  0.23768  1.0000
  H   H36       1.0  0.61642  0.01468  0.26234  1.0000
  H   H37       1.0  0.71427  0.92101  0.77794  1.0000
  H   H38       1.0  0.21427  0.07898  0.72206  1.0000
  H   H39       1.0  0.28572  0.07899  0.22207  1.0000
  H   H40       1.0  0.78573  0.92103  0.27794  1.0000
  C   C1        1.0  0.59181  0.72899  0.81375  1.0000
  C   C2        1.0  0.09185  0.27101  0.68625  1.0000
  C   C3        1.0  0.40818  0.27101  0.18625  1.0000
  C   C4        1.0  0.90816  0.72900  0.31376  1.0000
  C   C5        1.0  0.62305  0.67546  0.87650  1.0000
  C   C6        1.0  0.12308  0.32455  0.62350  1.0000
  C   C7        1.0  0.37693  0.32454  0.12350  1.0000
  C   C8        1.0  0.87691  0.67547  0.37650  1.0000
  C   C9        1.0  0.78720  0.59330  0.86597  1.0000
  C   C10       1.0  0.28724  0.40670  0.63403  1.0000
  C   C11       1.0  0.21279  0.40670  0.13403  1.0000
  C   C12       1.0  0.71278  0.59331  0.36597  1.0000
  C   C13       1.0  0.92527  0.56664  0.79675  1.0000
  C   C14       1.0  0.42531  0.43337  0.70324  1.0000
  C   C15       1.0  0.07474  0.43337  0.20325  1.0000
  C   C16       1.0  0.57471  0.56663  0.29675  1.0000
  C   C17       1.0  0.90151  0.62299  0.73646  1.0000
  C   C18       1.0  0.40156  0.37702  0.76354  1.0000
  C   C19       1.0  0.09850  0.37703  0.26354  1.0000
  C   C20       1.0  0.59847  0.62299  0.23646  1.0000
  C   C21       1.0  0.73428  0.70298  0.74486  1.0000
  C   C22       1.0  0.23432  0.29704  0.75514  1.0000
  C   C23       1.0  0.26574  0.29704  0.25514  1.0000
  C   C24       1.0  0.76570  0.70298  0.24487  1.0000
  C   C25       1.0  0.49217  0.70209  0.95419  1.0000
  C   C26       1.0  0.99221  0.29791  0.54580  1.0000
  C   C27       1.0  0.50780  0.29790  0.04580  1.0000
  C   C28       1.0  0.00778  0.70209  0.45420  1.0000
  C   C29       1.0  0.32353  0.62911  0.96641  1.0000
  C   C30       1.0  0.82353  0.37088  0.53359  1.0000
  C   C31       1.0  0.67647  0.37088  0.03358  1.0000
  C   C32       1.0  0.17644  0.62911  0.46641  1.0000
  C   C33       1.0  0.19242  0.64809  0.03726  1.0000
  C   C34       1.0  0.69244  0.35191  0.46273  1.0000
  C   C35       1.0  0.80756  0.35190  0.96273  1.0000
  C   C36       1.0  0.30755  0.64807  0.53726  1.0000
  C   C37       1.0  0.23527  0.73870  0.09916  1.0000
  C   C38       1.0  0.73530  0.26130  0.40083  1.0000
  C   C39       1.0  0.76472  0.26128  0.90083  1.0000
  C   C40       1.0  0.26472  0.73869  0.59917  1.0000
  C   C41       1.0  0.41149  0.80872  0.09003  1.0000
  C   C42       1.0  0.91152  0.19128  0.40996  1.0000
  C   C43       1.0  0.58849  0.19128  0.90996  1.0000
  C   C44       1.0  0.08849  0.80870  0.59005  1.0000
  C   C45       1.0  0.53950  0.79262  0.01785  1.0000
  C   C46       1.0  0.03956  0.20738  0.48214  1.0000
  C   C47       1.0  0.46045  0.20738  0.98213  1.0000
  C   C48       1.0  0.96044  0.79261  0.51787  1.0000
  C   C49       1.0  0.41785  0.81699  0.82049  1.0000
  C   C50       1.0  0.91788  0.18302  0.67952  1.0000
  C   C51       1.0  0.58215  0.18301  0.17951  1.0000
  C   C52       1.0  0.08213  0.81699  0.32049  1.0000
  C   C53       1.0  0.72071  0.87449  0.01326  1.0000
  C   C54       1.0  0.22076  0.12552  0.48673  1.0000
  C   C55       1.0  0.27924  0.12552  0.98674  1.0000
  C   C56       1.0  0.77924  0.87448  0.51327  1.0000
  O   O1        1.0  0.24310  0.81827  0.86695  1.0000
  O   O2        1.0  0.74310  0.18175  0.63307  1.0000
  O   O3        1.0  0.75690  0.18173  0.13306  1.0000
  O   O4        1.0  0.25690  0.81826  0.36694  1.0000
  O   O5        1.0  0.45294  0.88592  0.77890  1.0000
  O   O6        1.0  0.95296  0.11410  0.72111  1.0000
  O   O7        1.0  0.54705  0.11409  0.22112  1.0000
  O   O8        1.0  0.04706  0.88591  0.27890  1.0000
  O   O9        1.0  0.76446  0.89456  0.94478  1.0000
  O   O10       1.0  0.26449  0.10543  0.55521  1.0000
  O   O11       1.0  0.23550  0.10543  0.05519  1.0000
  O   O12       1.0  0.73552  0.89458  0.44482  1.0000
  O   O13       1.0  0.81540  0.92114  0.08032  1.0000
  O   O14       1.0  0.31546  0.07887  0.41968  1.0000
  O   O15       1.0  0.18450  0.07887  0.91966  1.0000
  O   O16       1.0  0.68450  0.92112  0.58035  1.0000
  O   O17       1.0  0.87843  0.94924  0.78399  1.0000
  O   O18       1.0  0.37843  0.05075  0.71601  1.0000
  O   O19       1.0  0.12157  0.05076  0.21601  1.0000
  O   O20       1.0  0.62158  0.94925  0.28400  1.0000
