data_image0
_chemical_formula_structural       Hg2H20C12N4F12
_chemical_formula_sum              "Hg2 H20 C12 N4 F12"
_cell_length_a       7.78516
_cell_length_b       8.95488
_cell_length_c       9.37222
_cell_angle_alpha    61.4633
_cell_angle_beta     83.9171
_cell_angle_gamma    77.1882

_space_group_name_H-M_alt    "P 1"
_space_group_IT_number       1

loop_
  _space_group_symop_operation_xyz
  'x, y, z'

loop_
  _atom_site_type_symbol
  _atom_site_label
  _atom_site_symmetry_multiplicity
  _atom_site_fract_x
  _atom_site_fract_y
  _atom_site_fract_z
  _atom_site_occupancy
  Hg  Hg1       1.0  0.25003  0.39723  0.20551  1.0000
  Hg  Hg2       1.0  0.74997  0.60277  0.79448  1.0000
  H   H1        1.0  0.24912  0.02327  0.47838  1.0000
  H   H2        1.0  0.25089  0.49834  0.47837  1.0000
  H   H3        1.0  0.75088  0.97673  0.52162  1.0000
  H   H4        1.0  0.74911  0.50166  0.52163  1.0000
  H   H5        1.0  0.15029  0.02131  0.24926  1.0000
  H   H6        1.0  0.34971  0.72942  0.24927  1.0000
  H   H7        1.0  0.84971  0.97869  0.75074  1.0000
  H   H8        1.0  0.65029  0.27058  0.75073  1.0000
  H   H9        1.0  0.94373  0.14451  0.26332  1.0000
  H   H10       1.0  0.55628  0.59218  0.26331  1.0000
  H   H11       1.0  0.05627  0.85549  0.73668  1.0000
  H   H12       1.0  0.44372  0.40782  0.73669  1.0000
  H   H13       1.0  0.90425  0.23108  0.48992  1.0000
  H   H14       1.0  0.59575  0.27901  0.48990  1.0000
  H   H15       1.0  0.09575  0.76892  0.51008  1.0000
  H   H16       1.0  0.40425  0.72100  0.51010  1.0000
  H   H17       1.0  0.08520  0.16116  0.62204  1.0000
  H   H18       1.0  0.41479  0.21681  0.62203  1.0000
  H   H19       1.0  0.91480  0.83884  0.37796  1.0000
  H   H20       1.0  0.58521  0.78320  0.37797  1.0000
  C   C1        1.0  0.00818  0.57648  0.18447  1.0000
  C   C2        1.0  0.49187  0.23904  0.18446  1.0000
  C   C3        1.0  0.99182  0.42352  0.81553  1.0000
  C   C4        1.0  0.50813  0.76096  0.81553  1.0000
  C   C5        1.0  0.05346  0.04201  0.33567  1.0000
  C   C6        1.0  0.44655  0.62232  0.33567  1.0000
  C   C7        1.0  0.94654  0.95799  0.66433  1.0000
  C   C8        1.0  0.55345  0.37768  0.66433  1.0000
  C   C9        1.0  0.01560  0.12365  0.55190  1.0000
  C   C10       1.0  0.48440  0.32445  0.55189  1.0000
  C   C11       1.0  0.98440  0.87635  0.44809  1.0000
  C   C12       1.0  0.51560  0.67555  0.44811  1.0000
  N   N1        1.0  0.13432  0.10657  0.42526  1.0000
  N   N2        1.0  0.36569  0.46818  0.42525  1.0000
  N   N3        1.0  0.86568  0.89343  0.57474  1.0000
  N   N4        1.0  0.63431  0.53182  0.57475  1.0000
  F   F1        1.0  0.00864  0.74494  0.06899  1.0000
  F   F2        1.0  0.49144  0.18610  0.06895  1.0000
  F   F3        1.0  0.99136  0.25506  0.93102  1.0000
  F   F4        1.0  0.50856  0.81389  0.93105  1.0000
  F   F5        1.0  0.96305  0.58540  0.32878  1.0000
  F   F6        1.0  0.53698  0.08580  0.32876  1.0000
  F   F7        1.0  0.03695  0.41460  0.67123  1.0000
  F   F8        1.0  0.46302  0.91421  0.67124  1.0000
  F   F9        1.0  0.86411  0.53323  0.14951  1.0000
  F   F10       1.0  0.63592  0.31726  0.14953  1.0000
  F   F11       1.0  0.13589  0.46677  0.85048  1.0000
  F   F12       1.0  0.36408  0.68273  0.85047  1.0000
