data_image0
_chemical_formula_structural       Hg2H10C8S4N6
_chemical_formula_sum              "Hg2 H10 C8 S4 N6"
_cell_length_a       5.79697
_cell_length_b       7.41765
_cell_length_c       9.66318
_cell_angle_alpha    94.3493
_cell_angle_beta     81.6437
_cell_angle_gamma    78.3319

_space_group_name_H-M_alt    "P 1"
_space_group_IT_number       1

loop_
  _space_group_symop_operation_xyz
  'x, y, z'

loop_
  _atom_site_type_symbol
  _atom_site_label
  _atom_site_symmetry_multiplicity
  _atom_site_fract_x
  _atom_site_fract_y
  _atom_site_fract_z
  _atom_site_occupancy
  Hg  Hg1       1.0  0.18297  0.67343  0.16725  1.0000
  Hg  Hg2       1.0  0.81702  0.32657  0.83275  1.0000
  H   H1        1.0  0.91000  0.77127  0.42159  1.0000
  H   H2        1.0  0.08998  0.22872  0.57842  1.0000
  H   H3        1.0  0.34845  0.91441  0.42763  1.0000
  H   H4        1.0  0.65154  0.08558  0.57238  1.0000
  H   H5        1.0  0.28786  0.70773  0.49229  1.0000
  H   H6        1.0  0.71212  0.29226  0.50771  1.0000
  H   H7        1.0  0.76043  0.03636  0.31106  1.0000
  H   H8        1.0  0.23956  0.96363  0.68894  1.0000
  H   H9        1.0  0.02998  0.11289  0.31957  1.0000
  H   H10       1.0  0.97002  0.88711  0.68044  1.0000
  C   C1        1.0  0.67206  0.83543  0.08408  1.0000
  C   C2        1.0  0.32795  0.16457  0.91591  1.0000
  C   C3        1.0  0.64562  0.48782  0.29118  1.0000
  C   C4        1.0  0.35440  0.51223  0.70883  1.0000
  C   C5        1.0  0.20799  0.85157  0.48056  1.0000
  C   C6        1.0  0.79201  0.14844  0.51947  1.0000
  C   C7        1.0  0.90060  0.04230  0.37538  1.0000
  C   C8        1.0  0.09936  0.95772  0.62464  1.0000
  S   S1        1.0  0.93577  0.77040  0.98371  1.0000
  S   S2        1.0  0.06428  0.22958  0.01627  1.0000
  S   S3        1.0  0.46955  0.38624  0.20664  1.0000
  S   S4        1.0  0.53037  0.61374  0.79333  1.0000
  N   N1        1.0  0.47916  0.88307  0.15209  1.0000
  N   N2        1.0  0.52086  0.11694  0.84788  1.0000
  N   N3        1.0  0.77544  0.55333  0.35291  1.0000
  N   N4        1.0  0.22462  0.44668  0.64713  1.0000
  N   N5        1.0  0.02758  0.85209  0.38752  1.0000
  N   N6        1.0  0.97243  0.14789  0.61246  1.0000
