data_image0
_chemical_formula_structural       Mn2H44C64S2N8O12
_chemical_formula_sum              "Mn2 H44 C64 S2 N8 O12"
_cell_length_a       10.0716
_cell_length_b       12.3078
_cell_length_c       13.7986
_cell_angle_alpha    73.0433
_cell_angle_beta     68.5949
_cell_angle_gamma    65.8521

_space_group_name_H-M_alt    "P 1"
_space_group_IT_number       1

loop_
  _space_group_symop_operation_xyz
  'x, y, z'

loop_
  _atom_site_type_symbol
  _atom_site_label
  _atom_site_symmetry_multiplicity
  _atom_site_fract_x
  _atom_site_fract_y
  _atom_site_fract_z
  _atom_site_occupancy
  Mn  Mn1       1.0  0.04644  0.39628  0.38712  1.0000
  Mn  Mn2       1.0  0.17019  0.89622  0.88700  1.0000
  H   H1        1.0  0.47156  0.33983  0.30898  1.0000
  H   H2        1.0  0.87943  0.84013  0.80912  1.0000
  H   H3        1.0  0.74427  0.44427  0.93336  1.0000
  H   H4        1.0  0.87796  0.94399  0.43354  1.0000
  H   H5        1.0  0.92763  0.08563  0.14373  1.0000
  H   H6        1.0  0.84335  0.58548  0.64386  1.0000
  H   H7        1.0  0.36775  0.54312  0.84701  1.0000
  H   H8        1.0  0.24207  0.04322  0.34707  1.0000
  H   H9        1.0  0.52272  0.14748  0.76299  1.0000
  H   H10       1.0  0.56674  0.64742  0.26298  1.0000
  H   H11       1.0  0.39835  0.55055  0.21834  1.0000
  H   H12       1.0  0.83252  0.05077  0.71827  1.0000
  H   H13       1.0  0.35840  0.13655  0.66891  1.0000
  H   H14       1.0  0.83615  0.63630  0.16887  1.0000
  H   H15       1.0  0.43473  0.17078  0.12035  1.0000
  H   H16       1.0  0.27423  0.67059  0.62011  1.0000
  H   H17       1.0  0.81898  0.23241  0.02429  1.0000
  H   H18       1.0  0.92445  0.73216  0.52457  1.0000
  H   H19       1.0  0.98790  0.68185  0.26172  1.0000
  H   H20       1.0  0.06888  0.18187  0.76164  1.0000
  H   H21       1.0  0.57701  0.79062  0.50421  1.0000
  H   H22       1.0  0.12821  0.29028  0.00451  1.0000
  H   H23       1.0  0.98057  0.87241  0.22376  1.0000
  H   H24       1.0  0.92363  0.37228  0.72388  1.0000
  H   H25       1.0  0.19249  0.54604  0.03114  1.0000
  H   H26       1.0  0.23022  0.04594  0.53129  1.0000
  H   H27       1.0  0.72954  0.65346  0.91404  1.0000
  H   H28       1.0  0.70289  0.15344  0.41391  1.0000
  H   H29       1.0  0.50886  0.95052  0.40109  1.0000
  H   H30       1.0  0.13982  0.45046  0.90127  1.0000
  H   H31       1.0  0.27383  0.67144  0.07350  1.0000
  H   H32       1.0  0.98118  0.17134  0.57339  1.0000
  H   H33       1.0  0.45413  0.16285  0.31688  1.0000
  H   H34       1.0  0.06622  0.66282  0.81712  1.0000
  H   H35       1.0  0.71543  0.54315  0.54530  1.0000
  H   H36       1.0  0.19596  0.04286  0.04539  1.0000
  H   H37       1.0  0.33682  0.48951  0.49121  1.0000
  H   H38       1.0  0.68266  0.98919  0.99103  1.0000
  H   H39       1.0  0.53362  0.86390  0.82902  1.0000
  H   H40       1.0  0.77367  0.36375  0.32877  1.0000
  H   H41       1.0  0.60952  0.16546  0.93439  1.0000
  H   H42       1.0  0.29087  0.66549  0.43403  1.0000
  H   H43       1.0  0.49673  0.50527  0.58750  1.0000
  H   H44       1.0  0.41065  0.00517  0.08732  1.0000
  C   C1        1.0  0.30320  0.35764  0.08505  1.0000
  C   C2        1.0  0.25398  0.85751  0.58503  1.0000
  C   C3        1.0  0.33619  0.31417  0.57647  1.0000
  C   C4        1.0  0.77326  0.81387  0.07628  1.0000
  C   C5        1.0  0.51641  0.32826  0.68091  1.0000
  C   C6        1.0  0.47448  0.82818  0.18083  1.0000
  C   C7        1.0  0.53434  0.36133  0.22704  1.0000
  C   C8        1.0  0.87706  0.86147  0.72721  1.0000
  C   C9        1.0  0.56839  0.51022  0.07063  1.0000
  C   C10       1.0  0.85062  0.01017  0.57067  1.0000
  C   C11       1.0  0.68696  0.14152  0.22404  1.0000
  C   C12       1.0  0.94749  0.64150  0.72435  1.0000
  C   C13       1.0  0.68902  0.42128  0.01682  1.0000
  C   C14       1.0  0.87279  0.92111  0.51697  1.0000
  C   C15       1.0  0.83400  0.05652  0.19836  1.0000
  C   C16       1.0  0.91139  0.55644  0.69856  1.0000
  C   C17       1.0  0.38066  0.46124  0.90633  1.0000
  C   C18       1.0  0.25173  0.96129  0.40634  1.0000
  C   C19       1.0  0.48125  0.22280  0.70397  1.0000
  C   C20       1.0  0.59197  0.72269  0.20393  1.0000
  C   C21       1.0  0.65250  0.26955  0.17371  1.0000
  C   C22       1.0  0.90412  0.76954  0.67399  1.0000
  C   C23       1.0  0.49180  0.48084  0.17644  1.0000
  C   C24       1.0  0.85070  0.98095  0.67649  1.0000
  C   C25       1.0  0.39052  0.21626  0.65154  1.0000
  C   C26       1.0  0.74171  0.71602  0.15146  1.0000
  C   C27       1.0  0.41980  0.25007  0.05883  1.0000
  C   C28       1.0  0.27131  0.74997  0.55868  1.0000
  C   C29       1.0  0.73047  0.30233  0.06839  1.0000
  C   C30       1.0  0.89873  0.80219  0.56865  1.0000
  C   C31       1.0  0.74772  0.89673  0.31816  1.0000
  C   C32       1.0  0.03779  0.39660  0.81829  1.0000
  C   C33       1.0  0.22754  0.31296  0.52592  1.0000
  C   C34       1.0  0.93371  0.81265  0.02576  1.0000
  C   C35       1.0  0.49497  0.35225  0.88171  1.0000
  C   C36       1.0  0.27102  0.85235  0.38160  1.0000
  C   C37       1.0  0.89834  0.67669  0.33473  1.0000
  C   C38       1.0  0.09050  0.17663  0.83472  1.0000
  C   C39       1.0  0.68137  0.73140  0.46034  1.0000
  C   C40       1.0  0.12695  0.23117  0.96050  1.0000
  C   C41       1.0  0.86503  0.93525  0.24429  1.0000
  C   C42       1.0  0.95586  0.43514  0.74440  1.0000
  C   C43       1.0  0.20414  0.36054  0.19639  1.0000
  C   C44       1.0  0.23883  0.86034  0.69635  1.0000
  C   C45       1.0  0.28375  0.46298  0.00884  1.0000
  C   C46       1.0  0.24438  0.96291  0.50888  1.0000
  C   C47       1.0  0.60701  0.68916  0.93346  1.0000
  C   C48       1.0  0.77035  0.18911  0.43336  1.0000
  C   C49       1.0  0.60111  0.97991  0.34511  1.0000
  C   C50       1.0  0.07414  0.47982  0.84532  1.0000
  C   C51       1.0  0.36971  0.69697  0.01960  1.0000
  C   C52       1.0  0.91370  0.19691  0.51948  1.0000
  C   C53       1.0  0.57080  0.10064  0.29841  1.0000
  C   C54       1.0  0.03024  0.60060  0.79868  1.0000
  C   C55       1.0  0.75103  0.60886  0.47961  1.0000
  C   C56       1.0  0.16048  0.10865  0.97968  1.0000
  C   C57       1.0  0.37797  0.41646  0.55151  1.0000
  C   C58       1.0  0.65417  0.91615  0.05130  1.0000
  C   C59       1.0  0.50852  0.79280  0.89292  1.0000
  C   C60       1.0  0.80581  0.29270  0.39277  1.0000
  C   C61       1.0  0.51570  0.24683  0.95664  1.0000
  C   C62       1.0  0.28092  0.74683  0.45643  1.0000
  C   C63       1.0  0.46669  0.42491  0.60428  1.0000
  C   C64       1.0  0.50422  0.92476  0.10412  1.0000
  S   S1        1.0  0.62053  0.34501  0.75250  1.0000
  S   S2        1.0  0.28198  0.84512  0.25241  1.0000
  N   N1        1.0  0.77583  0.77411  0.36820  1.0000
  N   N2        1.0  0.08215  0.27397  0.86830  1.0000
  N   N3        1.0  0.88578  0.57590  0.40094  1.0000
  N   N4        1.0  0.13749  0.07578  0.90093  1.0000
  N   N5        1.0  0.51750  0.62911  0.01398  1.0000
  N   N6        1.0  0.83933  0.12906  0.51391  1.0000
  N   N7        1.0  0.36073  0.79638  0.94673  1.0000
  N   N8        1.0  0.89626  0.29627  0.44656  1.0000
  O   O1        1.0  0.64238  0.46102  0.70858  1.0000
  O   O2        1.0  0.18817  0.96116  0.20846  1.0000
  O   O3        1.0  0.75183  0.23616  0.75883  1.0000
  O   O4        1.0  0.25313  0.73631  0.25869  1.0000
  O   O5        1.0  0.10085  0.46098  0.21936  1.0000
  O   O6        1.0  0.21833  0.96090  0.71933  1.0000
  O   O7        1.0  0.22595  0.26605  0.26610  1.0000
  O   O8        1.0  0.24229  0.76577  0.76600  1.0000
  O   O9        1.0  0.15934  0.23796  0.56590  1.0000
  O   O10       1.0  0.03679  0.73772  0.06589  1.0000
  O   O11       1.0  0.20871  0.39448  0.44328  1.0000
  O   O12       1.0  0.95376  0.89409  0.94307  1.0000
