data_image0
_chemical_formula_structural       Sm4H32C44N12O28
_chemical_formula_sum              "Sm4 H32 C44 N12 O28"
_cell_length_a       6.84947
_cell_length_b       10.0635
_cell_length_c       18.4609
_cell_angle_alpha    90
_cell_angle_beta     93.5953
_cell_angle_gamma    90.0001

_space_group_name_H-M_alt    "P 1"
_space_group_IT_number       1

loop_
  _space_group_symop_operation_xyz
  'x, y, z'

loop_
  _atom_site_type_symbol
  _atom_site_label
  _atom_site_symmetry_multiplicity
  _atom_site_fract_x
  _atom_site_fract_y
  _atom_site_fract_z
  _atom_site_occupancy
  Sm  Sm1       1.0  0.10997  0.99714  0.37553  1.0000
  Sm  Sm2       1.0  0.89003  0.49714  0.12447  1.0000
  Sm  Sm3       1.0  0.89003  0.00286  0.62447  1.0000
  Sm  Sm4       1.0  0.10997  0.50286  0.87553  1.0000
  H   H1        1.0  0.85647  0.57232  0.37689  1.0000
  H   H2        1.0  0.14353  0.07232  0.12311  1.0000
  H   H3        1.0  0.14353  0.42767  0.62311  1.0000
  H   H4        1.0  0.85647  0.92768  0.87689  1.0000
  H   H5        1.0  0.74427  0.65722  0.59920  1.0000
  H   H6        1.0  0.25573  0.15722  0.90080  1.0000
  H   H7        1.0  0.25573  0.34278  0.40080  1.0000
  H   H8        1.0  0.74427  0.84278  0.09920  1.0000
  H   H9        1.0  0.65184  0.41714  0.61286  1.0000
  H   H10       1.0  0.34816  0.91714  0.88714  1.0000
  H   H11       1.0  0.34816  0.58286  0.38714  1.0000
  H   H12       1.0  0.65184  0.08286  0.11286  1.0000
  H   H13       1.0  0.75990  0.33565  0.39944  1.0000
  H   H14       1.0  0.24010  0.83565  0.10056  1.0000
  H   H15       1.0  0.24010  0.66435  0.60056  1.0000
  H   H16       1.0  0.75990  0.16435  0.89944  1.0000
  H   H17       1.0  0.69199  0.70421  0.24067  1.0000
  H   H18       1.0  0.30801  0.20421  0.25932  1.0000
  H   H19       1.0  0.30801  0.29579  0.75933  1.0000
  H   H20       1.0  0.69199  0.79579  0.74068  1.0000
  H   H21       1.0  0.62429  0.84803  0.35165  1.0000
  H   H22       1.0  0.37571  0.34804  0.14834  1.0000
  H   H23       1.0  0.37572  0.15196  0.64834  1.0000
  H   H24       1.0  0.62429  0.65196  0.85166  1.0000
  H   H25       1.0  0.31266  0.93572  0.52120  1.0000
  H   H26       1.0  0.68734  0.43572  0.97880  1.0000
  H   H27       1.0  0.68735  0.06428  0.47881  1.0000
  H   H28       1.0  0.31266  0.56428  0.02120  1.0000
  H   H29       1.0  0.31661  0.79783  0.47969  1.0000
  H   H30       1.0  0.68339  0.29783  0.02031  1.0000
  H   H31       1.0  0.68339  0.20217  0.52031  1.0000
  H   H32       1.0  0.31662  0.70217  0.97969  1.0000
  C   C1        1.0  0.80707  0.63241  0.48662  1.0000
  C   C2        1.0  0.19293  0.13241  0.01337  1.0000
  C   C3        1.0  0.19293  0.36758  0.51337  1.0000
  C   C4        1.0  0.80707  0.86759  0.98662  1.0000
  C   C5        1.0  0.87899  0.77230  0.47708  1.0000
  C   C6        1.0  0.12100  0.27230  0.02292  1.0000
  C   C7        1.0  0.12100  0.22770  0.52292  1.0000
  C   C8        1.0  0.87899  0.72770  0.97708  1.0000
  C   C9        1.0  0.80858  0.54146  0.42947  1.0000
  C   C10       1.0  0.19141  0.04146  0.07053  1.0000
  C   C11       1.0  0.19141  0.45853  0.57053  1.0000
  C   C12       1.0  0.80858  0.95854  0.92947  1.0000
  C   C13       1.0  0.74730  0.58863  0.55365  1.0000
  C   C14       1.0  0.25270  0.08864  0.94635  1.0000
  C   C15       1.0  0.25269  0.41136  0.44635  1.0000
  C   C16       1.0  0.74730  0.91137  0.05365  1.0000
  C   C17       1.0  0.69619  0.45575  0.56112  1.0000
  C   C18       1.0  0.30381  0.95575  0.93888  1.0000
  C   C19       1.0  0.30381  0.54425  0.43888  1.0000
  C   C20       1.0  0.69619  0.04425  0.06112  1.0000
  C   C21       1.0  0.75516  0.41050  0.44203  1.0000
  C   C22       1.0  0.24485  0.91050  0.05797  1.0000
  C   C23       1.0  0.24484  0.58950  0.55797  1.0000
  C   C24       1.0  0.75516  0.08951  0.94203  1.0000
  C   C25       1.0  0.51313  0.80633  0.31391  1.0000
  C   C26       1.0  0.48687  0.30634  0.18609  1.0000
  C   C27       1.0  0.48687  0.19366  0.68609  1.0000
  C   C28       1.0  0.51313  0.69367  0.81392  1.0000
  C   C29       1.0  0.38114  0.68867  0.22180  1.0000
  C   C30       1.0  0.61886  0.18867  0.27820  1.0000
  C   C31       1.0  0.61886  0.31133  0.77820  1.0000
  C   C32       1.0  0.38114  0.81133  0.72180  1.0000
  C   C33       1.0  0.23549  0.75507  0.25689  1.0000
  C   C34       1.0  0.76451  0.25507  0.24311  1.0000
  C   C35       1.0  0.76451  0.24493  0.74311  1.0000
  C   C36       1.0  0.23549  0.74493  0.75689  1.0000
  C   C37       1.0  0.02188  0.77225  0.24314  1.0000
  C   C38       1.0  0.97812  0.27226  0.25685  1.0000
  C   C39       1.0  0.97812  0.22774  0.75686  1.0000
  C   C40       1.0  0.02188  0.72774  0.74315  1.0000
  C   C41       1.0  0.39114  0.60905  0.15465  1.0000
  C   C42       1.0  0.60885  0.10905  0.34535  1.0000
  C   C43       1.0  0.60885  0.39095  0.84535  1.0000
  C   C44       1.0  0.39115  0.89095  0.65465  1.0000
  N   N1        1.0  0.32106  0.82814  0.31365  1.0000
  N   N2        1.0  0.67894  0.32815  0.18635  1.0000
  N   N3        1.0  0.67894  0.17185  0.68635  1.0000
  N   N4        1.0  0.32106  0.67185  0.81365  1.0000
  N   N5        1.0  0.70096  0.36759  0.50664  1.0000
  N   N6        1.0  0.29904  0.86760  0.99336  1.0000
  N   N7        1.0  0.29903  0.63240  0.49336  1.0000
  N   N8        1.0  0.70096  0.13241  0.00664  1.0000
  N   N9        1.0  0.55362  0.72445  0.25913  1.0000
  N   N10       1.0  0.44638  0.22445  0.24087  1.0000
  N   N11       1.0  0.44638  0.27555  0.74087  1.0000
  N   N12       1.0  0.55363  0.77555  0.75913  1.0000
  O   O1        1.0  0.95069  0.87768  0.26846  1.0000
  O   O2        1.0  0.04931  0.37769  0.23154  1.0000
  O   O3        1.0  0.04931  0.12232  0.73154  1.0000
  O   O4        1.0  0.95069  0.62232  0.76846  1.0000
  O   O5        1.0  0.93108  0.80512  0.41484  1.0000
  O   O6        1.0  0.06890  0.30512  0.08516  1.0000
  O   O7        1.0  0.06891  0.19488  0.58516  1.0000
  O   O8        1.0  0.93109  0.69488  0.91484  1.0000
  O   O9        1.0  0.91882  0.68291  0.20923  1.0000
  O   O10       1.0  0.08118  0.18291  0.29077  1.0000
  O   O11       1.0  0.08118  0.31709  0.79077  1.0000
  O   O12       1.0  0.91882  0.81709  0.70923  1.0000
  O   O13       1.0  0.31628  0.89767  0.47219  1.0000
  O   O14       1.0  0.68372  0.39767  0.02781  1.0000
  O   O15       1.0  0.68372  0.10233  0.52781  1.0000
  O   O16       1.0  0.31628  0.60233  0.97219  1.0000
  O   O17       1.0  0.23358  0.56867  0.12112  1.0000
  O   O18       1.0  0.76642  0.06868  0.37888  1.0000
  O   O19       1.0  0.76642  0.43133  0.87887  1.0000
  O   O20       1.0  0.23358  0.93132  0.62113  1.0000
  O   O21       1.0  0.56139  0.58935  0.13380  1.0000
  O   O22       1.0  0.43860  0.08935  0.36620  1.0000
  O   O23       1.0  0.43860  0.41065  0.86620  1.0000
  O   O24       1.0  0.56140  0.91065  0.63380  1.0000
  O   O25       1.0  0.88726  0.84760  0.53219  1.0000
  O   O26       1.0  0.11274  0.34760  0.96781  1.0000
  O   O27       1.0  0.11273  0.15240  0.46781  1.0000
  O   O28       1.0  0.88726  0.65240  0.03219  1.0000
