data_image0
_chemical_formula_structural       NiH30C30N6O6
_chemical_formula_sum              "Ni1 H30 C30 N6 O6"
_cell_length_a       8.4025
_cell_length_b       9.75883
_cell_length_c       9.6587
_cell_angle_alpha    59.0382
_cell_angle_beta     85.6838
_cell_angle_gamma    85.2578

_space_group_name_H-M_alt    "P 1"
_space_group_IT_number       1

loop_
  _space_group_symop_operation_xyz
  'x, y, z'

loop_
  _atom_site_type_symbol
  _atom_site_label
  _atom_site_symmetry_multiplicity
  _atom_site_fract_x
  _atom_site_fract_y
  _atom_site_fract_z
  _atom_site_occupancy
  Ni  Ni1       1.0  0.50000  0.50000  0.50000  1.0000
  H   H1        1.0  0.21023  0.63548  0.04786  1.0000
  H   H2        1.0  0.78977  0.36450  0.95214  1.0000
  H   H3        1.0  0.23701  0.43411  0.10592  1.0000
  H   H4        1.0  0.76299  0.56586  0.89410  1.0000
  H   H5        1.0  0.40660  0.63956  0.86181  1.0000
  H   H6        1.0  0.59340  0.36041  0.13820  1.0000
  H   H7        1.0  0.51908  0.65347  0.00228  1.0000
  H   H8        1.0  0.48092  0.34650  0.99773  1.0000
  H   H9        1.0  0.38664  0.20938  0.76573  1.0000
  H   H10       1.0  0.61337  0.79061  0.23428  1.0000
  H   H11       1.0  0.43749  0.91691  0.85828  1.0000
  H   H12       1.0  0.56251  0.08308  0.14172  1.0000
  H   H13       1.0  0.63159  0.83921  0.69873  1.0000
  H   H14       1.0  0.36842  0.16079  0.30127  1.0000
  H   H15       1.0  0.70281  0.34338  0.37321  1.0000
  H   H16       1.0  0.29718  0.65663  0.62678  1.0000
  H   H17       1.0  0.06907  0.71419  0.35678  1.0000
  H   H18       1.0  0.93093  0.28582  0.64321  1.0000
  H   H19       1.0  0.24020  0.84312  0.10503  1.0000
  H   H20       1.0  0.75981  0.15691  0.89496  1.0000
  H   H21       1.0  0.23366  0.13857  0.92730  1.0000
  H   H22       1.0  0.76634  0.86146  0.07270  1.0000
  H   H23       1.0  0.06672  0.31523  0.99729  1.0000
  H   H24       1.0  0.93327  0.68479  0.00271  1.0000
  H   H25       1.0  0.95270  0.50736  0.34504  1.0000
  H   H26       1.0  0.04730  0.49265  0.65496  1.0000
  H   H27       1.0  0.82739  0.56206  0.43884  1.0000
  H   H28       1.0  0.17261  0.43795  0.56116  1.0000
  H   H29       1.0  0.83070  0.80175  0.53148  1.0000
  H   H30       1.0  0.16930  0.19826  0.46851  1.0000
  C   C1        1.0  0.31806  0.49312  0.27162  1.0000
  C   C2        1.0  0.68194  0.50687  0.72839  1.0000
  C   C3        1.0  0.29825  0.53302  0.09910  1.0000
  C   C4        1.0  0.70175  0.46695  0.90091  1.0000
  C   C5        1.0  0.44739  0.57330  0.98655  1.0000
  C   C6        1.0  0.55262  0.42667  0.01346  1.0000
  C   C7        1.0  0.46845  0.16800  0.70068  1.0000
  C   C8        1.0  0.53155  0.83199  0.29933  1.0000
  C   C9        1.0  0.49861  0.00763  0.74985  1.0000
  C   C10       1.0  0.50139  0.99237  0.25015  1.0000
  C   C11       1.0  0.60672  0.96493  0.65998  1.0000
  C   C12       1.0  0.39329  0.03507  0.34002  1.0000
  C   C13       1.0  0.68230  0.08573  0.52100  1.0000
  C   C14       1.0  0.31770  0.91427  0.47900  1.0000
  C   C15       1.0  0.64448  0.24529  0.47779  1.0000
  C   C16       1.0  0.35551  0.75471  0.52221  1.0000
  C   C17       1.0  0.79934  0.06087  0.41600  1.0000
  C   C18       1.0  0.20066  0.93913  0.58400  1.0000
  C   C19       1.0  0.96853  0.94423  0.31564  1.0000
  C   C20       1.0  0.03146  0.05579  0.68436  1.0000
  C   C21       1.0  0.06731  0.84357  0.27961  1.0000
  C   C22       1.0  0.93269  0.15644  0.72038  1.0000
  C   C23       1.0  0.16271  0.91730  0.13869  1.0000
  C   C24       1.0  0.83729  0.08271  0.86130  1.0000
  C   C25       1.0  0.16122  0.08496  0.03870  1.0000
  C   C26       1.0  0.83878  0.91506  0.96129  1.0000
  C   C27       1.0  0.06612  0.18567  0.07608  1.0000
  C   C28       1.0  0.93388  0.81434  0.92392  1.0000
  C   C29       1.0  0.96743  0.11413  0.21659  1.0000
  C   C30       1.0  0.03256  0.88588  0.78341  1.0000
  N   N1        1.0  0.54056  0.28388  0.56577  1.0000
  N   N2        1.0  0.45943  0.71612  0.43423  1.0000
  N   N3        1.0  0.86049  0.91453  0.44177  1.0000
  N   N4        1.0  0.13951  0.08548  0.55823  1.0000
  N   N5        1.0  0.86107  0.18295  0.28181  1.0000
  N   N6        1.0  0.13893  0.81706  0.71819  1.0000
  O   O1        1.0  0.44435  0.54377  0.29580  1.0000
  O   O2        1.0  0.55565  0.45623  0.70420  1.0000
  O   O3        1.0  0.21006  0.41937  0.37828  1.0000
  O   O4        1.0  0.78994  0.58062  0.62173  1.0000
  O   O5        1.0  0.84418  0.55355  0.34110  1.0000
  O   O6        1.0  0.15582  0.44647  0.65889  1.0000
