data_image0
_chemical_formula_structural       CoH30C30N6O6
_chemical_formula_sum              "Co1 H30 C30 N6 O6"
_cell_length_a       8.4397
_cell_length_b       9.7828
_cell_length_c       9.76654
_cell_angle_alpha    59.0278
_cell_angle_beta     86.4362
_cell_angle_gamma    85.406

_space_group_name_H-M_alt    "P 1"
_space_group_IT_number       1

loop_
  _space_group_symop_operation_xyz
  'x, y, z'

loop_
  _atom_site_type_symbol
  _atom_site_label
  _atom_site_symmetry_multiplicity
  _atom_site_fract_x
  _atom_site_fract_y
  _atom_site_fract_z
  _atom_site_occupancy
  Co  Co1       1.0  0.50000  0.49999  0.50000  1.0000
  H   H1        1.0  0.78413  0.47051  0.58406  1.0000
  H   H2        1.0  0.21587  0.52948  0.41595  1.0000
  H   H3        1.0  0.83775  0.37515  0.49591  1.0000
  H   H4        1.0  0.16225  0.62485  0.50409  1.0000
  H   H5        1.0  0.82401  0.53457  0.80312  1.0000
  H   H6        1.0  0.17599  0.46543  0.19687  1.0000
  H   H7        1.0  0.77870  0.95676  0.35360  1.0000
  H   H8        1.0  0.22129  0.04323  0.64640  1.0000
  H   H9        1.0  0.76763  0.90609  0.55330  1.0000
  H   H10       1.0  0.23235  0.09390  0.44671  1.0000
  H   H11       1.0  0.58017  0.13955  0.35541  1.0000
  H   H12       1.0  0.41981  0.86043  0.64460  1.0000
  H   H13       1.0  0.47097  0.99523  0.34937  1.0000
  H   H14       1.0  0.52902  0.00475  0.65064  1.0000
  H   H15       1.0  0.40544  0.77635  0.20096  1.0000
  H   H16       1.0  0.59456  0.22364  0.79905  1.0000
  H   H17       1.0  0.45973  0.86966  0.91087  1.0000
  H   H18       1.0  0.54027  0.13034  0.08914  1.0000
  H   H19       1.0  0.64462  0.70345  0.83765  1.0000
  H   H20       1.0  0.35538  0.29656  0.16236  1.0000
  H   H21       1.0  0.67952  0.35768  0.34138  1.0000
  H   H22       1.0  0.32048  0.64231  0.65862  1.0000
  H   H23       1.0  0.05564  0.36401  0.70984  1.0000
  H   H24       1.0  0.94436  0.63600  0.29014  1.0000
  H   H25       1.0  0.23220  0.11593  0.83372  1.0000
  H   H26       1.0  0.76781  0.88408  0.16627  1.0000
  H   H27       1.0  0.23320  0.93344  0.12729  1.0000
  H   H28       1.0  0.76681  0.06657  0.87270  1.0000
  H   H29       1.0  0.06815  0.99621  0.30864  1.0000
  H   H30       1.0  0.93186  0.00380  0.69135  1.0000
  C   C1        1.0  0.67994  0.73513  0.50835  1.0000
  C   C2        1.0  0.32006  0.26486  0.49165  1.0000
  C   C3        1.0  0.69915  0.90752  0.46024  1.0000
  C   C4        1.0  0.30083  0.09247  0.53977  1.0000
  C   C5        1.0  0.54707  0.01452  0.42481  1.0000
  C   C6        1.0  0.45290  0.98547  0.57520  1.0000
  C   C7        1.0  0.48032  0.70628  0.16239  1.0000
  C   C8        1.0  0.51967  0.29371  0.83762  1.0000
  C   C9        1.0  0.51272  0.75609  0.00288  1.0000
  C   C10       1.0  0.48728  0.24391  0.99712  1.0000
  C   C11       1.0  0.61497  0.66267  0.96247  1.0000
  C   C12       1.0  0.38502  0.33734  0.03752  1.0000
  C   C13       1.0  0.68073  0.51787  0.08559  1.0000
  C   C14       1.0  0.31927  0.48213  0.91441  1.0000
  C   C15       1.0  0.63555  0.47194  0.24327  1.0000
  C   C16       1.0  0.36445  0.52805  0.75672  1.0000
  C   C17       1.0  0.79651  0.41284  0.06199  1.0000
  C   C18       1.0  0.20350  0.58717  0.93800  1.0000
  C   C19       1.0  0.96353  0.31860  0.94200  1.0000
  C   C20       1.0  0.03648  0.68141  0.05799  1.0000
  C   C21       1.0  0.05911  0.28604  0.83900  1.0000
  C   C22       1.0  0.94091  0.71398  0.16099  1.0000
  C   C23       1.0  0.15648  0.14648  0.90964  1.0000
  C   C24       1.0  0.84355  0.85354  0.09035  1.0000
  C   C25       1.0  0.15902  0.04369  0.07676  1.0000
  C   C26       1.0  0.84100  0.95633  0.92323  1.0000
  C   C27       1.0  0.06569  0.07687  0.17956  1.0000
  C   C28       1.0  0.93433  0.92315  0.82043  1.0000
  C   C29       1.0  0.96585  0.21656  0.11128  1.0000
  C   C30       1.0  0.03415  0.78346  0.88871  1.0000
  N   N1        1.0  0.54021  0.56464  0.28135  1.0000
  N   N2        1.0  0.45979  0.43535  0.71865  1.0000
  N   N3        1.0  0.85526  0.44253  0.91527  1.0000
  N   N4        1.0  0.14475  0.55747  0.08473  1.0000
  N   N5        1.0  0.86052  0.27820  0.18251  1.0000
  N   N6        1.0  0.13949  0.72180  0.81748  1.0000
  O   O1        1.0  0.55930  0.70691  0.45475  1.0000
  O   O2        1.0  0.44070  0.29307  0.54524  1.0000
  O   O3        1.0  0.78736  0.63059  0.59276  1.0000
  O   O4        1.0  0.21264  0.36940  0.40724  1.0000
  O   O5        1.0  0.76091  0.37628  0.57398  1.0000
  O   O6        1.0  0.23908  0.62372  0.42602  1.0000
