data_image0
_chemical_formula_structural       NiH16C26N2O10
_chemical_formula_sum              "Ni1 H16 C26 N2 O10"
_cell_length_a       7.57426
_cell_length_b       8.49828
_cell_length_c       9.81571
_cell_angle_alpha    115.676
_cell_angle_beta     100.579
_cell_angle_gamma    89.9741

_space_group_name_H-M_alt    "P 1"
_space_group_IT_number       1

loop_
  _space_group_symop_operation_xyz
  'x, y, z'

loop_
  _atom_site_type_symbol
  _atom_site_label
  _atom_site_symmetry_multiplicity
  _atom_site_fract_x
  _atom_site_fract_y
  _atom_site_fract_z
  _atom_site_occupancy
  Ni  Ni1       1.0  0.99994  0.99141  0.99994  1.0000
  H   H1        1.0  0.51903  0.09966  0.78816  1.0000
  H   H2        1.0  0.48098  0.31182  0.21219  1.0000
  H   H3        1.0  0.29050  0.14273  0.59543  1.0000
  H   H4        1.0  0.70957  0.54765  0.40464  1.0000
  H   H5        1.0  0.54258  0.66506  0.76249  1.0000
  H   H6        1.0  0.45728  0.90280  0.23742  1.0000
  H   H7        1.0  0.87955  0.54749  0.12378  1.0000
  H   H8        1.0  0.12047  0.42331  0.87625  1.0000
  H   H9        1.0  0.72222  0.04232  0.18505  1.0000
  H   H10       1.0  0.27770  0.85680  0.81482  1.0000
  H   H11       1.0  0.26308  0.20430  0.27776  1.0000
  H   H12       1.0  0.73695  0.92688  0.72210  1.0000
  H   H13       1.0  0.96755  0.44180  0.64292  1.0000
  H   H14       1.0  0.03261  0.79848  0.35702  1.0000
  H   H15       1.0  0.69459  0.24066  0.45809  1.0000
  H   H16       1.0  0.30550  0.78203  0.54184  1.0000
  C   C1        1.0  0.65837  0.35508  0.88742  1.0000
  C   C2        1.0  0.34154  0.46784  0.11278  1.0000
  C   C3        1.0  0.52425  0.22337  0.78035  1.0000
  C   C4        1.0  0.47571  0.44332  0.21989  1.0000
  C   C5        1.0  0.66251  0.51953  0.88109  1.0000
  C   C6        1.0  0.33738  0.63860  0.11899  1.0000
  C   C7        1.0  0.78301  0.30057  0.99410  1.0000
  C   C8        1.0  0.21718  0.30642  0.00604  1.0000
  C   C9        1.0  0.78681  0.68378  0.98827  1.0000
  C   C10       1.0  0.21289  0.69547  0.01176  1.0000
  C   C11       1.0  0.40411  0.40719  0.66513  1.0000
  C   C12       1.0  0.59589  0.74236  0.33487  1.0000
  C   C13       1.0  0.39641  0.24630  0.67110  1.0000
  C   C14       1.0  0.60360  0.57551  0.32898  1.0000
  C   C15       1.0  0.53715  0.53975  0.76737  1.0000
  C   C16       1.0  0.46277  0.77262  0.23264  1.0000
  C   C17       1.0  0.83643  0.12642  0.27138  1.0000
  C   C18       1.0  0.16353  0.85464  0.72848  1.0000
  C   C19       1.0  0.14022  0.21546  0.32231  1.0000
  C   C20       1.0  0.85981  0.89326  0.67757  1.0000
  C   C21       1.0  0.13361  0.33360  0.47266  1.0000
  C   C22       1.0  0.86649  0.86095  0.52723  1.0000
  C   C23       1.0  0.97287  0.34773  0.52546  1.0000
  C   C24       1.0  0.02722  0.82195  0.47444  1.0000
  C   C25       1.0  0.82263  0.23858  0.42196  1.0000
  C   C26       1.0  0.17743  0.81618  0.57794  1.0000
  N   N1        1.0  0.99252  0.11676  0.22250  1.0000
  N   N2        1.0  0.00742  0.89410  0.77735  1.0000
  O   O1        1.0  0.87871  0.69829  0.11692  1.0000
  O   O2        1.0  0.12093  0.58119  0.88321  1.0000
  O   O3        1.0  0.78749  0.80414  0.94516  1.0000
  O   O4        1.0  0.21210  0.85898  0.05480  1.0000
  O   O5        1.0  0.78096  0.14006  0.96018  1.0000
  O   O6        1.0  0.21939  0.17985  0.03991  1.0000
  O   O7        1.0  0.88762  0.41570  0.11926  1.0000
  O   O8        1.0  0.11273  0.29612  0.88070  1.0000
  O   O9        1.0  0.28609  0.44703  0.56274  1.0000
  O   O10       1.0  0.71410  0.88450  0.43714  1.0000
