data_image0
_chemical_formula_structural       Zn4H52C48N36O4
_chemical_formula_sum              "Zn4 H52 C48 N36 O4"
_cell_length_a       8.62742
_cell_length_b       12.6756
_cell_length_c       13.8887
_cell_angle_alpha    98.0953
_cell_angle_beta     90.0001
_cell_angle_gamma    89.9996

_space_group_name_H-M_alt    "P 1"
_space_group_IT_number       1

loop_
  _space_group_symop_operation_xyz
  'x, y, z'

loop_
  _atom_site_type_symbol
  _atom_site_label
  _atom_site_symmetry_multiplicity
  _atom_site_fract_x
  _atom_site_fract_y
  _atom_site_fract_z
  _atom_site_occupancy
  Zn  Zn1       1.0  0.23677  0.42939  0.71612  1.0000
  Zn  Zn2       1.0  0.73678  0.07060  0.28388  1.0000
  Zn  Zn3       1.0  0.76323  0.57061  0.28388  1.0000
  Zn  Zn4       1.0  0.26323  0.92940  0.71612  1.0000
  H   H1        1.0  0.63694  0.21507  0.01908  1.0000
  H   H2        1.0  0.13694  0.28493  0.98092  1.0000
  H   H3        1.0  0.36307  0.78493  0.98092  1.0000
  H   H4        1.0  0.86306  0.71507  0.01908  1.0000
  H   H5        1.0  0.28112  0.49423  0.14540  1.0000
  H   H6        1.0  0.78111  0.00578  0.85460  1.0000
  H   H7        1.0  0.71888  0.50577  0.85460  1.0000
  H   H8        1.0  0.21887  0.99422  0.14540  1.0000
  H   H9        1.0  0.62525  0.20714  0.83974  1.0000
  H   H10       1.0  0.12525  0.29285  0.16026  1.0000
  H   H11       1.0  0.37476  0.79286  0.16026  1.0000
  H   H12       1.0  0.87475  0.70714  0.83973  1.0000
  H   H13       1.0  0.10529  0.61255  0.06319  1.0000
  H   H14       1.0  0.60528  0.88746  0.93681  1.0000
  H   H15       1.0  0.89471  0.38745  0.93681  1.0000
  H   H16       1.0  0.39470  0.11254  0.06319  1.0000
  H   H17       1.0  0.09622  0.58880  0.88148  1.0000
  H   H18       1.0  0.59621  0.91119  0.11852  1.0000
  H   H19       1.0  0.90378  0.41120  0.11852  1.0000
  H   H20       1.0  0.40378  0.08880  0.88148  1.0000
  H   H21       1.0  0.31365  0.53681  0.47236  1.0000
  H   H22       1.0  0.81366  0.96320  0.52763  1.0000
  H   H23       1.0  0.68634  0.46319  0.52764  1.0000
  H   H24       1.0  0.18634  0.03681  0.47237  1.0000
  H   H25       1.0  0.17494  0.44206  0.50068  1.0000
  H   H26       1.0  0.67494  0.05794  0.49932  1.0000
  H   H27       1.0  0.82506  0.55794  0.49932  1.0000
  H   H28       1.0  0.32506  0.94206  0.50068  1.0000
  H   H29       1.0  0.07309  0.62669  0.54202  1.0000
  H   H30       1.0  0.57309  0.87331  0.45799  1.0000
  H   H31       1.0  0.92691  0.37331  0.45798  1.0000
  H   H32       1.0  0.42691  0.12669  0.54202  1.0000
  H   H33       1.0  0.23739  0.66448  0.61360  1.0000
  H   H34       1.0  0.73739  0.83553  0.38640  1.0000
  H   H35       1.0  0.76261  0.33552  0.38640  1.0000
  H   H36       1.0  0.26261  0.16448  0.61360  1.0000
  H   H37       1.0  0.40776  0.39194  0.55882  1.0000
  H   H38       1.0  0.90776  0.10807  0.44117  1.0000
  H   H39       1.0  0.59224  0.60806  0.44118  1.0000
  H   H40       1.0  0.09224  0.89194  0.55883  1.0000
  H   H41       1.0  0.44878  0.51294  0.61860  1.0000
  H   H42       1.0  0.94879  0.98707  0.38140  1.0000
  H   H43       1.0  0.55121  0.48706  0.38140  1.0000
  H   H44       1.0  0.05121  0.01294  0.61860  1.0000
  H   H45       1.0  0.07096  0.63232  0.72513  1.0000
  H   H46       1.0  0.57096  0.86768  0.27487  1.0000
  H   H47       1.0  0.92904  0.36768  0.27487  1.0000
  H   H48       1.0  0.42904  0.13232  0.72513  1.0000
  H   H49       1.0  0.98373  0.53074  0.66168  1.0000
  H   H50       1.0  0.48373  0.96927  0.33832  1.0000
  H   H51       1.0  0.01627  0.46926  0.33832  1.0000
  H   H52       1.0  0.51627  0.03074  0.66168  1.0000
  C   C1        1.0  0.36454  0.40934  0.00953  1.0000
  C   C2        1.0  0.86454  0.09066  0.99046  1.0000
  C   C3        1.0  0.63546  0.59066  0.99047  1.0000
  C   C4        1.0  0.13546  0.90933  0.00953  1.0000
  C   C5        1.0  0.44007  0.32319  0.84168  1.0000
  C   C6        1.0  0.94007  0.17680  0.15831  1.0000
  C   C7        1.0  0.55993  0.67681  0.15832  1.0000
  C   C8        1.0  0.05993  0.82319  0.84168  1.0000
  C   C9        1.0  0.46441  0.33638  0.05019  1.0000
  C   C10       1.0  0.96441  0.16362  0.94981  1.0000
  C   C11       1.0  0.53560  0.66362  0.94981  1.0000
  C   C12       1.0  0.03559  0.83638  0.05019  1.0000
  C   C13       1.0  0.55690  0.26626  0.98653  1.0000
  C   C14       1.0  0.05690  0.23374  0.01347  1.0000
  C   C15       1.0  0.44311  0.73374  0.01347  1.0000
  C   C16       1.0  0.94309  0.76626  0.98653  1.0000
  C   C17       1.0  0.35228  0.40187  0.90687  1.0000
  C   C18       1.0  0.85228  0.09813  0.09312  1.0000
  C   C19       1.0  0.64773  0.59813  0.09313  1.0000
  C   C20       1.0  0.14772  0.90187  0.90687  1.0000
  C   C21       1.0  0.27265  0.48692  0.06648  1.0000
  C   C22       1.0  0.77266  0.01309  0.93351  1.0000
  C   C23       1.0  0.72736  0.51308  0.93352  1.0000
  C   C24       1.0  0.22734  0.98691  0.06648  1.0000
  C   C25       1.0  0.54842  0.26047  0.88648  1.0000
  C   C26       1.0  0.04842  0.23952  0.11351  1.0000
  C   C27       1.0  0.45159  0.73953  0.11352  1.0000
  C   C28       1.0  0.95158  0.76047  0.88648  1.0000
  C   C29       1.0  0.17666  0.55168  0.02115  1.0000
  C   C30       1.0  0.67665  0.94832  0.97885  1.0000
  C   C31       1.0  0.82334  0.44832  0.97885  1.0000
  C   C32       1.0  0.32334  0.05168  0.02115  1.0000
  C   C33       1.0  0.17102  0.53874  0.91904  1.0000
  C   C34       1.0  0.67102  0.96126  0.08095  1.0000
  C   C35       1.0  0.82899  0.46125  0.08096  1.0000
  C   C36       1.0  0.32898  0.03874  0.91905  1.0000
  C   C37       1.0  0.51562  0.26565  0.28273  1.0000
  C   C38       1.0  0.01562  0.23435  0.71727  1.0000
  C   C39       1.0  0.48438  0.73435  0.71727  1.0000
  C   C40       1.0  0.98437  0.76566  0.28273  1.0000
  C   C41       1.0  0.25215  0.50676  0.53233  1.0000
  C   C42       1.0  0.75216  0.99325  0.46767  1.0000
  C   C43       1.0  0.74785  0.49324  0.46768  1.0000
  C   C44       1.0  0.24785  0.00676  0.53233  1.0000
  C   C45       1.0  0.16045  0.59729  0.58923  1.0000
  C   C46       1.0  0.66045  0.90271  0.41077  1.0000
  C   C47       1.0  0.83955  0.40271  0.41077  1.0000
  C   C48       1.0  0.33955  0.09729  0.58924  1.0000
  N   N1        1.0  0.25558  0.46606  0.86399  1.0000
  N   N2        1.0  0.75557  0.03394  0.13600  1.0000
  N   N3        1.0  0.74442  0.53395  0.13601  1.0000
  N   N4        1.0  0.24442  0.96605  0.86400  1.0000
  N   N5        1.0  0.57518  0.18494  0.32594  1.0000
  N   N6        1.0  0.07518  0.31506  0.67406  1.0000
  N   N7        1.0  0.42482  0.81506  0.67406  1.0000
  N   N8        1.0  0.92482  0.68494  0.32594  1.0000
  N   N9        1.0  0.45695  0.33827  0.14929  1.0000
  N   N10       1.0  0.95696  0.16173  0.85071  1.0000
  N   N11       1.0  0.54305  0.66173  0.85071  1.0000
  N   N12       1.0  0.04304  0.83827  0.14929  1.0000
  N   N13       1.0  0.53051  0.26304  0.18330  1.0000
  N   N14       1.0  0.03051  0.23696  0.81670  1.0000
  N   N15       1.0  0.46950  0.73696  0.81670  1.0000
  N   N16       1.0  0.96949  0.76304  0.18330  1.0000
  N   N17       1.0  0.54070  0.20754  0.42113  1.0000
  N   N18       1.0  0.04070  0.29246  0.57887  1.0000
  N   N19       1.0  0.45930  0.79246  0.57888  1.0000
  N   N20       1.0  0.95930  0.70754  0.42113  1.0000
  N   N21       1.0  0.46411  0.29853  0.43474  1.0000
  N   N22       1.0  0.96410  0.20147  0.56525  1.0000
  N   N23       1.0  0.53590  0.70147  0.56526  1.0000
  N   N24       1.0  0.03590  0.79853  0.43474  1.0000
  N   N25       1.0  0.44633  0.33778  0.35007  1.0000
  N   N26       1.0  0.94633  0.16222  0.64992  1.0000
  N   N27       1.0  0.55368  0.66222  0.64993  1.0000
  N   N28       1.0  0.05367  0.83779  0.35007  1.0000
  N   N29       1.0  0.09030  0.56386  0.67793  1.0000
  N   N30       1.0  0.59030  0.93614  0.32207  1.0000
  N   N31       1.0  0.90970  0.43614  0.32207  1.0000
  N   N32       1.0  0.40970  0.06386  0.67793  1.0000
  N   N33       1.0  0.36021  0.45997  0.59752  1.0000
  N   N34       1.0  0.86022  0.04003  0.40247  1.0000
  N   N35       1.0  0.63978  0.54003  0.40248  1.0000
  N   N36       1.0  0.13979  0.95997  0.59753  1.0000
  O   O1        1.0  0.41700  0.31322  0.74966  1.0000
  O   O2        1.0  0.91700  0.18678  0.25034  1.0000
  O   O3        1.0  0.58300  0.68678  0.25034  1.0000
  O   O4        1.0  0.08300  0.81322  0.74966  1.0000
