data_image0
_chemical_formula_structural       Cd4H36C52N4O24
_chemical_formula_sum              "Cd4 H36 C52 N4 O24"
_cell_length_a       7.53777
_cell_length_b       8.76545
_cell_length_c       19.9217
_cell_angle_alpha    89.9993
_cell_angle_beta     90.0004
_cell_angle_gamma    99.0755

_space_group_name_H-M_alt    "P 1"
_space_group_IT_number       1

loop_
  _space_group_symop_operation_xyz
  'x, y, z'

loop_
  _atom_site_type_symbol
  _atom_site_label
  _atom_site_symmetry_multiplicity
  _atom_site_fract_x
  _atom_site_fract_y
  _atom_site_fract_z
  _atom_site_occupancy
  Cd  Cd1       1.0  0.80746  0.41310  0.94815  1.0000
  Cd  Cd2       1.0  0.69253  0.58689  0.44815  1.0000
  Cd  Cd3       1.0  0.19253  0.58690  0.05184  1.0000
  Cd  Cd4       1.0  0.30747  0.41310  0.55186  1.0000
  H   H1        1.0  0.62296  0.46764  0.06536  1.0000
  H   H2        1.0  0.87703  0.53236  0.56536  1.0000
  H   H3        1.0  0.37702  0.53236  0.93464  1.0000
  H   H4        1.0  0.12298  0.46764  0.43464  1.0000
  H   H5        1.0  0.53676  0.30588  0.04063  1.0000
  H   H6        1.0  0.96324  0.69411  0.54063  1.0000
  H   H7        1.0  0.46322  0.69412  0.95936  1.0000
  H   H8        1.0  0.03677  0.30588  0.45937  1.0000
  H   H9        1.0  0.05369  0.69115  0.88219  1.0000
  H   H10       1.0  0.44630  0.30886  0.38219  1.0000
  H   H11       1.0  0.94630  0.30887  0.11781  1.0000
  H   H12       1.0  0.55375  0.69113  0.61782  1.0000
  H   H13       1.0  0.87298  0.08101  0.94486  1.0000
  H   H14       1.0  0.62700  0.91899  0.44488  1.0000
  H   H15       1.0  0.12702  0.91900  0.05512  1.0000
  H   H16       1.0  0.37298  0.08101  0.55514  1.0000
  H   H17       1.0  0.75015  0.30442  0.79683  1.0000
  H   H18       1.0  0.74985  0.69559  0.29683  1.0000
  H   H19       1.0  0.24985  0.69558  0.20317  1.0000
  H   H20       1.0  0.25014  0.30442  0.70317  1.0000
  H   H21       1.0  0.40891  0.02646  0.80677  1.0000
  H   H22       1.0  0.09109  0.97355  0.30679  1.0000
  H   H23       1.0  0.59109  0.97354  0.19321  1.0000
  H   H24       1.0  0.90892  0.02645  0.69323  1.0000
  H   H25       1.0  0.78689  0.42157  0.68126  1.0000
  H   H26       1.0  0.71311  0.57842  0.18126  1.0000
  H   H27       1.0  0.21311  0.57841  0.31874  1.0000
  H   H28       1.0  0.28685  0.42159  0.81874  1.0000
  H   H29       1.0  0.95776  0.68935  0.66802  1.0000
  H   H30       1.0  0.54226  0.31064  0.16803  1.0000
  H   H31       1.0  0.04225  0.31064  0.33198  1.0000
  H   H32       1.0  0.45771  0.68935  0.83198  1.0000
  H   H33       1.0  0.84157  0.90643  0.84793  1.0000
  H   H34       1.0  0.65844  0.09358  0.34795  1.0000
  H   H35       1.0  0.15842  0.09359  0.15205  1.0000
  H   H36       1.0  0.34158  0.90641  0.65207  1.0000
  C   C1        1.0  0.30868  0.14347  0.89112  1.0000
  C   C2        1.0  0.19131  0.85654  0.39114  1.0000
  C   C3        1.0  0.69132  0.85653  0.10886  1.0000
  C   C4        1.0  0.80868  0.14347  0.60888  1.0000
  C   C5        1.0  0.48661  0.24173  0.90433  1.0000
  C   C6        1.0  0.01338  0.75828  0.40434  1.0000
  C   C7        1.0  0.51338  0.75828  0.09565  1.0000
  C   C8        1.0  0.98661  0.24173  0.59567  1.0000
  C   C9        1.0  0.17806  0.26007  0.99214  1.0000
  C   C10       1.0  0.32196  0.73993  0.49215  1.0000
  C   C11       1.0  0.82195  0.73994  0.00785  1.0000
  C   C12       1.0  0.67805  0.26006  0.50787  1.0000
  C   C13       1.0  0.15810  0.15816  0.93115  1.0000
  C   C14       1.0  0.34190  0.84186  0.43116  1.0000
  C   C15       1.0  0.84189  0.84185  0.06884  1.0000
  C   C16       1.0  0.65810  0.15815  0.56886  1.0000
  C   C17       1.0  0.99475  0.63670  0.83650  1.0000
  C   C18       1.0  0.50524  0.36331  0.33650  1.0000
  C   C19       1.0  0.00525  0.36331  0.16350  1.0000
  C   C20       1.0  0.49478  0.63669  0.66350  1.0000
  C   C21       1.0  0.01543  0.71109  0.77422  1.0000
  C   C22       1.0  0.48458  0.28892  0.27423  1.0000
  C   C23       1.0  0.98457  0.28891  0.22577  1.0000
  C   C24       1.0  0.51543  0.71108  0.72578  1.0000
  C   C25       1.0  0.99129  0.07216  0.91473  1.0000
  C   C26       1.0  0.50871  0.92786  0.41475  1.0000
  C   C27       1.0  0.00871  0.92785  0.08525  1.0000
  C   C28       1.0  0.49129  0.07215  0.58527  1.0000
  C   C29       1.0  0.82633  0.41908  0.78819  1.0000
  C   C30       1.0  0.67366  0.58093  0.28819  1.0000
  C   C31       1.0  0.17366  0.58093  0.21181  1.0000
  C   C32       1.0  0.32633  0.41907  0.71181  1.0000
  C   C33       1.0  0.29205  0.04064  0.83698  1.0000
  C   C34       1.0  0.20795  0.95937  0.33699  1.0000
  C   C35       1.0  0.70795  0.95937  0.16301  1.0000
  C   C36       1.0  0.79206  0.04063  0.66302  1.0000
  C   C37       1.0  0.84645  0.48522  0.72467  1.0000
  C   C38       1.0  0.65355  0.51478  0.22467  1.0000
  C   C39       1.0  0.15355  0.51477  0.27533  1.0000
  C   C40       1.0  0.34643  0.48522  0.77533  1.0000
  C   C41       1.0  0.94199  0.63383  0.71710  1.0000
  C   C42       1.0  0.55803  0.36616  0.21711  1.0000
  C   C43       1.0  0.05802  0.36616  0.28290  1.0000
  C   C44       1.0  0.44196  0.63383  0.78290  1.0000
  C   C45       1.0  0.12440  0.95572  0.82220  1.0000
  C   C46       1.0  0.37561  0.04429  0.32222  1.0000
  C   C47       1.0  0.87560  0.04428  0.17778  1.0000
  C   C48       1.0  0.62440  0.95571  0.67780  1.0000
  C   C49       1.0  0.97261  0.97227  0.85998  1.0000
  C   C50       1.0  0.52739  0.02775  0.35999  1.0000
  C   C51       1.0  0.02739  0.02775  0.14001  1.0000
  C   C52       1.0  0.47262  0.97226  0.64002  1.0000
  N   N1        1.0  0.90014  0.49451  0.84275  1.0000
  N   N2        1.0  0.59985  0.50550  0.34275  1.0000
  N   N3        1.0  0.09986  0.50550  0.15725  1.0000
  N   N4        1.0  0.40017  0.49450  0.65726  1.0000
  O   O1        1.0  0.49105  0.38739  0.91181  1.0000
  O   O2        1.0  0.00895  0.61261  0.41182  1.0000
  O   O3        1.0  0.50895  0.61260  0.08818  1.0000
  O   O4        1.0  0.99105  0.38739  0.58819  1.0000
  O   O5        1.0  0.65641  0.36737  0.05038  1.0000
  O   O6        1.0  0.84359  0.63262  0.55038  1.0000
  O   O7        1.0  0.34358  0.63263  0.94962  1.0000
  O   O8        1.0  0.15642  0.36737  0.44962  1.0000
  O   O9        1.0  0.05980  0.35220  0.00035  1.0000
  O   O10       1.0  0.44021  0.64780  0.50036  1.0000
  O   O11       1.0  0.94021  0.64780  0.99964  1.0000
  O   O12       1.0  0.55979  0.35220  0.49965  1.0000
  O   O13       1.0  0.62718  0.17912  0.90668  1.0000
  O   O14       1.0  0.87282  0.82088  0.40669  1.0000
  O   O15       1.0  0.37283  0.82089  0.09329  1.0000
  O   O16       1.0  0.12718  0.17912  0.59332  1.0000
  O   O17       1.0  0.30349  0.25573  0.03274  1.0000
  O   O18       1.0  0.19652  0.74425  0.53276  1.0000
  O   O19       1.0  0.69651  0.74426  0.96725  1.0000
  O   O20       1.0  0.80348  0.25573  0.46726  1.0000
  O   O21       1.0  0.11248  0.85691  0.76678  1.0000
  O   O22       1.0  0.38753  0.14309  0.26679  1.0000
  O   O23       1.0  0.88752  0.14309  0.23321  1.0000
  O   O24       1.0  0.61249  0.85690  0.73323  1.0000
