data_image0
_chemical_formula_structural       Zn2H50C68N10O10
_chemical_formula_sum              "Zn2 H50 C68 N10 O10"
_cell_length_a       11.1797
_cell_length_b       11.3697
_cell_length_c       13.5208
_cell_angle_alpha    116.306
_cell_angle_beta     92.9162
_cell_angle_gamma    97.3437

_space_group_name_H-M_alt    "P 1"
_space_group_IT_number       1

loop_
  _space_group_symop_operation_xyz
  'x, y, z'

loop_
  _atom_site_type_symbol
  _atom_site_label
  _atom_site_symmetry_multiplicity
  _atom_site_fract_x
  _atom_site_fract_y
  _atom_site_fract_z
  _atom_site_occupancy
  Zn  Zn1       1.0  0.02344  0.45927  0.17128  1.0000
  Zn  Zn2       1.0  0.97656  0.54073  0.82872  1.0000
  H   H1        1.0  0.19365  0.43207  0.99068  1.0000
  H   H2        1.0  0.80635  0.56793  0.00932  1.0000
  H   H3        1.0  0.02188  0.12997  0.06039  1.0000
  H   H4        1.0  0.97813  0.87003  0.93961  1.0000
  H   H5        1.0  0.16436  0.01711  0.88887  1.0000
  H   H6        1.0  0.83565  0.98290  0.11113  1.0000
  H   H7        1.0  0.42117  0.14476  0.91113  1.0000
  H   H8        1.0  0.57884  0.85524  0.08887  1.0000
  H   H9        1.0  0.57608  0.15165  0.78690  1.0000
  H   H10       1.0  0.42392  0.84835  0.21309  1.0000
  H   H11       1.0  0.17341  0.29719  0.75956  1.0000
  H   H12       1.0  0.82659  0.70281  0.24044  1.0000
  H   H13       1.0  0.62161  0.00083  0.54640  1.0000
  H   H14       1.0  0.37838  0.99917  0.45360  1.0000
  H   H15       1.0  0.75915  0.06735  0.51591  1.0000
  H   H16       1.0  0.24085  0.93265  0.48409  1.0000
  H   H17       1.0  0.61862  0.05407  0.44093  1.0000
  H   H18       1.0  0.38138  0.94592  0.55907  1.0000
  H   H19       1.0  0.18430  0.39198  0.60400  1.0000
  H   H20       1.0  0.81570  0.60801  0.39599  1.0000
  H   H21       1.0  0.17036  0.61054  0.59094  1.0000
  H   H22       1.0  0.82964  0.38946  0.40907  1.0000
  H   H23       1.0  0.03750  0.65951  0.43678  1.0000
  H   H24       1.0  0.96250  0.34050  0.56322  1.0000
  H   H25       1.0  0.08075  0.97186  0.34126  1.0000
  H   H26       1.0  0.91925  0.02814  0.65875  1.0000
  H   H27       1.0  0.31332  0.91519  0.02312  1.0000
  H   H28       1.0  0.68668  0.08480  0.97688  1.0000
  H   H29       1.0  0.18601  0.17202  0.32803  1.0000
  H   H30       1.0  0.81399  0.82798  0.67197  1.0000
  H   H31       1.0  0.40526  0.35113  0.12260  1.0000
  H   H32       1.0  0.59474  0.64888  0.87740  1.0000
  H   H33       1.0  0.62915  0.42580  0.13525  1.0000
  H   H34       1.0  0.37085  0.57420  0.86475  1.0000
  H   H35       1.0  0.70316  0.12463  0.22799  1.0000
  H   H36       1.0  0.29685  0.87538  0.77201  1.0000
  H   H37       1.0  0.43228  0.39576  0.36977  1.0000
  H   H38       1.0  0.56771  0.60424  0.63023  1.0000
  H   H39       1.0  0.57559  0.29358  0.43974  1.0000
  H   H40       1.0  0.42441  0.70642  0.56026  1.0000
  H   H41       1.0  0.69830  0.23749  0.69105  1.0000
  H   H42       1.0  0.30170  0.76251  0.30894  1.0000
  H   H43       1.0  0.70012  0.29033  0.58705  1.0000
  H   H44       1.0  0.29988  0.70967  0.41295  1.0000
  H   H45       1.0  0.20922  0.71634  0.03818  1.0000
  H   H46       1.0  0.79078  0.28366  0.96182  1.0000
  H   H47       1.0  0.22331  0.34157  0.26353  1.0000
  H   H48       1.0  0.77669  0.65844  0.73648  1.0000
  H   H49       1.0  0.48132  0.05224  0.21947  1.0000
  H   H50       1.0  0.51868  0.94776  0.78053  1.0000
  C   C1        1.0  0.16687  0.33559  0.98812  1.0000
  C   C2        1.0  0.83312  0.66441  0.01187  1.0000
  C   C3        1.0  0.07948  0.17483  0.01993  1.0000
  C   C4        1.0  0.92053  0.82517  0.98008  1.0000
  C   C5        1.0  0.15041  0.11906  0.93654  1.0000
  C   C6        1.0  0.84961  0.88094  0.06346  1.0000
  C   C7        1.0  0.29004  0.21969  0.84091  1.0000
  C   C8        1.0  0.70996  0.78031  0.15909  1.0000
  C   C9        1.0  0.40191  0.17800  0.84866  1.0000
  C   C10       1.0  0.59810  0.82201  0.15134  1.0000
  C   C11       1.0  0.48888  0.18202  0.77941  1.0000
  C   C12       1.0  0.51113  0.81798  0.22059  1.0000
  C   C13       1.0  0.46109  0.22905  0.70281  1.0000
  C   C14       1.0  0.53891  0.77095  0.29719  1.0000
  C   C15       1.0  0.34822  0.27267  0.69615  1.0000
  C   C16       1.0  0.65178  0.72733  0.30385  1.0000
  C   C17       1.0  0.26161  0.26762  0.76552  1.0000
  C   C18       1.0  0.73839  0.73238  0.23448  1.0000
  C   C19       1.0  0.66299  0.07625  0.52300  1.0000
  C   C20       1.0  0.33701  0.92375  0.47700  1.0000
  C   C21       1.0  0.26928  0.37072  0.56896  1.0000
  C   C22       1.0  0.73072  0.62927  0.43104  1.0000
  C   C23       1.0  0.16090  0.56281  0.50090  1.0000
  C   C24       1.0  0.83910  0.43719  0.49910  1.0000
  C   C25       1.0  0.09465  0.58523  0.42446  1.0000
  C   C26       1.0  0.90535  0.41477  0.57554  1.0000
  C   C27       1.0  0.07880  0.71521  0.20430  1.0000
  C   C28       1.0  0.92120  0.28478  0.79570  1.0000
  C   C29       1.0  0.13229  0.96101  0.27227  1.0000
  C   C30       1.0  0.86771  0.03899  0.72773  1.0000
  C   C31       1.0  0.26325  0.92691  0.09312  1.0000
  C   C32       1.0  0.73675  0.07309  0.90688  1.0000
  C   C33       1.0  0.25587  0.05399  0.17551  1.0000
  C   C34       1.0  0.74413  0.94601  0.82449  1.0000
  C   C35       1.0  0.19029  0.07206  0.26479  1.0000
  C   C36       1.0  0.80970  0.92794  0.73521  1.0000
  C   C37       1.0  0.47161  0.30198  0.14517  1.0000
  C   C38       1.0  0.52839  0.69802  0.85483  1.0000
  C   C39       1.0  0.59579  0.34305  0.15220  1.0000
  C   C40       1.0  0.40422  0.65695  0.84780  1.0000
  C   C41       1.0  0.63728  0.17326  0.20419  1.0000
  C   C42       1.0  0.36272  0.82674  0.79581  1.0000
  C   C43       1.0  0.68017  0.27881  0.18127  1.0000
  C   C44       1.0  0.31983  0.72120  0.81874  1.0000
  C   C45       1.0  0.81430  0.31835  0.18597  1.0000
  C   C46       1.0  0.18570  0.68166  0.81403  1.0000
  C   C47       1.0  0.30139  0.39966  0.48284  1.0000
  C   C48       1.0  0.69861  0.60035  0.51716  1.0000
  C   C49       1.0  0.40983  0.37019  0.43595  1.0000
  C   C50       1.0  0.59017  0.62981  0.56405  1.0000
  C   C51       1.0  0.49132  0.31414  0.47604  1.0000
  C   C52       1.0  0.50868  0.68586  0.52396  1.0000
  C   C53       1.0  0.46243  0.28963  0.56521  1.0000
  C   C54       1.0  0.53757  0.71037  0.43478  1.0000
  C   C55       1.0  0.65324  0.21631  0.60952  1.0000
  C   C56       1.0  0.34676  0.78369  0.39048  1.0000
  C   C57       1.0  0.35001  0.31411  0.60979  1.0000
  C   C58       1.0  0.64999  0.68589  0.39020  1.0000
  C   C59       1.0  0.20537  0.81639  0.10193  1.0000
  C   C60       1.0  0.79462  0.18361  0.89807  1.0000
  C   C61       1.0  0.19126  0.42297  0.33030  1.0000
  C   C62       1.0  0.80874  0.57703  0.66970  1.0000
  C   C63       1.0  0.13990  0.83250  0.19168  1.0000
  C   C64       1.0  0.86009  0.16750  0.80833  1.0000
  C   C65       1.0  0.43076  0.19637  0.16873  1.0000
  C   C66       1.0  0.56924  0.80363  0.83127  1.0000
  C   C67       1.0  0.51351  0.13181  0.19857  1.0000
  C   C68       1.0  0.48649  0.86819  0.80143  1.0000
  N   N1        1.0  0.09100  0.30949  0.05134  1.0000
  N   N2        1.0  0.90900  0.69051  0.94866  1.0000
  N   N3        1.0  0.20548  0.22258  0.91759  1.0000
  N   N4        1.0  0.79452  0.77742  0.08240  1.0000
  N   N5        1.0  0.52906  0.24129  0.62395  1.0000
  N   N6        1.0  0.47094  0.75871  0.37604  1.0000
  N   N7        1.0  0.22203  0.45961  0.43999  1.0000
  N   N8        1.0  0.77797  0.54039  0.56001  1.0000
  N   N9        1.0  0.11418  0.49731  0.31889  1.0000
  N   N10       1.0  0.88582  0.50269  0.68112  1.0000
  O   O1        1.0  0.30709  0.16749  0.16737  1.0000
  O   O2        1.0  0.69291  0.83251  0.83264  1.0000
  O   O3        1.0  0.88644  0.25177  0.20322  1.0000
  O   O4        1.0  0.11356  0.74823  0.79678  1.0000
  O   O5        1.0  0.84664  0.42281  0.17060  1.0000
  O   O6        1.0  0.15336  0.57720  0.82940  1.0000
  O   O7        1.0  0.09176  0.59889  0.12849  1.0000
  O   O8        1.0  0.90823  0.40111  0.87151  1.0000
  O   O9        1.0  0.02126  0.73336  0.28587  1.0000
  O   O10       1.0  0.97873  0.26664  0.71413  1.0000
