data_image0
_chemical_formula_structural       Cd2H18C20I4N10
_chemical_formula_sum              "Cd2 H18 C20 I4 N10"
_cell_length_a       8.5428
_cell_length_b       10.0293
_cell_length_c       10.5509
_cell_angle_alpha    108.358
_cell_angle_beta     92.7512
_cell_angle_gamma    105.445

_space_group_name_H-M_alt    "P 1"
_space_group_IT_number       1

loop_
  _space_group_symop_operation_xyz
  'x, y, z'

loop_
  _atom_site_type_symbol
  _atom_site_label
  _atom_site_symmetry_multiplicity
  _atom_site_fract_x
  _atom_site_fract_y
  _atom_site_fract_z
  _atom_site_occupancy
  Cd  Cd1       1.0  0.42441  0.97519  0.18734  1.0000
  Cd  Cd2       1.0  0.57558  0.02481  0.81265  1.0000
  H   H1        1.0  0.71698  0.61313  0.31105  1.0000
  H   H2        1.0  0.28304  0.38689  0.68897  1.0000
  H   H3        1.0  0.48226  0.32033  0.17237  1.0000
  H   H4        1.0  0.51775  0.67967  0.82764  1.0000
  H   H5        1.0  0.20982  0.20867  0.02668  1.0000
  H   H6        1.0  0.79021  0.79133  0.97332  1.0000
  H   H7        1.0  0.06628  0.36238  0.95450  1.0000
  H   H8        1.0  0.93373  0.63760  0.04551  1.0000
  H   H9        1.0  0.19047  0.63520  0.02476  1.0000
  H   H10       1.0  0.80953  0.36479  0.97525  1.0000
  H   H11       1.0  0.76152  0.00374  0.32623  1.0000
  H   H12       1.0  0.23847  0.99626  0.67378  1.0000
  H   H13       1.0  0.75453  0.93052  0.46024  1.0000
  H   H14       1.0  0.24546  0.06948  0.53976  1.0000
  H   H15       1.0  0.02838  0.01930  0.21529  1.0000
  H   H16       1.0  0.97161  0.98070  0.78470  1.0000
  H   H17       1.0  0.19634  0.72957  0.36232  1.0000
  H   H18       1.0  0.80365  0.27045  0.63769  1.0000
  C   C1        1.0  0.48317  0.54052  0.18321  1.0000
  C   C2        1.0  0.51683  0.45948  0.81680  1.0000
  C   C3        1.0  0.41799  0.38794  0.14160  1.0000
  C   C4        1.0  0.58202  0.61206  0.85841  1.0000
  C   C5        1.0  0.26587  0.32745  0.06041  1.0000
  C   C6        1.0  0.73414  0.67254  0.93960  1.0000
  C   C7        1.0  0.18423  0.41537  0.01961  1.0000
  C   C8        1.0  0.81578  0.58462  0.98040  1.0000
  C   C9        1.0  0.25080  0.56744  0.05943  1.0000
  C   C10       1.0  0.74921  0.43256  0.94058  1.0000
  C   C11       1.0  0.40177  0.63025  0.14382  1.0000
  C   C12       1.0  0.59823  0.36975  0.85618  1.0000
  C   C13       1.0  0.63134  0.77546  0.27034  1.0000
  C   C14       1.0  0.36867  0.22454  0.72967  1.0000
  C   C15       1.0  0.76736  0.90785  0.35284  1.0000
  C   C16       1.0  0.23263  0.09216  0.64717  1.0000
  C   C17       1.0  0.04075  0.94173  0.26459  1.0000
  C   C18       1.0  0.95924  0.05828  0.73540  1.0000
  C   C19       1.0  0.12039  0.79220  0.33861  1.0000
  C   C20       1.0  0.87961  0.20782  0.66140  1.0000
  I   I1        1.0  0.53075  0.22624  0.41371  1.0000
  I   I2        1.0  0.46924  0.77375  0.58628  1.0000
  I   I3        1.0  0.24493  0.90707  0.93213  1.0000
  I   I4        1.0  0.75507  0.09291  0.06785  1.0000
  N   N1        1.0  0.49837  0.77648  0.20010  1.0000
  N   N2        1.0  0.50163  0.22351  0.79991  1.0000
  N   N3        1.0  0.62751  0.63692  0.26277  1.0000
  N   N4        1.0  0.37249  0.36309  0.73723  1.0000
  N   N5        1.0  0.92699  0.88515  0.33257  1.0000
  N   N6        1.0  0.07300  0.11487  0.66743  1.0000
  N   N7        1.0  0.97534  0.78847  0.38038  1.0000
  N   N8        1.0  0.02466  0.21154  0.61963  1.0000
  N   N9        1.0  0.16556  0.88540  0.26732  1.0000
  N   N10       1.0  0.83444  0.11460  0.73267  1.0000
