data_image0
_chemical_formula_structural       Cd4H36C40N20Cl8
_chemical_formula_sum              "Cd4 H36 C40 N20 Cl8"
_cell_length_a       11.4812
_cell_length_b       11.4841
_cell_length_c       12.5255
_cell_angle_alpha    85.6147
_cell_angle_beta     62.7302
_cell_angle_gamma    60.0049

_space_group_name_H-M_alt    "P 1"
_space_group_IT_number       1

loop_
  _space_group_symop_operation_xyz
  'x, y, z'

loop_
  _atom_site_type_symbol
  _atom_site_label
  _atom_site_symmetry_multiplicity
  _atom_site_fract_x
  _atom_site_fract_y
  _atom_site_fract_z
  _atom_site_occupancy
  Cd  Cd1       1.0  0.00477  0.08429  0.12778  1.0000
  Cd  Cd2       1.0  0.71684  0.41585  0.37225  1.0000
  Cd  Cd3       1.0  0.99524  0.91571  0.87222  1.0000
  Cd  Cd4       1.0  0.28316  0.58415  0.62775  1.0000
  H   H1        1.0  0.43416  0.98905  0.24960  1.0000
  H   H2        1.0  0.17322  0.51053  0.25034  1.0000
  H   H3        1.0  0.56584  0.01095  0.75040  1.0000
  H   H4        1.0  0.82678  0.48947  0.74966  1.0000
  H   H5        1.0  0.15754  0.28483  0.98987  1.0000
  H   H6        1.0  0.93242  0.21500  0.51015  1.0000
  H   H7        1.0  0.84246  0.71517  0.01013  1.0000
  H   H8        1.0  0.06758  0.78500  0.48985  1.0000
  H   H9        1.0  0.31526  0.39528  0.92232  1.0000
  H   H10       1.0  0.13295  0.10453  0.57783  1.0000
  H   H11       1.0  0.68474  0.60472  0.07768  1.0000
  H   H12       1.0  0.86705  0.89547  0.42217  1.0000
  H   H13       1.0  0.50599  0.33678  0.98994  1.0000
  H   H14       1.0  0.33298  0.16279  0.51013  1.0000
  H   H15       1.0  0.49401  0.66322  0.01007  1.0000
  H   H16       1.0  0.66702  0.83721  0.48987  1.0000
  H   H17       1.0  0.55560  0.16178  0.11941  1.0000
  H   H18       1.0  0.33738  0.33751  0.38036  1.0000
  H   H19       1.0  0.44440  0.83822  0.88059  1.0000
  H   H20       1.0  0.66262  0.66249  0.61963  1.0000
  H   H21       1.0  0.27729  0.88246  0.33999  1.0000
  H   H22       1.0  0.99992  0.61755  0.16027  1.0000
  H   H23       1.0  0.72271  0.11753  0.66001  1.0000
  H   H24       1.0  0.00008  0.38245  0.83973  1.0000
  H   H25       1.0  0.08708  0.00140  0.36568  1.0000
  H   H26       1.0  0.95438  0.49865  0.13443  1.0000
  H   H27       1.0  0.91292  0.99860  0.63432  1.0000
  H   H28       1.0  0.04562  0.50135  0.86557  1.0000
  H   H29       1.0  0.33244  0.64192  0.29198  1.0000
  H   H30       1.0  0.76658  0.85798  0.20775  1.0000
  H   H31       1.0  0.66756  0.35808  0.70802  1.0000
  H   H32       1.0  0.23342  0.14201  0.79225  1.0000
  H   H33       1.0  0.12244  0.72567  0.07132  1.0000
  H   H34       1.0  0.41958  0.77446  0.42857  1.0000
  H   H35       1.0  0.87755  0.27433  0.92868  1.0000
  H   H36       1.0  0.58041  0.22554  0.57143  1.0000
  C   C1        1.0  0.26915  0.16210  0.09141  1.0000
  C   C2        1.0  0.02304  0.33752  0.40848  1.0000
  C   C3        1.0  0.73085  0.83791  0.90859  1.0000
  C   C4        1.0  0.97696  0.66248  0.59152  1.0000
  C   C5        1.0  0.24563  0.25739  0.01531  1.0000
  C   C6        1.0  0.01862  0.24231  0.48465  1.0000
  C   C7        1.0  0.75437  0.74261  0.98469  1.0000
  C   C8        1.0  0.98138  0.75769  0.51535  1.0000
  C   C9        1.0  0.33344  0.31791  0.97903  1.0000
  C   C10       1.0  0.13060  0.18178  0.52101  1.0000
  C   C11       1.0  0.66656  0.68209  0.02097  1.0000
  C   C12       1.0  0.86940  0.81822  0.47899  1.0000
  C   C13       1.0  0.44305  0.28396  0.01704  1.0000
  C   C14       1.0  0.24440  0.21557  0.48294  1.0000
  C   C15       1.0  0.55695  0.71604  0.98296  1.0000
  C   C16       1.0  0.75560  0.78443  0.51706  1.0000
  C   C17       1.0  0.47018  0.18773  0.09101  1.0000
  C   C18       1.0  0.24948  0.31161  0.40880  1.0000
  C   C19       1.0  0.52982  0.81227  0.90900  1.0000
  C   C20       1.0  0.75052  0.68839  0.59120  1.0000
  C   C21       1.0  0.38109  0.12785  0.12768  1.0000
  C   C22       1.0  0.13716  0.37158  0.37212  1.0000
  C   C23       1.0  0.61891  0.87215  0.87232  1.0000
  C   C24       1.0  0.86284  0.62842  0.62788  1.0000
  C   C25       1.0  0.25994  0.01656  0.21180  1.0000
  C   C26       1.0  0.98852  0.48332  0.28832  1.0000
  C   C27       1.0  0.74006  0.98344  0.78820  1.0000
  C   C28       1.0  0.01148  0.51668  0.71168  1.0000
  C   C29       1.0  0.20750  0.93240  0.29491  1.0000
  C   C30       1.0  0.93498  0.56762  0.20526  1.0000
  C   C31       1.0  0.79250  0.06760  0.70509  1.0000
  C   C32       1.0  0.06501  0.43238  0.79474  1.0000
  C   C33       1.0  0.27019  0.69230  0.24148  1.0000
  C   C34       1.0  0.70419  0.80765  0.25834  1.0000
  C   C35       1.0  0.72981  0.30770  0.75851  1.0000
  C   C36       1.0  0.29581  0.19235  0.74166  1.0000
  C   C37       1.0  0.16098  0.73697  0.13252  1.0000
  C   C38       1.0  0.53063  0.76312  0.36741  1.0000
  C   C39       1.0  0.83902  0.26303  0.86748  1.0000
  C   C40       1.0  0.46937  0.23688  0.63259  1.0000
  N   N1        1.0  0.19526  0.09102  0.14612  1.0000
  N   N2        1.0  0.93262  0.40885  0.35393  1.0000
  N   N3        1.0  0.80474  0.90898  0.85388  1.0000
  N   N4        1.0  0.06738  0.59115  0.64607  1.0000
  N   N5        1.0  0.37196  0.03485  0.20328  1.0000
  N   N6        1.0  0.11051  0.46475  0.29666  1.0000
  N   N7        1.0  0.62804  0.96516  0.79672  1.0000
  N   N8        1.0  0.88949  0.53525  0.70334  1.0000
  N   N9        1.0  0.21257  0.82561  0.23349  1.0000
  N   N10       1.0  0.77184  0.67443  0.26660  1.0000
  N   N11       1.0  0.78743  0.17439  0.76651  1.0000
  N   N12       1.0  0.22816  0.32556  0.73340  1.0000
  N   N13       1.0  0.14117  0.85577  0.16487  1.0000
  N   N14       1.0  0.66194  0.64436  0.33528  1.0000
  N   N15       1.0  0.85884  0.14423  0.83513  1.0000
  N   N16       1.0  0.33806  0.35564  0.66471  1.0000
  N   N17       1.0  0.23889  0.63332  0.17875  1.0000
  N   N18       1.0  0.55119  0.86667  0.32099  1.0000
  N   N19       1.0  0.76111  0.36668  0.82125  1.0000
  N   N20       1.0  0.44881  0.13333  0.67901  1.0000
  Cl  Cl1       1.0  0.82523  0.01747  0.11073  1.0000
  Cl  Cl2       1.0  0.45337  0.48267  0.38925  1.0000
  Cl  Cl3       1.0  0.17477  0.98253  0.88927  1.0000
  Cl  Cl4       1.0  0.54663  0.51733  0.61075  1.0000
  Cl  Cl5       1.0  0.85649  0.34432  0.12204  1.0000
  Cl  Cl6       1.0  0.82267  0.15585  0.37799  1.0000
  Cl  Cl7       1.0  0.14351  0.65568  0.87796  1.0000
  Cl  Cl8       1.0  0.17733  0.84415  0.62200  1.0000
