data_image0
_chemical_formula_structural       Cd4H36C40I8N20
_chemical_formula_sum              "Cd4 H36 C40 I8 N20"
_cell_length_a       7.35123
_cell_length_b       14.3025
_cell_length_c       17.5155
_cell_angle_alpha    89.9993
_cell_angle_beta     89.997
_cell_angle_gamma    107.796

_space_group_name_H-M_alt    "P 1"
_space_group_IT_number       1

loop_
  _space_group_symop_operation_xyz
  'x, y, z'

loop_
  _atom_site_type_symbol
  _atom_site_label
  _atom_site_symmetry_multiplicity
  _atom_site_fract_x
  _atom_site_fract_y
  _atom_site_fract_z
  _atom_site_occupancy
  Cd  Cd1       1.0  0.19210  0.57353  0.24728  1.0000
  Cd  Cd2       1.0  0.80791  0.92647  0.74728  1.0000
  Cd  Cd3       1.0  0.80792  0.42647  0.75273  1.0000
  Cd  Cd4       1.0  0.19210  0.07353  0.25271  1.0000
  H   H1        1.0  0.65824  0.39186  0.45297  1.0000
  H   H2        1.0  0.34172  0.10813  0.95294  1.0000
  H   H3        1.0  0.34176  0.60813  0.54705  1.0000
  H   H4        1.0  0.65828  0.89187  0.04705  1.0000
  H   H5        1.0  0.17020  0.74179  0.38850  1.0000
  H   H6        1.0  0.82980  0.75820  0.88851  1.0000
  H   H7        1.0  0.82976  0.25821  0.61149  1.0000
  H   H8        1.0  0.17020  0.24180  0.11149  1.0000
  H   H9        1.0  0.05873  0.81959  0.49976  1.0000
  H   H10       1.0  0.94128  0.68040  0.99977  1.0000
  H   H11       1.0  0.94124  0.18040  0.50023  1.0000
  H   H12       1.0  0.05872  0.31961  0.00023  1.0000
  H   H13       1.0  0.80406  0.72303  0.58394  1.0000
  H   H14       1.0  0.19596  0.77696  0.08394  1.0000
  H   H15       1.0  0.19595  0.27696  0.41605  1.0000
  H   H16       1.0  0.80404  0.22304  0.91606  1.0000
  H   H17       1.0  0.65247  0.54152  0.56481  1.0000
  H   H18       1.0  0.34752  0.95849  0.06479  1.0000
  H   H19       1.0  0.34753  0.45848  0.43520  1.0000
  H   H20       1.0  0.65247  0.04152  0.93521  1.0000
  H   H21       1.0  0.69280  0.30735  0.32657  1.0000
  H   H22       1.0  0.30715  0.19265  0.82654  1.0000
  H   H23       1.0  0.30719  0.69265  0.67344  1.0000
  H   H24       1.0  0.69285  0.80734  0.17344  1.0000
  H   H25       1.0  0.78142  0.39543  0.25246  1.0000
  H   H26       1.0  0.21854  0.10457  0.75244  1.0000
  H   H27       1.0  0.21858  0.60457  0.74755  1.0000
  H   H28       1.0  0.78144  0.89541  0.24755  1.0000
  H   H29       1.0  0.84749  0.17337  0.30644  1.0000
  H   H30       1.0  0.15245  0.32662  0.80642  1.0000
  H   H31       1.0  0.15253  0.82663  0.69357  1.0000
  H   H32       1.0  0.84755  0.67337  0.19358  1.0000
  H   H33       1.0  0.39455  0.35105  0.24124  1.0000
  H   H34       1.0  0.60539  0.14892  0.74125  1.0000
  H   H35       1.0  0.60545  0.64895  0.75876  1.0000
  H   H36       1.0  0.39461  0.85109  0.25874  1.0000
  C   C1        1.0  0.96559  0.59926  0.41216  1.0000
  C   C2        1.0  0.03444  0.90074  0.91215  1.0000
  C   C3        1.0  0.03443  0.40075  0.58784  1.0000
  C   C4        1.0  0.96556  0.09926  0.08785  1.0000
  C   C5        1.0  0.05783  0.69894  0.42619  1.0000
  C   C6        1.0  0.94216  0.80106  0.92619  1.0000
  C   C7        1.0  0.94216  0.30108  0.57381  1.0000
  C   C8        1.0  0.05783  0.19893  0.07381  1.0000
  C   C9        1.0  0.99624  0.74126  0.48863  1.0000
  C   C10       1.0  0.00378  0.75874  0.98862  1.0000
  C   C11       1.0  0.00375  0.25875  0.51137  1.0000
  C   C12       1.0  0.99622  0.24126  0.01138  1.0000
  C   C13       1.0  0.84952  0.68551  0.53695  1.0000
  C   C14       1.0  0.15049  0.81451  0.03695  1.0000
  C   C15       1.0  0.15049  0.31451  0.46305  1.0000
  C   C16       1.0  0.84951  0.18549  0.96305  1.0000
  C   C17       1.0  0.76162  0.58528  0.52600  1.0000
  C   C18       1.0  0.23838  0.91473  0.02598  1.0000
  C   C19       1.0  0.23840  0.41473  0.47401  1.0000
  C   C20       1.0  0.76160  0.08527  0.97402  1.0000
  C   C21       1.0  0.82136  0.54378  0.46229  1.0000
  C   C22       1.0  0.17862  0.95624  0.96229  1.0000
  C   C23       1.0  0.17865  0.45624  0.53771  1.0000
  C   C24       1.0  0.82137  0.04376  0.03771  1.0000
  C   C25       1.0  0.85702  0.45211  0.36397  1.0000
  C   C26       1.0  0.14295  0.04787  0.86397  1.0000
  C   C27       1.0  0.14297  0.54787  0.63603  1.0000
  C   C28       1.0  0.85704  0.95212  0.13603  1.0000
  C   C29       1.0  0.81500  0.36897  0.30848  1.0000
  C   C30       1.0  0.18498  0.13102  0.80847  1.0000
  C   C31       1.0  0.18503  0.63101  0.69151  1.0000
  C   C32       1.0  0.81501  0.86898  0.19151  1.0000
  C   C33       1.0  0.97052  0.23552  0.29261  1.0000
  C   C34       1.0  0.02939  0.26446  0.79260  1.0000
  C   C35       1.0  0.02945  0.76447  0.70739  1.0000
  C   C36       1.0  0.97061  0.73554  0.20740  1.0000
  C   C37       1.0  0.24711  0.32733  0.26045  1.0000
  C   C38       1.0  0.75283  0.17264  0.76046  1.0000
  C   C39       1.0  0.75288  0.67266  0.73955  1.0000
  C   C40       1.0  0.24717  0.82736  0.23954  1.0000
  I   I1        1.0  0.99484  0.50287  0.11515  1.0000
  I   I2        1.0  0.00515  0.99714  0.61514  1.0000
  I   I3        1.0  0.00517  0.49713  0.88486  1.0000
  I   I4        1.0  0.99492  0.00285  0.38486  1.0000
  I   I5        1.0  0.54343  0.63896  0.31677  1.0000
  I   I6        1.0  0.45658  0.86100  0.81681  1.0000
  I   I7        1.0  0.45658  0.36109  0.68324  1.0000
  I   I8        1.0  0.54344  0.13902  0.18319  1.0000
  N   N1        1.0  0.98241  0.53977  0.35152  1.0000
  N   N2        1.0  0.01759  0.96024  0.85152  1.0000
  N   N3        1.0  0.01762  0.46024  0.64847  1.0000
  N   N4        1.0  0.98241  0.03976  0.14847  1.0000
  N   N5        1.0  0.75863  0.45071  0.43040  1.0000
  N   N6        1.0  0.24135  0.04929  0.93038  1.0000
  N   N7        1.0  0.24137  0.54929  0.56961  1.0000
  N   N8        1.0  0.75865  0.95071  0.06962  1.0000
  N   N9        1.0  0.97432  0.32997  0.29595  1.0000
  N   N10       1.0  0.02563  0.17000  0.79593  1.0000
  N   N11       1.0  0.02568  0.67001  0.70406  1.0000
  N   N12       1.0  0.97437  0.82999  0.20405  1.0000
  N   N13       1.0  0.14992  0.38962  0.27562  1.0000
  N   N14       1.0  0.85002  0.11035  0.77562  1.0000
  N   N15       1.0  0.85006  0.61037  0.72438  1.0000
  N   N16       1.0  0.14998  0.88964  0.22436  1.0000
  N   N17       1.0  0.14159  0.23164  0.27028  1.0000
  N   N18       1.0  0.85832  0.26834  0.77027  1.0000
  N   N19       1.0  0.85838  0.76836  0.72973  1.0000
  N   N20       1.0  0.14169  0.73166  0.22973  1.0000
