data_image0
_chemical_formula_structural       Cu2H14C20N6O8
_chemical_formula_sum              "Cu2 H14 C20 N6 O8"
_cell_length_a       7.45537
_cell_length_b       7.45488
_cell_length_c       10.1072
_cell_angle_alpha    90.893
_cell_angle_beta     90.8956
_cell_angle_gamma    116.421

_space_group_name_H-M_alt    "P 1"
_space_group_IT_number       1

loop_
  _space_group_symop_operation_xyz
  'x, y, z'

loop_
  _atom_site_type_symbol
  _atom_site_label
  _atom_site_symmetry_multiplicity
  _atom_site_fract_x
  _atom_site_fract_y
  _atom_site_fract_z
  _atom_site_occupancy
  Cu  Cu1       1.0  0.31578  0.49760  0.81900  1.0000
  Cu  Cu2       1.0  0.49761  0.31578  0.31900  1.0000
  H   H1        1.0  0.78592  0.06859  0.82941  1.0000
  H   H2        1.0  0.06859  0.78591  0.32941  1.0000
  H   H3        1.0  0.97423  0.51555  0.63581  1.0000
  H   H4        1.0  0.51559  0.97426  0.13582  1.0000
  H   H5        1.0  0.81639  0.74651  0.69414  1.0000
  H   H6        1.0  0.74654  0.81640  0.19414  1.0000
  H   H7        1.0  0.27205  0.83834  0.98400  1.0000
  H   H8        1.0  0.83833  0.27205  0.48403  1.0000
  H   H9        1.0  0.83114  0.31686  0.00816  1.0000
  H   H10       1.0  0.31678  0.83109  0.50818  1.0000
  H   H11       1.0  0.53599  0.00415  0.64660  1.0000
  H   H12       1.0  0.00419  0.53604  0.14658  1.0000
  H   H13       1.0  0.99476  0.96642  0.90646  1.0000
  H   H14       1.0  0.96643  0.99476  0.40648  1.0000
  C   C1        1.0  0.69469  0.14881  0.82818  1.0000
  C   C2        1.0  0.14879  0.69468  0.32818  1.0000
  C   C3        1.0  0.01926  0.61975  0.71941  1.0000
  C   C4        1.0  0.61978  0.01927  0.21943  1.0000
  C   C5        1.0  0.60545  0.39318  0.92312  1.0000
  C   C6        1.0  0.39315  0.60542  0.42313  1.0000
  C   C7        1.0  0.44043  0.21798  0.72773  1.0000
  C   C8        1.0  0.21800  0.44045  0.22770  1.0000
  C   C9        1.0  0.16806  0.78901  0.90031  1.0000
  C   C10       1.0  0.78901  0.16806  0.40033  1.0000
  C   C11       1.0  0.72066  0.28920  0.92916  1.0000
  C   C12       1.0  0.28915  0.72062  0.42917  1.0000
  C   C13       1.0  0.55486  0.11263  0.72538  1.0000
  C   C14       1.0  0.11264  0.55488  0.22537  1.0000
  C   C15       1.0  0.61609  0.55910  0.01481  1.0000
  C   C16       1.0  0.55904  0.61605  0.51484  1.0000
  C   C17       1.0  0.02870  0.85225  0.86170  1.0000
  C   C18       1.0  0.85227  0.02872  0.36172  1.0000
  C   C19       1.0  0.27765  0.19970  0.62979  1.0000
  C   C20       1.0  0.19976  0.27769  0.12976  1.0000
  N   N1        1.0  0.16115  0.64384  0.81068  1.0000
  N   N2        1.0  0.64385  0.16115  0.31070  1.0000
  N   N3        1.0  0.93698  0.74364  0.74787  1.0000
  N   N4        1.0  0.74366  0.93699  0.24789  1.0000
  N   N5        1.0  0.47020  0.35322  0.82444  1.0000
  N   N6        1.0  0.35321  0.47020  0.32444  1.0000
  O   O1        1.0  0.19040  0.31257  0.65741  1.0000
  O   O2        1.0  0.31263  0.19045  0.15738  1.0000
  O   O3        1.0  0.23763  0.08521  0.53102  1.0000
  O   O4        1.0  0.08528  0.23767  0.03098  1.0000
  O   O5        1.0  0.50136  0.64060  0.98187  1.0000
  O   O6        1.0  0.64054  0.50131  0.48190  1.0000
  O   O7        1.0  0.73148  0.60934  0.11499  1.0000
  O   O8        1.0  0.60927  0.73144  0.61501  1.0000
