data_image0
_chemical_formula_structural       Cu2H26C26N4Cl2O8
_chemical_formula_sum              "Cu2 H26 C26 N4 Cl2 O8"
_cell_length_a       8.28322
_cell_length_b       8.74542
_cell_length_c       11.4161
_cell_angle_alpha    76.4401
_cell_angle_beta     92.7911
_cell_angle_gamma    69.9272

_space_group_name_H-M_alt    "P 1"
_space_group_IT_number       1

loop_
  _space_group_symop_operation_xyz
  'x, y, z'

loop_
  _atom_site_type_symbol
  _atom_site_label
  _atom_site_symmetry_multiplicity
  _atom_site_fract_x
  _atom_site_fract_y
  _atom_site_fract_z
  _atom_site_occupancy
  Cu  Cu1       1.0  0.39131  0.66634  0.96833  1.0000
  Cu  Cu2       1.0  0.60869  0.33368  0.03165  1.0000
  H   H1        1.0  0.40862  0.29079  0.43476  1.0000
  H   H2        1.0  0.59138  0.70919  0.56524  1.0000
  H   H3        1.0  0.60923  0.16606  0.29600  1.0000
  H   H4        1.0  0.39078  0.83392  0.70401  1.0000
  H   H5        1.0  0.88761  0.93784  0.37581  1.0000
  H   H6        1.0  0.11240  0.06213  0.62421  1.0000
  H   H7        1.0  0.98361  0.81360  0.60170  1.0000
  H   H8        1.0  0.01638  0.18639  0.39832  1.0000
  H   H9        1.0  0.57382  0.02956  0.88976  1.0000
  H   H10       1.0  0.42616  0.97045  0.11025  1.0000
  H   H11       1.0  0.27285  0.21730  0.76905  1.0000
  H   H12       1.0  0.72714  0.78272  0.23094  1.0000
  H   H13       1.0  0.25118  0.26676  0.60832  1.0000
  H   H14       1.0  0.74880  0.73325  0.39168  1.0000
  H   H15       1.0  0.39379  0.48813  0.61140  1.0000
  H   H16       1.0  0.60622  0.51185  0.38858  1.0000
  H   H17       1.0  0.18246  0.53536  0.65061  1.0000
  H   H18       1.0  0.81755  0.46464  0.34937  1.0000
  H   H19       1.0  0.87454  0.81505  0.94528  1.0000
  H   H20       1.0  0.12543  0.18497  0.05473  1.0000
  H   H21       1.0  0.01389  0.80896  0.83345  1.0000
  H   H22       1.0  0.98610  0.19107  0.16658  1.0000
  H   H23       1.0  0.87754  0.62200  0.74904  1.0000
  H   H24       1.0  0.12247  0.37801  0.25097  1.0000
  H   H25       1.0  0.01545  0.52825  0.88870  1.0000
  H   H26       1.0  0.98456  0.47176  0.11131  1.0000
  C   C1        1.0  0.58505  0.11720  0.59588  1.0000
  C   C2        1.0  0.41494  0.88279  0.40412  1.0000
  C   C3        1.0  0.53315  0.18852  0.47104  1.0000
  C   C4        1.0  0.46685  0.81146  0.52896  1.0000
  C   C5        1.0  0.64491  0.11839  0.39424  1.0000
  C   C6        1.0  0.35509  0.88159  0.60577  1.0000
  C   C7        1.0  0.80475  0.98486  0.44077  1.0000
  C   C8        1.0  0.19525  0.01512  0.55924  1.0000
  C   C9        1.0  0.85818  0.91443  0.56561  1.0000
  C   C10       1.0  0.14182  0.08556  0.43440  1.0000
  C   C11       1.0  0.74478  0.98242  0.64241  1.0000
  C   C12       1.0  0.25520  0.01757  0.35760  1.0000
  C   C13       1.0  0.60389  0.03670  0.79771  1.0000
  C   C14       1.0  0.39610  0.96331  0.20229  1.0000
  C   C15       1.0  0.32686  0.26837  0.68937  1.0000
  C   C16       1.0  0.67313  0.73163  0.31063  1.0000
  C   C17       1.0  0.31753  0.44804  0.68049  1.0000
  C   C18       1.0  0.68248  0.55196  0.31949  1.0000
  C   C19       1.0  0.38144  0.47113  0.80004  1.0000
  C   C20       1.0  0.61860  0.52885  0.19995  1.0000
  C   C21       1.0  0.88985  0.79715  0.85390  1.0000
  C   C22       1.0  0.11014  0.20286  0.14612  1.0000
  C   C23       1.0  0.88966  0.62515  0.84495  1.0000
  C   C24       1.0  0.11036  0.37486  0.15506  1.0000
  C   C25       1.0  0.74560  0.57438  0.90104  1.0000
  C   C26       1.0  0.25439  0.42564  0.09894  1.0000
  N   N1        1.0  0.50177  0.14689  0.69595  1.0000
  N   N2        1.0  0.49820  0.85310  0.30405  1.0000
  N   N3        1.0  0.75113  0.93795  0.76860  1.0000
  N   N4        1.0  0.24886  0.06206  0.23141  1.0000
  Cl  Cl1       1.0  0.23224  0.97405  0.90504  1.0000
  Cl  Cl2       1.0  0.76776  0.02596  0.09494  1.0000
  O   O1        1.0  0.30942  0.61550  0.81845  1.0000
  O   O2        1.0  0.69046  0.38445  0.18160  1.0000
  O   O3        1.0  0.50150  0.34332  0.86935  1.0000
  O   O4        1.0  0.49867  0.65675  0.13055  1.0000
  O   O5        1.0  0.60072  0.69327  0.89344  1.0000
  O   O6        1.0  0.39922  0.30672  0.10642  1.0000
  O   O7        1.0  0.78384  0.41762  0.94953  1.0000
  O   O8        1.0  0.21623  0.58240  0.05059  1.0000
