data_image0
_chemical_formula_structural       Cd2H48C48N8O12
_chemical_formula_sum              "Cd2 H48 C48 N8 O12"
_cell_length_a       10.2076
_cell_length_b       11.5398
_cell_length_c       12.1185
_cell_angle_alpha    118.433
_cell_angle_beta     114.903
_cell_angle_gamma    89.9998

_space_group_name_H-M_alt    "P 1"
_space_group_IT_number       1

loop_
  _space_group_symop_operation_xyz
  'x, y, z'

loop_
  _atom_site_type_symbol
  _atom_site_label
  _atom_site_symmetry_multiplicity
  _atom_site_fract_x
  _atom_site_fract_y
  _atom_site_fract_z
  _atom_site_occupancy
  Cd  Cd1       1.0  0.89923  0.49993  0.99993  1.0000
  Cd  Cd2       1.0  0.39923  0.50000  0.99993  1.0000
  H   H1        1.0  0.58431  0.50356  0.62749  1.0000
  H   H2        1.0  0.95741  0.49650  0.37279  1.0000
  H   H3        1.0  0.08431  0.12393  0.62749  1.0000
  H   H4        1.0  0.45741  0.87629  0.37280  1.0000
  H   H5        1.0  0.24127  0.27040  0.61118  1.0000
  H   H6        1.0  0.63055  0.72951  0.38888  1.0000
  H   H7        1.0  0.74126  0.34078  0.61118  1.0000
  H   H8        1.0  0.13055  0.65937  0.38888  1.0000
  H   H9        1.0  0.05228  0.27088  0.39883  1.0000
  H   H10       1.0  0.65368  0.72894  0.60113  1.0000
  H   H11       1.0  0.55228  0.12794  0.39883  1.0000
  H   H12       1.0  0.15368  0.87220  0.60113  1.0000
  H   H13       1.0  0.39595  0.50879  0.41853  1.0000
  H   H14       1.0  0.97788  0.49125  0.58164  1.0000
  H   H15       1.0  0.89596  0.90974  0.41853  1.0000
  H   H16       1.0  0.47788  0.09039  0.58164  1.0000
  H   H17       1.0  0.14785  0.71315  0.01092  1.0000
  H   H18       1.0  0.13679  0.28656  0.98920  1.0000
  H   H19       1.0  0.64785  0.29778  0.01092  1.0000
  H   H20       1.0  0.63679  0.70264  0.98920  1.0000
  H   H21       1.0  0.87424  0.80459  0.20613  1.0000
  H   H22       1.0  0.66804  0.19541  0.79361  1.0000
  H   H23       1.0  0.37424  0.40154  0.20613  1.0000
  H   H24       1.0  0.16804  0.59821  0.79362  1.0000
  H   H25       1.0  0.06434  0.04775  0.30797  1.0000
  H   H26       1.0  0.75608  0.95214  0.69158  1.0000
  H   H27       1.0  0.56434  0.26021  0.30797  1.0000
  H   H28       1.0  0.25608  0.73944  0.69158  1.0000
  H   H29       1.0  0.33249  0.94758  0.15921  1.0000
  H   H30       1.0  0.17312  0.05227  0.84082  1.0000
  H   H31       1.0  0.83249  0.21163  0.15921  1.0000
  H   H32       1.0  0.67312  0.78855  0.84082  1.0000
  H   H33       1.0  0.30342  0.08650  0.29069  1.0000
  H   H34       1.0  0.01264  0.91335  0.70915  1.0000
  H   H35       1.0  0.80342  0.20418  0.29069  1.0000
  H   H36       1.0  0.51264  0.79580  0.70915  1.0000
  H   H37       1.0  0.27419  0.12702  0.10131  1.0000
  H   H38       1.0  0.17253  0.87255  0.89831  1.0000
  H   H39       1.0  0.77419  0.97429  0.10131  1.0000
  H   H40       1.0  0.67253  0.02575  0.89831  1.0000
  H   H41       1.0  0.10586  0.11682  0.10775  1.0000
  H   H42       1.0  0.99792  0.88295  0.89221  1.0000
  H   H43       1.0  0.60586  0.99093  0.10774  1.0000
  H   H44       1.0  0.49792  0.00926  0.89221  1.0000
  H   H45       1.0  0.14060  0.44184  0.24936  1.0000
  H   H46       1.0  0.89134  0.55811  0.75078  1.0000
  H   H47       1.0  0.64060  0.80751  0.24936  1.0000
  H   H48       1.0  0.39134  0.19267  0.75077  1.0000
  C   C1        1.0  0.54231  0.39017  0.76231  1.0000
  C   C2        1.0  0.78039  0.60977  0.23776  1.0000
  C   C3        1.0  0.04230  0.37214  0.76231  1.0000
  C   C4        1.0  0.28039  0.62799  0.23776  1.0000
  C   C5        1.0  0.42691  0.38315  0.63081  1.0000
  C   C6        1.0  0.79669  0.61690  0.36939  1.0000
  C   C7        1.0  0.92690  0.24765  0.63081  1.0000
  C   C8        1.0  0.29668  0.75249  0.36939  1.0000
  C   C9        1.0  0.46774  0.45024  0.57472  1.0000
  C   C10       1.0  0.89357  0.54983  0.42552  1.0000
  C   C11       1.0  0.96773  0.12448  0.57472  1.0000
  C   C12       1.0  0.39357  0.87569  0.42552  1.0000
  C   C13       1.0  0.27601  0.31820  0.56576  1.0000
  C   C14       1.0  0.71080  0.68184  0.43441  1.0000
  C   C15       1.0  0.77601  0.24757  0.56576  1.0000
  C   C16       1.0  0.21080  0.75257  0.43441  1.0000
  C   C17       1.0  0.16988  0.31863  0.44732  1.0000
  C   C18       1.0  0.72301  0.68139  0.55282  1.0000
  C   C19       1.0  0.66987  0.12869  0.44732  1.0000
  C   C20       1.0  0.22300  0.87143  0.55282  1.0000
  C   C21       1.0  0.36225  0.45283  0.45755  1.0000
  C   C22       1.0  0.90519  0.54727  0.54272  1.0000
  C   C23       1.0  0.86225  0.00472  0.45755  1.0000
  C   C24       1.0  0.40519  0.99545  0.54272  1.0000
  C   C25       1.0  0.21144  0.38557  0.39116  1.0000
  C   C26       1.0  0.82066  0.61446  0.60905  1.0000
  C   C27       1.0  0.71144  0.00559  0.39116  1.0000
  C   C28       1.0  0.32066  0.99459  0.60905  1.0000
  C   C29       1.0  0.09679  0.77048  0.07542  1.0000
  C   C30       1.0  0.02123  0.22929  0.92462  1.0000
  C   C31       1.0  0.59679  0.30494  0.07542  1.0000
  C   C32       1.0  0.52123  0.69533  0.92462  1.0000
  C   C33       1.0  0.95822  0.82323  0.18016  1.0000
  C   C34       1.0  0.77795  0.17666  0.81967  1.0000
  C   C35       1.0  0.45822  0.35693  0.18016  1.0000
  C   C36       1.0  0.27795  0.64301  0.81967  1.0000
  C   C37       1.0  0.05000  0.94305  0.22993  1.0000
  C   C38       1.0  0.81985  0.05680  0.76977  1.0000
  C   C39       1.0  0.55000  0.28688  0.22994  1.0000
  C   C40       1.0  0.31986  0.71297  0.76978  1.0000
  C   C41       1.0  0.24874  0.00188  0.17872  1.0000
  C   C42       1.0  0.06981  0.99789  0.82115  1.0000
  C   C43       1.0  0.74874  0.17684  0.17872  1.0000
  C   C44       1.0  0.56981  0.82327  0.82115  1.0000
  C   C45       1.0  0.18174  0.05579  0.07901  1.0000
  C   C46       1.0  0.10252  0.94389  0.92080  1.0000
  C   C47       1.0  0.68174  0.02322  0.07901  1.0000
  C   C48       1.0  0.60252  0.97691  0.92080  1.0000
  N   N1        1.0  0.98837  0.71675  0.08377  1.0000
  N   N2        1.0  0.90450  0.28308  0.91623  1.0000
  N   N3        1.0  0.48837  0.36702  0.08377  1.0000
  N   N4        1.0  0.40450  0.63315  0.91623  1.0000
  N   N5        1.0  0.13699  0.90766  0.16269  1.0000
  N   N6        1.0  0.97409  0.09211  0.83719  1.0000
  N   N7        1.0  0.63699  0.25503  0.16270  1.0000
  N   N8        1.0  0.47409  0.74508  0.83719  1.0000
  O   O1        1.0  0.50478  0.33515  0.81872  1.0000
  O   O2        1.0  0.68659  0.66495  0.18147  1.0000
  O   O3        1.0  0.00478  0.48358  0.81872  1.0000
  O   O4        1.0  0.18659  0.51652  0.18147  1.0000
  O   O5        1.0  0.67490  0.45439  0.81335  1.0000
  O   O6        1.0  0.86170  0.54525  0.18653  1.0000
  O   O7        1.0  0.17490  0.35896  0.81335  1.0000
  O   O8        1.0  0.36169  0.64127  0.18653  1.0000
  O   O9        1.0  0.10319  0.38291  0.27620  1.0000
  O   O10       1.0  0.82713  0.61708  0.72389  1.0000
  O   O11       1.0  0.60319  0.89329  0.27620  1.0000
  O   O12       1.0  0.32713  0.10681  0.72389  1.0000
