data_image0
_chemical_formula_structural       CdH16C20N6O10
_chemical_formula_sum              "Cd1 H16 C20 N6 O10"
_cell_length_a       6.3678
_cell_length_b       7.47436
_cell_length_c       11.102
_cell_angle_alpha    82.3701
_cell_angle_beta     87.8449
_cell_angle_gamma    84.4993

_space_group_name_H-M_alt    "P 1"
_space_group_IT_number       1

loop_
  _space_group_symop_operation_xyz
  'x, y, z'

loop_
  _atom_site_type_symbol
  _atom_site_label
  _atom_site_symmetry_multiplicity
  _atom_site_fract_x
  _atom_site_fract_y
  _atom_site_fract_z
  _atom_site_occupancy
  Cd  Cd1       1.0  0.00000  0.50000  0.50000  1.0000
  H   H1        1.0  0.34476  0.72003  0.80355  1.0000
  H   H2        1.0  0.65523  0.27997  0.19645  1.0000
  H   H3        1.0  0.39706  0.46246  0.63871  1.0000
  H   H4        1.0  0.60294  0.53754  0.36129  1.0000
  H   H5        1.0  0.31344  0.26510  0.65244  1.0000
  H   H6        1.0  0.68656  0.73490  0.34756  1.0000
  H   H7        1.0  0.24743  0.82829  0.08060  1.0000
  H   H8        1.0  0.75258  0.17170  0.91940  1.0000
  H   H9        1.0  0.24821  0.33164  0.84305  1.0000
  H   H10       1.0  0.75180  0.66835  0.15694  1.0000
  H   H11       1.0  0.27369  0.90780  0.57240  1.0000
  H   H12       1.0  0.72633  0.09219  0.42760  1.0000
  H   H13       1.0  0.27111  0.49480  0.02043  1.0000
  H   H14       1.0  0.72890  0.50520  0.97957  1.0000
  H   H15       1.0  0.08635  0.73374  0.25110  1.0000
  H   H16       1.0  0.91364  0.26627  0.74889  1.0000
  C   C1        1.0  0.24777  0.06922  0.16906  1.0000
  C   C2        1.0  0.75225  0.93078  0.83094  1.0000
  C   C3        1.0  0.24478  0.97511  0.06872  1.0000
  C   C4        1.0  0.75521  0.02488  0.93129  1.0000
  C   C5        1.0  0.29729  0.36375  0.25596  1.0000
  C   C6        1.0  0.70273  0.63625  0.74405  1.0000
  C   C7        1.0  0.26456  0.96607  0.84399  1.0000
  C   C8        1.0  0.73543  0.03394  0.15598  1.0000
  C   C9        1.0  0.24826  0.25699  0.93423  1.0000
  C   C10       1.0  0.75174  0.74299  0.06577  1.0000
  C   C11       1.0  0.24299  0.90214  0.47739  1.0000
  C   C12       1.0  0.75701  0.09787  0.52261  1.0000
  C   C13       1.0  0.26557  0.25661  0.15283  1.0000
  C   C14       1.0  0.73443  0.74339  0.84717  1.0000
  C   C15       1.0  0.24644  0.06776  0.95094  1.0000
  C   C16       1.0  0.75357  0.93222  0.04906  1.0000
  C   C17       1.0  0.26098  0.34865  0.03438  1.0000
  C   C18       1.0  0.73903  0.65134  0.96561  1.0000
  C   C19       1.0  0.14881  0.81049  0.31528  1.0000
  C   C20       1.0  0.85118  0.18952  0.68472  1.0000
  N   N1        1.0  0.23257  0.97022  0.28667  1.0000
  N   N2        1.0  0.76742  0.02979  0.71333  1.0000
  N   N3        1.0  0.15236  0.76405  0.43489  1.0000
  N   N4        1.0  0.84766  0.23596  0.56511  1.0000
  N   N5        1.0  0.29337  0.03048  0.38996  1.0000
  N   N6        1.0  0.70665  0.96951  0.61004  1.0000
  O   O1        1.0  0.26762  0.78713  0.87115  1.0000
  O   O2        1.0  0.73236  0.21285  0.12886  1.0000
  O   O3        1.0  0.13211  0.42399  0.30847  1.0000
  O   O4        1.0  0.86787  0.57603  0.69152  1.0000
  O   O5        1.0  0.48823  0.39319  0.27246  1.0000
  O   O6        1.0  0.51176  0.60681  0.72754  1.0000
  O   O7        1.0  0.28136  0.04245  0.73831  1.0000
  O   O8        1.0  0.71862  0.95753  0.26170  1.0000
  O   O9        1.0  0.31330  0.38175  0.59944  1.0000
  O   O10       1.0  0.68671  0.61825  0.40057  1.0000
