data_image0
_chemical_formula_structural       Ca2Zn2H12C20O20
_chemical_formula_sum              "Ca2 Zn2 H12 C20 O20"
_cell_length_a       6.10243
_cell_length_b       9.89794
_cell_length_c       10.3144
_cell_angle_alpha    90.0001
_cell_angle_beta     94.6027
_cell_angle_gamma    90

_space_group_name_H-M_alt    "P 1"
_space_group_IT_number       1

loop_
  _space_group_symop_operation_xyz
  'x, y, z'

loop_
  _atom_site_type_symbol
  _atom_site_label
  _atom_site_symmetry_multiplicity
  _atom_site_fract_x
  _atom_site_fract_y
  _atom_site_fract_z
  _atom_site_occupancy
  Ca  Ca1       1.0  0.25000  0.49087  0.75000  1.0000
  Ca  Ca2       1.0  0.75000  0.50913  0.25000  1.0000
  Zn  Zn1       1.0  0.75000  0.22637  0.75000  1.0000
  Zn  Zn2       1.0  0.25000  0.77363  0.25000  1.0000
  H   H1        1.0  0.84473  0.63244  0.86082  1.0000
  H   H2        1.0  0.65527  0.63244  0.63917  1.0000
  H   H3        1.0  0.15526  0.36756  0.13916  1.0000
  H   H4        1.0  0.34472  0.36756  0.36082  1.0000
  H   H5        1.0  0.84898  0.48097  0.89732  1.0000
  H   H6        1.0  0.65101  0.48097  0.60268  1.0000
  H   H7        1.0  0.15101  0.51903  0.10268  1.0000
  H   H8        1.0  0.34899  0.51903  0.39732  1.0000
  H   H9        1.0  0.84962  0.09306  0.10084  1.0000
  H   H10       1.0  0.65038  0.09305  0.39916  1.0000
  H   H11       1.0  0.15037  0.90694  0.89917  1.0000
  H   H12       1.0  0.34962  0.90694  0.60084  1.0000
  C   C1        1.0  0.58739  0.28988  0.00110  1.0000
  C   C2        1.0  0.91262  0.28988  0.49890  1.0000
  C   C3        1.0  0.41261  0.71012  0.99890  1.0000
  C   C4        1.0  0.08739  0.71012  0.50110  1.0000
  C   C5        1.0  0.15974  0.17483  0.88170  1.0000
  C   C6        1.0  0.34026  0.17483  0.61830  1.0000
  C   C7        1.0  0.84025  0.82517  0.11830  1.0000
  C   C8        1.0  0.65974  0.82517  0.38170  1.0000
  C   C9        1.0  0.53461  0.14095  0.00022  1.0000
  C   C10       1.0  0.96539  0.14095  0.49978  1.0000
  C   C11       1.0  0.46539  0.85905  0.99979  1.0000
  C   C12       1.0  0.03461  0.85905  0.50021  1.0000
  C   C13       1.0  0.33638  0.08621  0.94416  1.0000
  C   C14       1.0  0.16361  0.08621  0.55584  1.0000
  C   C15       1.0  0.66362  0.91380  0.05584  1.0000
  C   C16       1.0  0.83638  0.91379  0.44416  1.0000
  C   C17       1.0  0.69516  0.05374  0.05587  1.0000
  C   C18       1.0  0.80484  0.05374  0.44413  1.0000
  C   C19       1.0  0.30484  0.94626  0.94413  1.0000
  C   C20       1.0  0.19516  0.94625  0.55587  1.0000
  O   O1        1.0  0.66273  0.34102  0.89768  1.0000
  O   O2        1.0  0.83727  0.34102  0.60233  1.0000
  O   O3        1.0  0.33726  0.65899  0.10232  1.0000
  O   O4        1.0  0.16273  0.65898  0.39767  1.0000
  O   O5        1.0  0.57115  0.35481  0.10389  1.0000
  O   O6        1.0  0.92885  0.35481  0.39611  1.0000
  O   O7        1.0  0.42885  0.64519  0.89611  1.0000
  O   O8        1.0  0.07115  0.64519  0.60389  1.0000
  O   O9        1.0  0.18435  0.30145  0.88392  1.0000
  O   O10       1.0  0.31565  0.30145  0.61609  1.0000
  O   O11       1.0  0.81564  0.69855  0.11608  1.0000
  O   O12       1.0  0.68435  0.69855  0.38392  1.0000
  O   O13       1.0  0.99060  0.11345  0.82720  1.0000
  O   O14       1.0  0.50940  0.11344  0.67280  1.0000
  O   O15       1.0  0.00940  0.88656  0.17280  1.0000
  O   O16       1.0  0.49060  0.88655  0.32720  1.0000
  O   O17       1.0  0.93990  0.55368  0.86319  1.0000
  O   O18       1.0  0.56009  0.55368  0.63681  1.0000
  O   O19       1.0  0.06009  0.44632  0.13681  1.0000
  O   O20       1.0  0.43991  0.44631  0.36319  1.0000
