data_image0
_chemical_formula_structural       Ho2H12C16N2O16
_chemical_formula_sum              "Ho2 H12 C16 N2 O16"
_cell_length_a       7.65056
_cell_length_b       7.60854
_cell_length_c       9.84091
_cell_angle_alpha    111.145
_cell_angle_beta     97.7007
_cell_angle_gamma    91.3461

_space_group_name_H-M_alt    "P 1"
_space_group_IT_number       1

loop_
  _space_group_symop_operation_xyz
  'x, y, z'

loop_
  _atom_site_type_symbol
  _atom_site_label
  _atom_site_symmetry_multiplicity
  _atom_site_fract_x
  _atom_site_fract_y
  _atom_site_fract_z
  _atom_site_occupancy
  Ho  Ho1       1.0  0.64070  0.96798  0.80062  1.0000
  Ho  Ho2       1.0  0.35930  0.03202  0.19938  1.0000
  H   H1        1.0  0.58207  0.44418  0.39542  1.0000
  H   H2        1.0  0.41793  0.55581  0.60457  1.0000
  H   H3        1.0  0.02986  0.86045  0.59489  1.0000
  H   H4        1.0  0.97014  0.13954  0.40512  1.0000
  H   H5        1.0  0.98829  0.52171  0.15058  1.0000
  H   H6        1.0  0.01173  0.47830  0.84943  1.0000
  H   H7        1.0  0.12776  0.76232  0.36667  1.0000
  H   H8        1.0  0.87225  0.23768  0.63334  1.0000
  H   H9        1.0  0.46066  0.30716  0.87754  1.0000
  H   H10       1.0  0.53933  0.69284  0.12246  1.0000
  H   H11       1.0  0.31993  0.16023  0.88844  1.0000
  H   H12       1.0  0.68007  0.83976  0.11155  1.0000
  C   C1        1.0  0.68107  0.30342  0.12320  1.0000
  C   C2        1.0  0.31894  0.69659  0.87680  1.0000
  C   C3        1.0  0.77206  0.46222  0.25738  1.0000
  C   C4        1.0  0.22794  0.53779  0.74261  1.0000
  C   C5        1.0  0.70432  0.51572  0.38983  1.0000
  C   C6        1.0  0.29569  0.48428  0.61017  1.0000
  C   C7        1.0  0.79287  0.66097  0.51922  1.0000
  C   C8        1.0  0.20712  0.33903  0.48079  1.0000
  C   C9        1.0  0.95068  0.74804  0.50317  1.0000
  C   C10       1.0  0.04932  0.25195  0.49683  1.0000
  C   C11       1.0  0.92812  0.55478  0.24992  1.0000
  C   C12       1.0  0.07188  0.44523  0.75009  1.0000
  C   C13       1.0  0.95517  0.95551  0.04739  1.0000
  C   C14       1.0  0.04483  0.04450  0.95260  1.0000
  C   C15       1.0  0.42170  0.92691  0.48731  1.0000
  C   C16       1.0  0.57830  0.07308  0.51272  1.0000
  N   N1        1.0  0.00983  0.69267  0.37236  1.0000
  N   N2        1.0  0.99017  0.30734  0.62765  1.0000
  O   O1        1.0  0.73209  0.27740  0.00010  1.0000
  O   O2        1.0  0.26792  0.72260  0.99990  1.0000
  O   O3        1.0  0.55814  0.19996  0.13872  1.0000
  O   O4        1.0  0.44185  0.80003  0.86129  1.0000
  O   O5        1.0  0.73400  0.71013  0.64489  1.0000
  O   O6        1.0  0.26599  0.28987  0.35509  1.0000
  O   O7        1.0  0.79411  0.89154  0.99804  1.0000
  O   O8        1.0  0.20591  0.10847  0.00196  1.0000
  O   O9        1.0  0.04417  0.95334  0.16345  1.0000
  O   O10       1.0  0.95584  0.04665  0.83655  1.0000
  O   O11       1.0  0.41123  0.85751  0.58342  1.0000
  O   O12       1.0  0.58874  0.14249  0.41658  1.0000
  O   O13       1.0  0.31252  0.88911  0.36741  1.0000
  O   O14       1.0  0.68746  0.11087  0.63259  1.0000
  O   O15       1.0  0.40355  0.18092  0.82373  1.0000
  O   O16       1.0  0.59644  0.81907  0.17627  1.0000
