data_image0
_chemical_formula_structural       Mg2H32C32O16F4
_chemical_formula_sum              "Mg2 H32 C32 O16 F4"
_cell_length_a       6.81928
_cell_length_b       7.54011
_cell_length_c       17.169
_cell_angle_alpha    94.4365
_cell_angle_beta     89.9992
_cell_angle_gamma    89.9994

_space_group_name_H-M_alt    "P 1"
_space_group_IT_number       1

loop_
  _space_group_symop_operation_xyz
  'x, y, z'

loop_
  _atom_site_type_symbol
  _atom_site_label
  _atom_site_symmetry_multiplicity
  _atom_site_fract_x
  _atom_site_fract_y
  _atom_site_fract_z
  _atom_site_occupancy
  Mg  Mg1       1.0  0.50000  0.50000  1.00000  1.0000
  Mg  Mg2       1.0  1.00000  0.00000  1.00000  1.0000
  H   H1        1.0  0.76340  0.37034  0.31263  1.0000
  H   H2        1.0  0.26341  0.12966  0.68737  1.0000
  H   H3        1.0  0.23660  0.62965  0.68737  1.0000
  H   H4        1.0  0.73660  0.87034  0.31263  1.0000
  H   H5        1.0  0.75852  0.51755  0.44883  1.0000
  H   H6        1.0  0.25852  0.98245  0.55117  1.0000
  H   H7        1.0  0.24149  0.48244  0.55117  1.0000
  H   H8        1.0  0.74148  0.01755  0.44883  1.0000
  H   H9        1.0  0.21588  0.87408  0.38692  1.0000
  H   H10       1.0  0.71588  0.62592  0.61308  1.0000
  H   H11       1.0  0.78413  0.12593  0.61308  1.0000
  H   H12       1.0  0.28412  0.37408  0.38692  1.0000
  H   H13       1.0  0.22178  0.73057  0.25188  1.0000
  H   H14       1.0  0.72178  0.76942  0.74812  1.0000
  H   H15       1.0  0.77821  0.26943  0.74812  1.0000
  H   H16       1.0  0.27821  0.23058  0.25188  1.0000
  H   H17       1.0  0.27337  0.49731  0.17095  1.0000
  H   H18       1.0  0.77336  0.00269  0.82905  1.0000
  H   H19       1.0  0.72663  0.50270  0.82905  1.0000
  H   H20       1.0  0.22663  0.99731  0.17095  1.0000
  H   H21       1.0  0.09679  0.63039  0.12576  1.0000
  H   H22       1.0  0.59679  0.86961  0.87424  1.0000
  H   H23       1.0  0.90322  0.36961  0.87424  1.0000
  H   H24       1.0  0.40321  0.13039  0.12576  1.0000
  H   H25       1.0  0.71253  0.40033  0.12885  1.0000
  H   H26       1.0  0.21254  0.09967  0.87115  1.0000
  H   H27       1.0  0.28747  0.59967  0.87115  1.0000
  H   H28       1.0  0.78746  0.90033  0.12885  1.0000
  H   H29       1.0  0.67878  0.25390  0.05941  1.0000
  H   H30       1.0  0.17878  0.24610  0.94059  1.0000
  H   H31       1.0  0.32122  0.74610  0.94059  1.0000
  H   H32       1.0  0.82122  0.75390  0.05940  1.0000
  C   C1        1.0  0.98951  0.54240  0.27366  1.0000
  C   C2        1.0  0.48952  0.95760  0.72635  1.0000
  C   C3        1.0  0.01048  0.45760  0.72634  1.0000
  C   C4        1.0  0.51048  0.04240  0.27365  1.0000
  C   C5        1.0  0.86034  0.48179  0.32925  1.0000
  C   C6        1.0  0.36034  0.01821  0.67075  1.0000
  C   C7        1.0  0.13966  0.51821  0.67075  1.0000
  C   C8        1.0  0.63966  0.98178  0.32925  1.0000
  C   C9        1.0  0.85837  0.56211  0.40495  1.0000
  C   C10       1.0  0.35837  0.93790  0.59505  1.0000
  C   C11       1.0  0.14163  0.43789  0.59505  1.0000
  C   C12       1.0  0.64163  0.06210  0.40495  1.0000
  C   C13       1.0  0.98651  0.70257  0.42377  1.0000
  C   C14       1.0  0.48650  0.79743  0.57623  1.0000
  C   C15       1.0  0.01350  0.29743  0.57623  1.0000
  C   C16       1.0  0.51350  0.20257  0.42377  1.0000
  C   C17       1.0  0.11709  0.76417  0.37014  1.0000
  C   C18       1.0  0.61709  0.73583  0.62986  1.0000
  C   C19       1.0  0.88292  0.23583  0.62986  1.0000
  C   C20       1.0  0.38292  0.26417  0.37014  1.0000
  C   C21       1.0  0.11861  0.68308  0.29391  1.0000
  C   C22       1.0  0.61862  0.81692  0.70609  1.0000
  C   C23       1.0  0.88139  0.31692  0.70609  1.0000
  C   C24       1.0  0.38138  0.18308  0.29391  1.0000
  C   C25       1.0  0.12477  0.49728  0.14538  1.0000
  C   C26       1.0  0.62478  0.00272  0.85463  1.0000
  C   C27       1.0  0.87523  0.50272  0.85462  1.0000
  C   C28       1.0  0.37522  0.99728  0.14537  1.0000
  C   C29       1.0  0.12268  0.36133  0.07555  1.0000
  C   C30       1.0  0.62268  0.13869  0.92444  1.0000
  C   C31       1.0  0.87732  0.63868  0.92445  1.0000
  C   C32       1.0  0.37732  0.86131  0.07556  1.0000
  O   O1        1.0  0.98013  0.45256  0.20056  1.0000
  O   O2        1.0  0.48013  0.04745  0.79944  1.0000
  O   O3        1.0  0.01987  0.54745  0.79944  1.0000
  O   O4        1.0  0.51987  0.95255  0.20056  1.0000
  O   O5        1.0  0.61418  0.35524  0.09085  1.0000
  O   O6        1.0  0.11419  0.14476  0.90915  1.0000
  O   O7        1.0  0.38582  0.64476  0.90915  1.0000
  O   O8        1.0  0.88581  0.85525  0.09085  1.0000
  O   O9        1.0  0.22336  0.40139  0.01664  1.0000
  O   O10       1.0  0.72337  0.09862  0.98336  1.0000
  O   O11       1.0  0.77664  0.59862  0.98336  1.0000
  O   O12       1.0  0.27664  0.90139  0.01664  1.0000
  O   O13       1.0  0.02773  0.21904  0.07895  1.0000
  O   O14       1.0  0.52774  0.28097  0.92104  1.0000
  O   O15       1.0  0.97227  0.78097  0.92105  1.0000
  O   O16       1.0  0.47225  0.71904  0.07896  1.0000
  F   F1        1.0  0.98135  0.78381  0.49807  1.0000
  F   F2        1.0  0.48134  0.71619  0.50194  1.0000
  F   F3        1.0  0.01865  0.21618  0.50193  1.0000
  F   F4        1.0  0.51865  0.28381  0.49806  1.0000
