data_image0
_chemical_formula_structural       Ag4H24C40N4O8
_chemical_formula_sum              "Ag4 H24 C40 N4 O8"
_cell_length_a       8.11442
_cell_length_b       8.45851
_cell_length_c       12.2115
_cell_angle_alpha    88.3606
_cell_angle_beta     99.5353
_cell_angle_gamma    96.1337

_space_group_name_H-M_alt    "P 1"
_space_group_IT_number       1

loop_
  _space_group_symop_operation_xyz
  'x, y, z'

loop_
  _atom_site_type_symbol
  _atom_site_label
  _atom_site_symmetry_multiplicity
  _atom_site_fract_x
  _atom_site_fract_y
  _atom_site_fract_z
  _atom_site_occupancy
  Ag  Ag1       1.0  0.78389  0.37551  0.47397  1.0000
  Ag  Ag2       1.0  0.21612  0.62448  0.52603  1.0000
  Ag  Ag3       1.0  0.61034  0.54956  0.60395  1.0000
  Ag  Ag4       1.0  0.38968  0.45044  0.39605  1.0000
  H   H1        1.0  0.78029  0.01561  0.47986  1.0000
  H   H2        1.0  0.21972  0.98438  0.52015  1.0000
  H   H3        1.0  0.98757  0.77322  0.23779  1.0000
  H   H4        1.0  0.01244  0.22679  0.76220  1.0000
  H   H5        1.0  0.01417  0.42916  0.28757  1.0000
  H   H6        1.0  0.98583  0.57084  0.71243  1.0000
  H   H7        1.0  0.16721  0.45416  0.12603  1.0000
  H   H8        1.0  0.83277  0.54585  0.87397  1.0000
  H   H9        1.0  0.21248  0.21210  0.02711  1.0000
  H   H10       1.0  0.78750  0.78792  0.97288  1.0000
  H   H11       1.0  0.11756  0.94381  0.09542  1.0000
  H   H12       1.0  0.88244  0.05620  0.90457  1.0000
  H   H13       1.0  0.62119  0.90219  0.58243  1.0000
  H   H14       1.0  0.37882  0.09781  0.41758  1.0000
  H   H15       1.0  0.44869  0.13900  0.84252  1.0000
  H   H16       1.0  0.55130  0.86099  0.15748  1.0000
  H   H17       1.0  0.41977  0.48452  0.78626  1.0000
  H   H18       1.0  0.58022  0.51548  0.21373  1.0000
  H   H19       1.0  0.28861  0.45599  0.95718  1.0000
  H   H20       1.0  0.71137  0.54401  0.04282  1.0000
  H   H21       1.0  0.24127  0.69592  0.05712  1.0000
  H   H22       1.0  0.75871  0.30409  0.94287  1.0000
  H   H23       1.0  0.31893  0.96551  0.98377  1.0000
  H   H24       1.0  0.68106  0.03449  0.01622  1.0000
  C   C1        1.0  0.84815  0.01945  0.40986  1.0000
  C   C2        1.0  0.15187  0.98054  0.59014  1.0000
  C   C3        1.0  0.87805  0.87458  0.36434  1.0000
  C   C4        1.0  0.12196  0.12541  0.63566  1.0000
  C   C5        1.0  0.96166  0.88230  0.27450  1.0000
  C   C6        1.0  0.03835  0.11770  0.72549  1.0000
  C   C7        1.0  0.01408  0.03287  0.23095  1.0000
  C   C8        1.0  0.98593  0.96713  0.76906  1.0000
  C   C9        1.0  0.98279  0.17269  0.28488  1.0000
  C   C10       1.0  0.01721  0.82731  0.71513  1.0000
  C   C11       1.0  0.03969  0.32443  0.24560  1.0000
  C   C12       1.0  0.96031  0.67557  0.75441  1.0000
  C   C13       1.0  0.12164  0.33692  0.15463  1.0000
  C   C14       1.0  0.87835  0.66309  0.84537  1.0000
  C   C15       1.0  0.14853  0.19979  0.09927  1.0000
  C   C16       1.0  0.85146  0.80022  0.90073  1.0000
  C   C17       1.0  0.09660  0.05050  0.13703  1.0000
  C   C18       1.0  0.90340  0.94951  0.86296  1.0000
  C   C19       1.0  0.81806  0.72130  0.41685  1.0000
  C   C20       1.0  0.18194  0.27870  0.58314  1.0000
  C   C21       1.0  0.56502  0.89798  0.65744  1.0000
  C   C22       1.0  0.43499  0.10202  0.34257  1.0000
  C   C23       1.0  0.54575  0.04107  0.70915  1.0000
  C   C24       1.0  0.45426  0.95892  0.29085  1.0000
  C   C25       1.0  0.46814  0.03095  0.80192  1.0000
  C   C26       1.0  0.53186  0.96904  0.19808  1.0000
  C   C27       1.0  0.41636  0.87977  0.84469  1.0000
  C   C28       1.0  0.58363  0.12023  0.15531  1.0000
  C   C29       1.0  0.44488  0.74123  0.78860  1.0000
  C   C30       1.0  0.55512  0.25876  0.21140  1.0000
  C   C31       1.0  0.39690  0.58845  0.83019  1.0000
  C   C32       1.0  0.60309  0.41156  0.16981  1.0000
  C   C33       1.0  0.32433  0.57393  0.92497  1.0000
  C   C34       1.0  0.67566  0.42607  0.07502  1.0000
  C   C35       1.0  0.29612  0.70989  0.98125  1.0000
  C   C36       1.0  0.70387  0.29011  0.01874  1.0000
  C   C37       1.0  0.33999  0.85981  0.94124  1.0000
  C   C38       1.0  0.65999  0.14019  0.05876  1.0000
  C   C39       1.0  0.60784  0.19668  0.66020  1.0000
  C   C40       1.0  0.39217  0.80332  0.33980  1.0000
  N   N1        1.0  0.89825  0.16228  0.37364  1.0000
  N   N2        1.0  0.10176  0.83771  0.62637  1.0000
  N   N3        1.0  0.51763  0.75467  0.69468  1.0000
  N   N4        1.0  0.48238  0.24533  0.30533  1.0000
  O   O1        1.0  0.71672  0.73189  0.48425  1.0000
  O   O2        1.0  0.28328  0.26810  0.51575  1.0000
  O   O3        1.0  0.87406  0.59464  0.39019  1.0000
  O   O4        1.0  0.12594  0.40535  0.60981  1.0000
  O   O5        1.0  0.59453  0.32343  0.70999  1.0000
  O   O6        1.0  0.40548  0.67657  0.29002  1.0000
  O   O7        1.0  0.67019  0.18579  0.57190  1.0000
  O   O8        1.0  0.32982  0.81421  0.42810  1.0000
