data_image0
_chemical_formula_structural       H28Pb4C24Br4N8O12
_chemical_formula_sum              "H28 Pb4 C24 Br4 N8 O12"
_cell_length_a       6.58862
_cell_length_b       7.49951
_cell_length_c       19.277
_cell_angle_alpha    90.2379
_cell_angle_beta     90.0017
_cell_angle_gamma    89.9995

_space_group_name_H-M_alt    "P 1"
_space_group_IT_number       1

loop_
  _space_group_symop_operation_xyz
  'x, y, z'

loop_
  _atom_site_type_symbol
  _atom_site_label
  _atom_site_symmetry_multiplicity
  _atom_site_fract_x
  _atom_site_fract_y
  _atom_site_fract_z
  _atom_site_occupancy
  H   H1        1.0  0.48975  0.77398  0.07460  1.0000
  H   H2        1.0  0.98977  0.22603  0.42540  1.0000
  H   H3        1.0  0.51026  0.22599  0.92539  1.0000
  H   H4        1.0  0.01024  0.77402  0.57463  1.0000
  H   H5        1.0  0.61186  0.85815  0.14024  1.0000
  H   H6        1.0  0.11191  0.14189  0.35978  1.0000
  H   H7        1.0  0.38813  0.14184  0.85977  1.0000
  H   H8        1.0  0.88819  0.85817  0.64025  1.0000
  H   H9        1.0  0.80313  0.40798  0.00162  1.0000
  H   H10       1.0  0.30319  0.59201  0.49838  1.0000
  H   H11       1.0  0.19685  0.59199  0.99839  1.0000
  H   H12       1.0  0.69683  0.40799  0.50161  1.0000
  H   H13       1.0  0.29149  0.20231  0.16514  1.0000
  H   H14       1.0  0.79143  0.79766  0.33487  1.0000
  H   H15       1.0  0.70851  0.79768  0.83488  1.0000
  H   H16       1.0  0.20855  0.20233  0.66512  1.0000
  H   H17       1.0  0.11963  0.22884  0.98956  1.0000
  H   H18       1.0  0.61969  0.77115  0.51044  1.0000
  H   H19       1.0  0.88032  0.77113  0.01045  1.0000
  H   H20       1.0  0.38037  0.22888  0.48955  1.0000
  H   H21       1.0  0.08694  0.10082  0.06737  1.0000
  H   H22       1.0  0.58698  0.89916  0.43264  1.0000
  H   H23       1.0  0.91304  0.89918  0.93264  1.0000
  H   H24       1.0  0.41304  0.10085  0.56737  1.0000
  H   H25       1.0  0.23847  0.01844  0.99769  1.0000
  H   H26       1.0  0.73852  0.98154  0.50232  1.0000
  H   H27       1.0  0.76150  0.98155  0.00233  1.0000
  H   H28       1.0  0.26154  0.01846  0.49768  1.0000
  Pb  Pb1       1.0  0.21116  0.71337  0.21436  1.0000
  Pb  Pb2       1.0  0.71115  0.28661  0.28565  1.0000
  Pb  Pb3       1.0  0.78882  0.28661  0.78564  1.0000
  Pb  Pb4       1.0  0.28886  0.71338  0.71437  1.0000
  C   C1        1.0  0.71108  0.38975  0.10947  1.0000
  C   C2        1.0  0.21106  0.61020  0.39052  1.0000
  C   C3        1.0  0.28891  0.61023  0.89052  1.0000
  C   C4        1.0  0.78892  0.38978  0.60947  1.0000
  C   C5        1.0  0.68764  0.36340  0.03825  1.0000
  C   C6        1.0  0.18765  0.63659  0.46175  1.0000
  C   C7        1.0  0.31236  0.63659  0.96174  1.0000
  C   C8        1.0  0.81236  0.36343  0.53825  1.0000
  C   C9        1.0  0.37794  0.22606  0.05642  1.0000
  C   C10       1.0  0.87794  0.77394  0.44358  1.0000
  C   C11       1.0  0.62208  0.77394  0.94360  1.0000
  C   C12       1.0  0.12204  0.22607  0.55641  1.0000
  C   C13       1.0  0.40461  0.25077  0.12828  1.0000
  C   C14       1.0  0.90459  0.74920  0.37171  1.0000
  C   C15       1.0  0.59541  0.74920  0.87171  1.0000
  C   C16       1.0  0.09540  0.25080  0.62828  1.0000
  C   C17       1.0  0.89536  0.48299  0.13847  1.0000
  C   C18       1.0  0.39535  0.51693  0.36152  1.0000
  C   C19       1.0  0.10459  0.51697  0.86151  1.0000
  C   C20       1.0  0.60467  0.48306  0.63848  1.0000
  C   C21       1.0  0.19429  0.13892  0.02662  1.0000
  C   C22       1.0  0.69432  0.86107  0.47339  1.0000
  C   C23       1.0  0.80568  0.86108  0.97339  1.0000
  C   C24       1.0  0.30569  0.13895  0.52661  1.0000
  Br  Br1       1.0  0.89333  0.98922  0.19029  1.0000
  Br  Br2       1.0  0.39330  0.01077  0.30968  1.0000
  Br  Br3       1.0  0.10663  0.01079  0.80970  1.0000
  Br  Br4       1.0  0.60665  0.98925  0.69029  1.0000
  N   N1        1.0  0.56960  0.32969  0.15403  1.0000
  N   N2        1.0  0.06960  0.67026  0.34597  1.0000
  N   N3        1.0  0.43039  0.67031  0.84597  1.0000
  N   N4        1.0  0.93040  0.32971  0.65402  1.0000
  N   N5        1.0  0.52358  0.28074  0.01245  1.0000
  N   N6        1.0  0.02361  0.71926  0.48754  1.0000
  N   N7        1.0  0.47644  0.71925  0.98755  1.0000
  N   N8        1.0  0.97640  0.28076  0.51244  1.0000
  O   O1        1.0  0.91462  0.48722  0.20498  1.0000
  O   O2        1.0  0.41458  0.51277  0.29501  1.0000
  O   O3        1.0  0.08537  0.51282  0.79500  1.0000
  O   O4        1.0  0.58541  0.48725  0.70498  1.0000
  O   O5        1.0  0.02004  0.55351  0.09741  1.0000
  O   O6        1.0  0.51997  0.44637  0.40259  1.0000
  O   O7        1.0  0.97996  0.44647  0.90257  1.0000
  O   O8        1.0  0.48004  0.55366  0.59742  1.0000
  O   O9        1.0  0.47951  0.81131  0.12475  1.0000
  O   O10       1.0  0.97954  0.18869  0.37525  1.0000
  O   O11       1.0  0.52049  0.18868  0.87525  1.0000
  O   O12       1.0  0.02051  0.81130  0.62477  1.0000
