data_image0
_chemical_formula_structural       Li8H16C8S4N8O24
_chemical_formula_sum              "Li8 H16 C8 S4 N8 O24"
_cell_length_a       7.25035
_cell_length_b       8.21189
_cell_length_c       11.142
_cell_angle_alpha    90
_cell_angle_beta     90
_cell_angle_gamma    101.913

_space_group_name_H-M_alt    "P 1"
_space_group_IT_number       1

loop_
  _space_group_symop_operation_xyz
  'x, y, z'

loop_
  _atom_site_type_symbol
  _atom_site_label
  _atom_site_symmetry_multiplicity
  _atom_site_fract_x
  _atom_site_fract_y
  _atom_site_fract_z
  _atom_site_occupancy
  Li  Li1       1.0  0.20549  0.49714  0.01158  1.0000
  Li  Li2       1.0  0.29451  0.00286  0.51158  1.0000
  Li  Li3       1.0  0.79451  0.50286  0.98842  1.0000
  Li  Li4       1.0  0.70549  0.99714  0.48842  1.0000
  Li  Li5       1.0  0.02546  0.31249  0.45104  1.0000
  Li  Li6       1.0  0.47454  0.18751  0.95104  1.0000
  Li  Li7       1.0  0.97454  0.68751  0.54896  1.0000
  Li  Li8       1.0  0.52546  0.81249  0.04896  1.0000
  H   H1        1.0  0.98118  0.31868  0.84796  1.0000
  H   H2        1.0  0.51882  0.18132  0.34796  1.0000
  H   H3        1.0  0.01882  0.68133  0.15204  1.0000
  H   H4        1.0  0.48118  0.81868  0.65204  1.0000
  H   H5        1.0  0.98749  0.50148  0.80529  1.0000
  H   H6        1.0  0.51251  0.99852  0.30529  1.0000
  H   H7        1.0  0.01251  0.49852  0.19471  1.0000
  H   H8        1.0  0.48749  0.00148  0.69471  1.0000
  H   H9        1.0  0.37756  0.66812  0.84815  1.0000
  H   H10       1.0  0.12244  0.83188  0.34815  1.0000
  H   H11       1.0  0.62244  0.33188  0.15185  1.0000
  H   H12       1.0  0.87756  0.16812  0.65185  1.0000
  H   H13       1.0  0.22781  0.75212  0.91122  1.0000
  H   H14       1.0  0.27219  0.74788  0.41122  1.0000
  H   H15       1.0  0.77219  0.24788  0.08878  1.0000
  H   H16       1.0  0.72781  0.25213  0.58878  1.0000
  C   C1        1.0  0.63709  0.65928  0.41000  1.0000
  C   C2        1.0  0.86291  0.84072  0.91000  1.0000
  C   C3        1.0  0.36291  0.34072  0.59000  1.0000
  C   C4        1.0  0.13709  0.15928  0.09000  1.0000
  C   C5        1.0  0.69893  0.49806  0.36970  1.0000
  C   C6        1.0  0.80107  0.00193  0.86970  1.0000
  C   C7        1.0  0.30107  0.50193  0.63030  1.0000
  C   C8        1.0  0.19893  0.99807  0.13030  1.0000
  S   S1        1.0  0.40278  0.51261  0.27463  1.0000
  S   S2        1.0  0.09722  0.98739  0.77463  1.0000
  S   S3        1.0  0.59722  0.48739  0.72537  1.0000
  S   S4        1.0  0.90278  0.01261  0.22537  1.0000
  N   N1        1.0  0.46666  0.66764  0.36754  1.0000
  N   N2        1.0  0.03334  0.83236  0.86754  1.0000
  N   N3        1.0  0.53334  0.33236  0.63246  1.0000
  N   N4        1.0  0.96666  0.16764  0.13246  1.0000
  N   N5        1.0  0.56751  0.40418  0.29823  1.0000
  N   N6        1.0  0.93249  0.09582  0.79823  1.0000
  N   N7        1.0  0.43249  0.59582  0.70177  1.0000
  N   N8        1.0  0.06751  0.90418  0.20177  1.0000
  O   O1        1.0  0.21681  0.41707  0.30525  1.0000
  O   O2        1.0  0.28319  0.08293  0.80525  1.0000
  O   O3        1.0  0.78319  0.58292  0.69475  1.0000
  O   O4        1.0  0.71681  0.91707  0.19475  1.0000
  O   O5        1.0  0.41698  0.57461  0.15138  1.0000
  O   O6        1.0  0.08302  0.92538  0.65138  1.0000
  O   O7        1.0  0.58302  0.42539  0.84862  1.0000
  O   O8        1.0  0.91698  0.07461  0.34862  1.0000
  O   O9        1.0  0.74166  0.76413  0.47489  1.0000
  O   O10       1.0  0.75834  0.73587  0.97489  1.0000
  O   O11       1.0  0.25835  0.23587  0.52511  1.0000
  O   O12       1.0  0.24166  0.26414  0.02511  1.0000
  O   O13       1.0  0.85218  0.46788  0.40295  1.0000
  O   O14       1.0  0.64782  0.03212  0.90295  1.0000
  O   O15       1.0  0.14782  0.53212  0.59705  1.0000
  O   O16       1.0  0.35218  0.96788  0.09705  1.0000
  O   O17       1.0  0.99915  0.43525  0.87699  1.0000
  O   O18       1.0  0.50085  0.06475  0.37700  1.0000
  O   O19       1.0  0.00085  0.56475  0.12300  1.0000
  O   O20       1.0  0.49915  0.93525  0.62301  1.0000
  O   O21       1.0  0.33647  0.69835  0.92867  1.0000
  O   O22       1.0  0.16353  0.80165  0.42868  1.0000
  O   O23       1.0  0.66353  0.30165  0.07133  1.0000
  O   O24       1.0  0.83647  0.19835  0.57132  1.0000
