data_image0
_chemical_formula_structural       K4H16C16N36O20
_chemical_formula_sum              "K4 H16 C16 N36 O20"
_cell_length_a       6.65118
_cell_length_b       9.89937
_cell_length_c       16.485
_cell_angle_alpha    107.187
_cell_angle_beta     90
_cell_angle_gamma    90.0001

_space_group_name_H-M_alt    "P 1"
_space_group_IT_number       1

loop_
  _space_group_symop_operation_xyz
  'x, y, z'

loop_
  _atom_site_type_symbol
  _atom_site_label
  _atom_site_symmetry_multiplicity
  _atom_site_fract_x
  _atom_site_fract_y
  _atom_site_fract_z
  _atom_site_occupancy
  K   K1        1.0  0.08561  0.78552  0.84347  1.0000
  K   K2        1.0  0.58562  0.71448  0.65653  1.0000
  K   K3        1.0  0.91438  0.21448  0.15653  1.0000
  K   K4        1.0  0.41438  0.28552  0.34347  1.0000
  H   H1        1.0  0.66500  0.80543  0.98501  1.0000
  H   H2        1.0  0.16501  0.69457  0.51499  1.0000
  H   H3        1.0  0.33500  0.19458  0.01499  1.0000
  H   H4        1.0  0.83500  0.30542  0.48501  1.0000
  H   H5        1.0  0.78231  0.63910  0.95785  1.0000
  H   H6        1.0  0.28231  0.86090  0.54215  1.0000
  H   H7        1.0  0.21769  0.36090  0.04215  1.0000
  H   H8        1.0  0.71769  0.13910  0.45785  1.0000
  H   H9        1.0  0.04564  0.48330  0.89768  1.0000
  H   H10       1.0  0.54565  0.01670  0.60232  1.0000
  H   H11       1.0  0.95436  0.51670  0.10232  1.0000
  H   H12       1.0  0.45436  0.98330  0.39768  1.0000
  H   H13       1.0  0.93263  0.49475  0.81611  1.0000
  H   H14       1.0  0.43263  0.00525  0.68389  1.0000
  H   H15       1.0  0.06737  0.50525  0.18389  1.0000
  H   H16       1.0  0.56737  0.99475  0.31611  1.0000
  C   C1        1.0  0.60742  0.56209  0.16224  1.0000
  C   C2        1.0  0.10742  0.93791  0.33776  1.0000
  C   C3        1.0  0.39258  0.43791  0.83776  1.0000
  C   C4        1.0  0.89259  0.06209  0.66224  1.0000
  C   C5        1.0  0.62369  0.69156  0.06960  1.0000
  C   C6        1.0  0.12369  0.80844  0.43040  1.0000
  C   C7        1.0  0.37632  0.30844  0.93039  1.0000
  C   C8        1.0  0.87632  0.19156  0.56961  1.0000
  C   C9        1.0  0.48032  0.79217  0.12445  1.0000
  C   C10       1.0  0.98033  0.70782  0.37555  1.0000
  C   C11       1.0  0.51968  0.20783  0.87555  1.0000
  C   C12       1.0  0.01968  0.29217  0.62445  1.0000
  C   C13       1.0  0.40599  0.91636  0.10195  1.0000
  C   C14       1.0  0.90600  0.58364  0.39805  1.0000
  C   C15       1.0  0.59400  0.08365  0.89805  1.0000
  C   C16       1.0  0.09400  0.41636  0.60195  1.0000
  N   N1        1.0  0.63615  0.46250  0.20118  1.0000
  N   N2        1.0  0.13615  0.03750  0.29882  1.0000
  N   N3        1.0  0.36385  0.53750  0.79882  1.0000
  N   N4        1.0  0.86385  0.96250  0.70118  1.0000
  N   N5        1.0  0.52725  0.50577  0.27421  1.0000
  N   N6        1.0  0.02725  0.99423  0.22579  1.0000
  N   N7        1.0  0.47275  0.49423  0.72578  1.0000
  N   N8        1.0  0.97275  0.00577  0.77422  1.0000
  N   N9        1.0  0.43262  0.62471  0.28355  1.0000
  N   N10       1.0  0.93262  0.87528  0.21645  1.0000
  N   N11       1.0  0.56738  0.37528  0.71645  1.0000
  N   N12       1.0  0.06738  0.12472  0.78355  1.0000
  N   N13       1.0  0.48117  0.66167  0.21306  1.0000
  N   N14       1.0  0.98117  0.83833  0.28694  1.0000
  N   N15       1.0  0.51883  0.33833  0.78694  1.0000
  N   N16       1.0  0.01883  0.16167  0.71306  1.0000
  N   N17       1.0  0.68456  0.57658  0.09048  1.0000
  N   N18       1.0  0.18456  0.92342  0.40952  1.0000
  N   N19       1.0  0.31544  0.42342  0.90952  1.0000
  N   N20       1.0  0.81544  0.07658  0.59048  1.0000
  N   N21       1.0  0.41234  0.77631  0.19576  1.0000
  N   N22       1.0  0.91234  0.72369  0.30425  1.0000
  N   N23       1.0  0.58766  0.22370  0.80424  1.0000
  N   N24       1.0  0.08766  0.27631  0.69576  1.0000
  N   N25       1.0  0.69401  0.71427  0.99965  1.0000
  N   N26       1.0  0.19402  0.78573  0.50035  1.0000
  N   N27       1.0  0.30598  0.28573  0.00035  1.0000
  N   N28       1.0  0.80598  0.21427  0.49965  1.0000
  N   N29       1.0  0.28352  0.88985  0.03053  1.0000
  N   N30       1.0  0.78352  0.61015  0.46947  1.0000
  N   N31       1.0  0.71648  0.11015  0.96947  1.0000
  N   N32       1.0  0.21648  0.38985  0.53053  1.0000
  N   N33       1.0  0.44554  0.05181  0.15249  1.0000
  N   N34       1.0  0.94554  0.44819  0.34751  1.0000
  N   N35       1.0  0.55446  0.94819  0.84751  1.0000
  N   N36       1.0  0.05446  0.55181  0.65249  1.0000
  O   O1        1.0  0.23686  0.98377  0.99617  1.0000
  O   O2        1.0  0.73687  0.51623  0.50383  1.0000
  O   O3        1.0  0.76313  0.01623  0.00383  1.0000
  O   O4        1.0  0.26313  0.48377  0.49617  1.0000
  O   O5        1.0  0.22879  0.76277  0.99941  1.0000
  O   O6        1.0  0.72879  0.73723  0.50059  1.0000
  O   O7        1.0  0.77121  0.23723  0.00059  1.0000
  O   O8        1.0  0.27121  0.26277  0.49941  1.0000
  O   O9        1.0  0.35807  0.15887  0.14292  1.0000
  O   O10       1.0  0.85807  0.34113  0.35708  1.0000
  O   O11       1.0  0.64193  0.84113  0.85708  1.0000
  O   O12       1.0  0.14193  0.65887  0.64292  1.0000
  O   O13       1.0  0.57577  0.06525  0.21121  1.0000
  O   O14       1.0  0.07577  0.43475  0.28879  1.0000
  O   O15       1.0  0.42423  0.93475  0.78879  1.0000
  O   O16       1.0  0.92423  0.56525  0.71121  1.0000
  O   O17       1.0  0.91820  0.51365  0.87753  1.0000
  O   O18       1.0  0.41820  0.98635  0.62247  1.0000
  O   O19       1.0  0.08179  0.48635  0.12247  1.0000
  O   O20       1.0  0.58180  0.01365  0.37753  1.0000
