data_image0
_chemical_formula_structural       H8Rh2C18N4O8F12
_chemical_formula_sum              "H8 Rh2 C18 N4 O8 F12"
_cell_length_a       8.59786
_cell_length_b       9.558
_cell_length_c       11.7866
_cell_angle_alpha    66.2626
_cell_angle_beta     88.3766
_cell_angle_gamma    62.3624

_space_group_name_H-M_alt    "P 1"
_space_group_IT_number       1

loop_
  _space_group_symop_operation_xyz
  'x, y, z'

loop_
  _atom_site_type_symbol
  _atom_site_label
  _atom_site_symmetry_multiplicity
  _atom_site_fract_x
  _atom_site_fract_y
  _atom_site_fract_z
  _atom_site_occupancy
  H   H1        1.0  0.06527  0.57970  0.66337  1.0000
  H   H2        1.0  0.93472  0.42031  0.33662  1.0000
  H   H3        1.0  0.36503  0.39078  0.35138  1.0000
  H   H4        1.0  0.63496  0.60922  0.64862  1.0000
  H   H5        1.0  0.23718  0.31133  0.30653  1.0000
  H   H6        1.0  0.76281  0.68867  0.69347  1.0000
  H   H7        1.0  0.38224  0.18969  0.45697  1.0000
  H   H8        1.0  0.61776  0.81031  0.54303  1.0000
  Rh  Rh1       1.0  0.48571  0.48892  0.90147  1.0000
  Rh  Rh2       1.0  0.51429  0.51108  0.09852  1.0000
  C   C1        1.0  0.15567  0.64781  0.98005  1.0000
  C   C2        1.0  0.84434  0.35219  0.01997  1.0000
  C   C3        1.0  0.94913  0.75307  0.96290  1.0000
  C   C4        1.0  0.05088  0.24692  0.03712  1.0000
  C   C5        1.0  0.54237  0.18808  0.12693  1.0000
  C   C6        1.0  0.45764  0.81192  0.87309  1.0000
  C   C7        1.0  0.58105  0.99725  0.20675  1.0000
  C   C8        1.0  0.41895  0.00275  0.79325  1.0000
  C   C9        1.0  0.39193  0.45164  0.65389  1.0000
  C   C10       1.0  0.60807  0.54836  0.34610  1.0000
  C   C11       1.0  0.17453  0.46298  0.53494  1.0000
  C   C12       1.0  0.82546  0.53702  0.46506  1.0000
  C   C13       1.0  0.13862  0.41495  0.43996  1.0000
  C   C14       1.0  0.86138  0.58505  0.56004  1.0000
  C   C15       1.0  0.03269  0.54629  0.59227  1.0000
  C   C16       1.0  0.96731  0.45371  0.40773  1.0000
  C   C17       1.0  0.28777  0.32259  0.38469  1.0000
  C   C18       1.0  0.71222  0.67741  0.61531  1.0000
  N   N1        1.0  0.45464  0.46573  0.73374  1.0000
  N   N2        1.0  0.54536  0.53427  0.26626  1.0000
  N   N3        1.0  0.34229  0.42475  0.56549  1.0000
  N   N4        1.0  0.65770  0.57526  0.43451  1.0000
  O   O1        1.0  0.21364  0.60424  0.89255  1.0000
  O   O2        1.0  0.78636  0.39576  0.10744  1.0000
  O   O3        1.0  0.24160  0.62376  0.07793  1.0000
  O   O4        1.0  0.75840  0.37623  0.92207  1.0000
  O   O5        1.0  0.51774  0.24340  0.00815  1.0000
  O   O6        1.0  0.48226  0.75660  0.99184  1.0000
  O   O7        1.0  0.54554  0.26521  0.19212  1.0000
  O   O8        1.0  0.45446  0.73478  0.80787  1.0000
  F   F1        1.0  0.86635  0.71723  0.89003  1.0000
  F   F2        1.0  0.13365  0.28276  0.10999  1.0000
  F   F3        1.0  0.89336  0.92807  0.90416  1.0000
  F   F4        1.0  0.10664  0.07192  0.09585  1.0000
  F   F5        1.0  0.89523  0.71637  0.07487  1.0000
  F   F6        1.0  0.10479  0.28362  0.92514  1.0000
  F   F7        1.0  0.49215  0.98692  0.30439  1.0000
  F   F8        1.0  0.50784  0.01308  0.69560  1.0000
  F   F9        1.0  0.53506  0.93371  0.13843  1.0000
  F   F10       1.0  0.46496  0.06628  0.86157  1.0000
  F   F11       1.0  0.76032  0.89200  0.25651  1.0000
  F   F12       1.0  0.23968  0.10801  0.74350  1.0000
