data_image0
_chemical_formula_structural       Er2H24C30S6O18
_chemical_formula_sum              "Er2 H24 C30 S6 O18"
_cell_length_a       7.85359
_cell_length_b       9.18317
_cell_length_c       13.029
_cell_angle_alpha    84.7398
_cell_angle_beta     75.1197
_cell_angle_gamma    75.6124

_space_group_name_H-M_alt    "P 1"
_space_group_IT_number       1

loop_
  _space_group_symop_operation_xyz
  'x, y, z'

loop_
  _atom_site_type_symbol
  _atom_site_label
  _atom_site_symmetry_multiplicity
  _atom_site_fract_x
  _atom_site_fract_y
  _atom_site_fract_z
  _atom_site_occupancy
  Er  Er1       1.0  0.73115  0.69844  0.49714  1.0000
  Er  Er2       1.0  0.26886  0.30156  0.50286  1.0000
  H   H1        1.0  0.80683  0.37766  0.57078  1.0000
  H   H2        1.0  0.19317  0.62234  0.42922  1.0000
  H   H3        1.0  0.59241  0.41985  0.59607  1.0000
  H   H4        1.0  0.40759  0.58015  0.40393  1.0000
  H   H5        1.0  0.05800  0.83132  0.49764  1.0000
  H   H6        1.0  0.94200  0.16868  0.50236  1.0000
  H   H7        1.0  0.97591  0.89074  0.39965  1.0000
  H   H8        1.0  0.02409  0.10926  0.60035  1.0000
  H   H9        1.0  0.73676  0.91333  0.63012  1.0000
  H   H10       1.0  0.26323  0.08668  0.36989  1.0000
  H   H11       1.0  0.72346  0.01273  0.52356  1.0000
  H   H12       1.0  0.27654  0.98727  0.47644  1.0000
  H   H13       1.0  0.34753  0.69491  0.22573  1.0000
  H   H14       1.0  0.65249  0.30509  0.77426  1.0000
  H   H15       1.0  0.29746  0.82606  0.04365  1.0000
  H   H16       1.0  0.70256  0.17394  0.95634  1.0000
  H   H17       1.0  0.65264  0.71311  0.84268  1.0000
  H   H18       1.0  0.34734  0.28688  0.15733  1.0000
  H   H19       1.0  0.60718  0.59741  0.03838  1.0000
  H   H20       1.0  0.39280  0.40256  0.96161  1.0000
  H   H21       1.0  0.05390  0.04512  0.22205  1.0000
  H   H22       1.0  0.94609  0.95488  0.77796  1.0000
  H   H23       1.0  0.10578  0.15278  0.02474  1.0000
  H   H24       1.0  0.89422  0.84721  0.97526  1.0000
  C   C1        1.0  0.60675  0.78404  0.31652  1.0000
  C   C2        1.0  0.39325  0.21596  0.68348  1.0000
  C   C3        1.0  0.93586  0.55093  0.68028  1.0000
  C   C4        1.0  0.06415  0.44907  0.31972  1.0000
  C   C5        1.0  0.72703  0.19138  0.37326  1.0000
  C   C6        1.0  0.27297  0.80862  0.62674  1.0000
  C   C7        1.0  0.53615  0.83465  0.22215  1.0000
  C   C8        1.0  0.46384  0.16536  0.77785  1.0000
  C   C9        1.0  0.49229  0.95692  0.04944  1.0000
  C   C10       1.0  0.50772  0.04309  0.95056  1.0000
  C   C11       1.0  0.87896  0.52227  0.79519  1.0000
  C   C12       1.0  0.12104  0.47772  0.20481  1.0000
  C   C13       1.0  0.41319  0.78242  0.18447  1.0000
  C   C14       1.0  0.58681  0.21758  0.81552  1.0000
  C   C15       1.0  0.80374  0.21909  0.25995  1.0000
  C   C16       1.0  0.19627  0.78089  0.74006  1.0000
  C   C17       1.0  0.38687  0.85264  0.08701  1.0000
  C   C18       1.0  0.61314  0.14737  0.91299  1.0000
  C   C19       1.0  0.85154  0.32047  0.07399  1.0000
  C   C20       1.0  0.14846  0.67952  0.92602  1.0000
  C   C21       1.0  0.83719  0.41186  0.97911  1.0000
  C   C22       1.0  0.16282  0.58814  0.02088  1.0000
  C   C23       1.0  0.73547  0.60864  0.86682  1.0000
  C   C24       1.0  0.26452  0.39135  0.13319  1.0000
  C   C25       1.0  0.71104  0.54626  0.97060  1.0000
  C   C26       1.0  0.28895  0.45373  0.02940  1.0000
  C   C27       1.0  0.96211  0.14059  0.19415  1.0000
  C   C28       1.0  0.03789  0.85940  0.80585  1.0000
  C   C29       1.0  0.98880  0.19688  0.08862  1.0000
  C   C30       1.0  0.01119  0.80311  0.91139  1.0000
  S   S1        1.0  0.61676  0.97247  0.13861  1.0000
  S   S2        1.0  0.38324  0.02755  0.86140  1.0000
  S   S3        1.0  0.98416  0.36315  0.85688  1.0000
  S   S4        1.0  0.01584  0.63685  0.14312  1.0000
  S   S5        1.0  0.68770  0.36245  0.19147  1.0000
  S   S6        1.0  0.31230  0.63755  0.80853  1.0000
  O   O1        1.0  0.70791  0.85494  0.34399  1.0000
  O   O2        1.0  0.29209  0.14506  0.65602  1.0000
  O   O3        1.0  0.56952  0.66645  0.36990  1.0000
  O   O4        1.0  0.43048  0.33355  0.63009  1.0000
  O   O5        1.0  0.70207  0.46221  0.56910  1.0000
  O   O6        1.0  0.29793  0.53779  0.43089  1.0000
  O   O7        1.0  0.05925  0.45265  0.62409  1.0000
  O   O8        1.0  0.94075  0.54737  0.37591  1.0000
  O   O9        1.0  0.56280  0.25513  0.41248  1.0000
  O   O10       1.0  0.43720  0.74486  0.58752  1.0000
  O   O11       1.0  0.85202  0.67290  0.64199  1.0000
  O   O12       1.0  0.14797  0.32710  0.35801  1.0000
  O   O13       1.0  0.01296  0.79804  0.44067  1.0000
  O   O14       1.0  0.98704  0.20196  0.55933  1.0000
  O   O15       1.0  0.67099  0.93618  0.57430  1.0000
  O   O16       1.0  0.32900  0.06383  0.42570  1.0000
  O   O17       1.0  0.83198  0.10401  0.42599  1.0000
  O   O18       1.0  0.16802  0.89600  0.57401  1.0000
