data_image0
_chemical_formula_structural       Cd2H48C56N8Cl4O8
_chemical_formula_sum              "Cd2 H48 C56 N8 Cl4 O8"
_cell_length_a       10.9578
_cell_length_b       12.0647
_cell_length_c       13.4284
_cell_angle_alpha    114.154
_cell_angle_beta     90.0007
_cell_angle_gamma    117.002

_space_group_name_H-M_alt    "P 1"
_space_group_IT_number       1

loop_
  _space_group_symop_operation_xyz
  'x, y, z'

loop_
  _atom_site_type_symbol
  _atom_site_label
  _atom_site_symmetry_multiplicity
  _atom_site_fract_x
  _atom_site_fract_y
  _atom_site_fract_z
  _atom_site_occupancy
  Cd  Cd1       1.0  0.98727  0.99998  0.24998  1.0000
  Cd  Cd2       1.0  0.01272  0.00002  0.75002  1.0000
  H   H1        1.0  0.26276  0.43480  0.53757  1.0000
  H   H2        1.0  0.82808  0.56537  0.96253  1.0000
  H   H3        1.0  0.73724  0.56520  0.46243  1.0000
  H   H4        1.0  0.17192  0.43462  0.03747  1.0000
  H   H5        1.0  0.40962  0.61819  0.38338  1.0000
  H   H6        1.0  0.79113  0.38154  0.11653  1.0000
  H   H7        1.0  0.59038  0.38181  0.61662  1.0000
  H   H8        1.0  0.20887  0.61847  0.88347  1.0000
  H   H9        1.0  0.68864  0.01894  0.61036  1.0000
  H   H10       1.0  0.66958  0.98102  0.88960  1.0000
  H   H11       1.0  0.31136  0.98106  0.38964  1.0000
  H   H12       1.0  0.33042  0.01898  0.11040  1.0000
  H   H13       1.0  0.56964  0.84032  0.56721  1.0000
  H   H14       1.0  0.72929  0.15970  0.93284  1.0000
  H   H15       1.0  0.43036  0.15967  0.43279  1.0000
  H   H16       1.0  0.27071  0.84030  0.06716  1.0000
  H   H17       1.0  0.88214  0.14221  0.59153  1.0000
  H   H18       1.0  0.73985  0.85768  0.90841  1.0000
  H   H19       1.0  0.11786  0.85780  0.40848  1.0000
  H   H20       1.0  0.26015  0.14232  0.09159  1.0000
  H   H21       1.0  0.83953  0.18567  0.48982  1.0000
  H   H22       1.0  0.65384  0.81426  0.01013  1.0000
  H   H23       1.0  0.16047  0.81433  0.51018  1.0000
  H   H24       1.0  0.34616  0.18574  0.98987  1.0000
  H   H25       1.0  0.98426  0.15621  0.48978  1.0000
  H   H26       1.0  0.82801  0.84361  0.01014  1.0000
  H   H27       1.0  0.01573  0.84379  0.51022  1.0000
  H   H28       1.0  0.17199  0.15639  0.98986  1.0000
  H   H29       1.0  0.35522  0.41399  0.20062  1.0000
  H   H30       1.0  0.94114  0.58592  0.29914  1.0000
  H   H31       1.0  0.64478  0.58601  0.79938  1.0000
  H   H32       1.0  0.05886  0.41408  0.70086  1.0000
  H   H33       1.0  0.73018  0.66111  0.11500  1.0000
  H   H34       1.0  0.06940  0.33905  0.38471  1.0000
  H   H35       1.0  0.26982  0.33889  0.88500  1.0000
  H   H36       1.0  0.93060  0.66095  0.61529  1.0000
  H   H37       1.0  0.51094  0.43514  0.06733  1.0000
  H   H38       1.0  0.07610  0.56501  0.43238  1.0000
  H   H39       1.0  0.48906  0.56486  0.93267  1.0000
  H   H40       1.0  0.92390  0.43499  0.56761  1.0000
  H   H41       1.0  0.39410  0.84256  0.45206  1.0000
  H   H42       1.0  0.55152  0.15742  0.04805  1.0000
  H   H43       1.0  0.60590  0.15743  0.54794  1.0000
  H   H44       1.0  0.44848  0.84258  0.95195  1.0000
  H   H45       1.0  0.44052  0.96659  0.59449  1.0000
  H   H46       1.0  0.47391  0.03356  0.90559  1.0000
  H   H47       1.0  0.55948  0.03341  0.40551  1.0000
  H   H48       1.0  0.52609  0.96645  0.09441  1.0000
  C   C1        1.0  0.36722  0.46420  0.52068  1.0000
  C   C2        1.0  0.90310  0.53589  0.97934  1.0000
  C   C3        1.0  0.63278  0.53580  0.47932  1.0000
  C   C4        1.0  0.09689  0.46411  0.02065  1.0000
  C   C5        1.0  0.38428  0.36568  0.42930  1.0000
  C   C6        1.0  0.01879  0.63441  0.07063  1.0000
  C   C7        1.0  0.61572  0.63432  0.57070  1.0000
  C   C8        1.0  0.98121  0.36558  0.92936  1.0000
  C   C9        1.0  0.60202  0.75375  0.35100  1.0000
  C   C10       1.0  0.84813  0.24608  0.14887  1.0000
  C   C11       1.0  0.39798  0.24625  0.64900  1.0000
  C   C12       1.0  0.15187  0.75392  0.85113  1.0000
  C   C13       1.0  0.47986  0.59644  0.59028  1.0000
  C   C14       1.0  0.88328  0.40354  0.90985  1.0000
  C   C15       1.0  0.52014  0.40355  0.40971  1.0000
  C   C16       1.0  0.11672  0.59646  0.09015  1.0000
  C   C17       1.0  0.25395  0.22874  0.35745  1.0000
  C   C18       1.0  0.02537  0.77132  0.14251  1.0000
  C   C19       1.0  0.74605  0.77126  0.64255  1.0000
  C   C20       1.0  0.97463  0.22868  0.85748  1.0000
  C   C21       1.0  0.78471  0.97151  0.42493  1.0000
  C   C22       1.0  0.81315  0.02833  0.07498  1.0000
  C   C23       1.0  0.21529  0.02849  0.57507  1.0000
  C   C24       1.0  0.18685  0.97167  0.92502  1.0000
  C   C25       1.0  0.69290  0.76654  0.27643  1.0000
  C   C26       1.0  0.92641  0.23342  0.22340  1.0000
  C   C27       1.0  0.30710  0.23346  0.72357  1.0000
  C   C28       1.0  0.07359  0.76659  0.77659  1.0000
  C   C29       1.0  0.47932  0.62816  0.32581  1.0000
  C   C30       1.0  0.85100  0.37169  0.17408  1.0000
  C   C31       1.0  0.52068  0.37184  0.67419  1.0000
  C   C32       1.0  0.14901  0.62831  0.82592  1.0000
  C   C33       1.0  0.60406  0.92315  0.54139  1.0000
  C   C34       1.0  0.68083  0.07681  0.95859  1.0000
  C   C35       1.0  0.39593  0.07685  0.45862  1.0000
  C   C36       1.0  0.31917  0.92320  0.04141  1.0000
  C   C37       1.0  0.87751  0.12175  0.50378  1.0000
  C   C38       1.0  0.75573  0.87811  0.99615  1.0000
  C   C39       1.0  0.12249  0.87826  0.49623  1.0000
  C   C40       1.0  0.24427  0.12190  0.00385  1.0000
  C   C41       1.0  0.44942  0.51424  0.22283  1.0000
  C   C42       1.0  0.93517  0.48571  0.27697  1.0000
  C   C43       1.0  0.55058  0.48576  0.77717  1.0000
  C   C44       1.0  0.06483  0.51429  0.72303  1.0000
  C   C45       1.0  0.66118  0.65165  0.17308  1.0000
  C   C46       1.0  0.00981  0.34844  0.32664  1.0000
  C   C47       1.0  0.33882  0.34835  0.82692  1.0000
  C   C48       1.0  0.99019  0.65156  0.67336  1.0000
  C   C49       1.0  0.53861  0.52604  0.14771  1.0000
  C   C50       1.0  0.01269  0.47401  0.35207  1.0000
  C   C51       1.0  0.46139  0.47397  0.85229  1.0000
  C   C52       1.0  0.98731  0.52599  0.64793  1.0000
  C   C53       1.0  0.48033  0.94230  0.51748  1.0000
  C   C54       1.0  0.53799  0.05771  0.98256  1.0000
  C   C55       1.0  0.51966  0.05769  0.48252  1.0000
  C   C56       1.0  0.46201  0.94229  0.01744  1.0000
  N   N1        1.0  0.66338  0.88506  0.44390  1.0000
  N   N2        1.0  0.77816  0.11474  0.05603  1.0000
  N   N3        1.0  0.33661  0.11494  0.55610  1.0000
  N   N4        1.0  0.22184  0.88526  0.94397  1.0000
  N   N5        1.0  0.80537  0.90313  0.32527  1.0000
  N   N6        1.0  0.90231  0.09682  0.17461  1.0000
  N   N7        1.0  0.19463  0.09687  0.67473  1.0000
  N   N8        1.0  0.09769  0.90319  0.82539  1.0000
  Cl  Cl1       1.0  0.44272  0.71043  0.69682  1.0000
  Cl  Cl2       1.0  0.73215  0.28960  0.80336  1.0000
  Cl  Cl3       1.0  0.55728  0.28957  0.30317  1.0000
  Cl  Cl4       1.0  0.26785  0.71039  0.19663  1.0000
  O   O1        1.0  0.15567  0.18674  0.40749  1.0000
  O   O2        1.0  0.96918  0.81337  0.09245  1.0000
  O   O3        1.0  0.84433  0.81326  0.59252  1.0000
  O   O4        1.0  0.03082  0.18663  0.90755  1.0000
  O   O5        1.0  0.24237  0.16456  0.25357  1.0000
  O   O6        1.0  0.07779  0.83541  0.24642  1.0000
  O   O7        1.0  0.75762  0.83544  0.74643  1.0000
  O   O8        1.0  0.92221  0.16459  0.75358  1.0000
