data_image0
_chemical_formula_structural       Ag4H16C12S2O8
_chemical_formula_sum              "Ag4 H16 C12 S2 O8"
_cell_length_a       5.14966
_cell_length_b       8.02737
_cell_length_c       10.9043
_cell_angle_alpha    86.7055
_cell_angle_beta     76.3566
_cell_angle_gamma    71.315

_space_group_name_H-M_alt    "P 1"
_space_group_IT_number       1

loop_
  _space_group_symop_operation_xyz
  'x, y, z'

loop_
  _atom_site_type_symbol
  _atom_site_label
  _atom_site_symmetry_multiplicity
  _atom_site_fract_x
  _atom_site_fract_y
  _atom_site_fract_z
  _atom_site_occupancy
  Ag  Ag1       1.0  0.38877  0.87266  0.95296  1.0000
  Ag  Ag2       1.0  0.71458  0.62745  0.54716  1.0000
  Ag  Ag3       1.0  0.61127  0.12734  0.04705  1.0000
  Ag  Ag4       1.0  0.28540  0.37255  0.45283  1.0000
  H   H1        1.0  0.75150  0.49144  0.95006  1.0000
  H   H2        1.0  0.69288  0.00840  0.55000  1.0000
  H   H3        1.0  0.24853  0.50854  0.04993  1.0000
  H   H4        1.0  0.30709  0.99159  0.45000  1.0000
  H   H5        1.0  0.80769  0.38354  0.80626  1.0000
  H   H6        1.0  0.49679  0.11656  0.69361  1.0000
  H   H7        1.0  0.19237  0.61644  0.19373  1.0000
  H   H8        1.0  0.50318  0.88343  0.30639  1.0000
  H   H9        1.0  0.18613  0.52538  0.70867  1.0000
  H   H10       1.0  0.91897  0.97537  0.79167  1.0000
  H   H11       1.0  0.81388  0.47463  0.29133  1.0000
  H   H12       1.0  0.08101  0.02464  0.20832  1.0000
  H   H13       1.0  0.11368  0.63915  0.85504  1.0000
  H   H14       1.0  0.10726  0.86150  0.64541  1.0000
  H   H15       1.0  0.88632  0.36086  0.14496  1.0000
  H   H16       1.0  0.89272  0.13852  0.35459  1.0000
  C   C1        1.0  0.91252  0.43600  0.86388  1.0000
  C   C2        1.0  0.71180  0.06415  0.63620  1.0000
  C   C3        1.0  0.08752  0.56398  0.13611  1.0000
  C   C4        1.0  0.28817  0.93586  0.36379  1.0000
  C   C5        1.0  0.13911  0.28337  0.90304  1.0000
  C   C6        1.0  0.82487  0.21682  0.59697  1.0000
  C   C7        1.0  0.86095  0.71663  0.09696  1.0000
  C   C8        1.0  0.17510  0.78319  0.40304  1.0000
  C   C9        1.0  0.02511  0.57737  0.79520  1.0000
  C   C10       1.0  0.89694  0.92313  0.70509  1.0000
  C   C11       1.0  0.97491  0.42263  0.20479  1.0000
  C   C12       1.0  0.10303  0.07687  0.29491  1.0000
  S   S1        1.0  0.73593  0.75009  0.75011  1.0000
  S   S2        1.0  0.26408  0.24990  0.24989  1.0000
  O   O1        1.0  0.38521  0.29219  0.88787  1.0000
  O   O2        1.0  0.06467  0.20801  0.61216  1.0000
  O   O3        1.0  0.61479  0.70781  0.11214  1.0000
  O   O4        1.0  0.93527  0.79201  0.38784  1.0000
  O   O5        1.0  0.06249  0.15300  0.95374  1.0000
  O   O6        1.0  0.66875  0.34712  0.54625  1.0000
  O   O7        1.0  0.93756  0.84698  0.04627  1.0000
  O   O8        1.0  0.33118  0.65289  0.45376  1.0000
