data_image0
_chemical_formula_structural       Cd4H40C28S8N16
_chemical_formula_sum              "Cd4 H40 C28 S8 N16"
_cell_length_a       8.74979
_cell_length_b       10.8874
_cell_length_c       12.1955
_cell_angle_alpha    110.582
_cell_angle_beta     90
_cell_angle_gamma    90

_space_group_name_H-M_alt    "P 1"
_space_group_IT_number       1

loop_
  _space_group_symop_operation_xyz
  'x, y, z'

loop_
  _atom_site_type_symbol
  _atom_site_label
  _atom_site_symmetry_multiplicity
  _atom_site_fract_x
  _atom_site_fract_y
  _atom_site_fract_z
  _atom_site_occupancy
  Cd  Cd1       1.0  0.70243  0.53496  0.95673  1.0000
  Cd  Cd2       1.0  0.20243  0.96504  0.54327  1.0000
  Cd  Cd3       1.0  0.29757  0.46504  0.04327  1.0000
  Cd  Cd4       1.0  0.79757  0.03496  0.45673  1.0000
  H   H1        1.0  0.50612  0.69771  0.88938  1.0000
  H   H2        1.0  0.00612  0.80229  0.61062  1.0000
  H   H3        1.0  0.49388  0.30229  0.11062  1.0000
  H   H4        1.0  0.99388  0.19771  0.38938  1.0000
  H   H5        1.0  0.66506  0.78130  0.93556  1.0000
  H   H6        1.0  0.16506  0.71870  0.56444  1.0000
  H   H7        1.0  0.33494  0.21870  0.06444  1.0000
  H   H8        1.0  0.83494  0.28130  0.43556  1.0000
  H   H9        1.0  0.90334  0.35937  0.79020  1.0000
  H   H10       1.0  0.40334  0.14063  0.70980  1.0000
  H   H11       1.0  0.09666  0.64063  0.20980  1.0000
  H   H12       1.0  0.59666  0.85937  0.29020  1.0000
  H   H13       1.0  0.98744  0.49930  0.85489  1.0000
  H   H14       1.0  0.48744  0.00070  0.64511  1.0000
  H   H15       1.0  0.01256  0.50070  0.14511  1.0000
  H   H16       1.0  0.51256  0.99930  0.35489  1.0000
  H   H17       1.0  0.64835  0.76885  0.74400  1.0000
  H   H18       1.0  0.14835  0.73115  0.75600  1.0000
  H   H19       1.0  0.35165  0.23115  0.25600  1.0000
  H   H20       1.0  0.85165  0.26885  0.24401  1.0000
  H   H21       1.0  0.59035  0.60231  0.69969  1.0000
  H   H22       1.0  0.09035  0.89769  0.80032  1.0000
  H   H23       1.0  0.40965  0.39769  0.30031  1.0000
  H   H24       1.0  0.90965  0.10231  0.19969  1.0000
  H   H25       1.0  0.90718  0.69773  0.80046  1.0000
  H   H26       1.0  0.40718  0.80227  0.69954  1.0000
  H   H27       1.0  0.09282  0.30227  0.19954  1.0000
  H   H28       1.0  0.59282  0.19773  0.30046  1.0000
  H   H29       1.0  0.86129  0.65320  0.65053  1.0000
  H   H30       1.0  0.36129  0.84680  0.84947  1.0000
  H   H31       1.0  0.13871  0.34680  0.34947  1.0000
  H   H32       1.0  0.63871  0.15320  0.15053  1.0000
  H   H33       1.0  0.77647  0.42811  0.65510  1.0000
  H   H34       1.0  0.27647  0.07189  0.84490  1.0000
  H   H35       1.0  0.22353  0.57189  0.34490  1.0000
  H   H36       1.0  0.72353  0.92811  0.15510  1.0000
  H   H37       1.0  0.97368  0.46348  0.65520  1.0000
  H   H38       1.0  0.47368  0.03652  0.84480  1.0000
  H   H39       1.0  0.02632  0.53652  0.34480  1.0000
  H   H40       1.0  0.52632  0.96348  0.15520  1.0000
  C   C1        1.0  0.38018  0.42901  0.78577  1.0000
  C   C2        1.0  0.88018  0.07099  0.71423  1.0000
  C   C3        1.0  0.61982  0.57099  0.21423  1.0000
  C   C4        1.0  0.11982  0.92901  0.28577  1.0000
  C   C5        1.0  0.39578  0.39852  0.66326  1.0000
  C   C6        1.0  0.89578  0.10148  0.83674  1.0000
  C   C7        1.0  0.60422  0.60148  0.33674  1.0000
  C   C8        1.0  0.10422  0.89852  0.16326  1.0000
  C   C9        1.0  0.49556  0.29796  0.59748  1.0000
  C   C10       1.0  0.99556  0.20204  0.90251  1.0000
  C   C11       1.0  0.50444  0.70204  0.40251  1.0000
  C   C12       1.0  0.00444  0.79796  0.09749  1.0000
  C   C13       1.0  0.31474  0.46741  0.60305  1.0000
  C   C14       1.0  0.81474  0.03259  0.89695  1.0000
  C   C15       1.0  0.68526  0.53259  0.39695  1.0000
  C   C16       1.0  0.18527  0.96741  0.10305  1.0000
  C   C17       1.0  0.66644  0.67611  0.75928  1.0000
  C   C18       1.0  0.16644  0.82389  0.74072  1.0000
  C   C19       1.0  0.33356  0.32389  0.24072  1.0000
  C   C20       1.0  0.83356  0.17611  0.25928  1.0000
  C   C21       1.0  0.83232  0.63439  0.73088  1.0000
  C   C22       1.0  0.33232  0.86561  0.76911  1.0000
  C   C23       1.0  0.16768  0.36561  0.26912  1.0000
  C   C24       1.0  0.66768  0.13439  0.23089  1.0000
  C   C25       1.0  0.86814  0.49025  0.70750  1.0000
  C   C26       1.0  0.36814  0.00975  0.79250  1.0000
  C   C27       1.0  0.13186  0.50975  0.29250  1.0000
  C   C28       1.0  0.63187  0.99025  0.20750  1.0000
  S   S1        1.0  0.48899  0.34280  0.85305  1.0000
  S   S2        1.0  0.98898  0.15720  0.64695  1.0000
  S   S3        1.0  0.51102  0.65720  0.14695  1.0000
  S   S4        1.0  0.01101  0.84280  0.35305  1.0000
  S   S5        1.0  0.25842  0.55050  0.86747  1.0000
  S   S6        1.0  0.75842  0.94950  0.63253  1.0000
  S   S7        1.0  0.74158  0.44950  0.13253  1.0000
  S   S8        1.0  0.24157  0.05050  0.36747  1.0000
  N   N1        1.0  0.57725  0.21298  0.54302  1.0000
  N   N2        1.0  0.07725  0.28701  0.95698  1.0000
  N   N3        1.0  0.42276  0.78701  0.45698  1.0000
  N   N4        1.0  0.92275  0.71298  0.04302  1.0000
  N   N5        1.0  0.24866  0.52558  0.55323  1.0000
  N   N6        1.0  0.74866  0.97442  0.94677  1.0000
  N   N7        1.0  0.75134  0.47442  0.44677  1.0000
  N   N8        1.0  0.25133  0.02557  0.05324  1.0000
  N   N9        1.0  0.62275  0.69270  0.88125  1.0000
  N   N10       1.0  0.12275  0.80730  0.61875  1.0000
  N   N11       1.0  0.37725  0.30730  0.11875  1.0000
  N   N12       1.0  0.87725  0.19270  0.38125  1.0000
  N   N13       1.0  0.88619  0.45883  0.81566  1.0000
  N   N14       1.0  0.38619  0.04117  0.68434  1.0000
  N   N15       1.0  0.11381  0.54117  0.18434  1.0000
  N   N16       1.0  0.61381  0.95883  0.31566  1.0000
