data_image0
_chemical_formula_structural       Al2H22C16S2
_chemical_formula_sum              "Al2 H22 C16 S2"
_cell_length_a       6.92406
_cell_length_b       7.06532
_cell_length_c       8.94903
_cell_angle_alpha    100.84
_cell_angle_beta     89.9997
_cell_angle_gamma    90

_space_group_name_H-M_alt    "P 1"
_space_group_IT_number       1

loop_
  _space_group_symop_operation_xyz
  'x, y, z'

loop_
  _atom_site_type_symbol
  _atom_site_label
  _atom_site_symmetry_multiplicity
  _atom_site_fract_x
  _atom_site_fract_y
  _atom_site_fract_z
  _atom_site_occupancy
  Al  Al1       1.0  0.55806  0.86565  0.07603  1.0000
  Al  Al2       1.0  0.44195  0.36566  0.07603  1.0000
  H   H1        1.0  0.46008  0.87412  0.59873  1.0000
  H   H2        1.0  0.53991  0.37412  0.59872  1.0000
  H   H3        1.0  0.71541  0.85444  0.40077  1.0000
  H   H4        1.0  0.28457  0.35445  0.40078  1.0000
  H   H5        1.0  0.03204  0.01654  0.46302  1.0000
  H   H6        1.0  0.96794  0.51655  0.46305  1.0000
  H   H7        1.0  0.09441  0.19629  0.72608  1.0000
  H   H8        1.0  0.90559  0.69630  0.72612  1.0000
  H   H9        1.0  0.84128  0.21469  0.92414  1.0000
  H   H10       1.0  0.15874  0.71469  0.92417  1.0000
  H   H11       1.0  0.36910  0.77191  0.30162  1.0000
  H   H12       1.0  0.63088  0.27191  0.30163  1.0000
  H   H13       1.0  0.21492  0.89769  0.19638  1.0000
  H   H14       1.0  0.78508  0.39770  0.19639  1.0000
  H   H15       1.0  0.38862  0.02465  0.32315  1.0000
  H   H16       1.0  0.61136  0.52465  0.32315  1.0000
  H   H17       1.0  0.91625  0.90433  0.01129  1.0000
  H   H18       1.0  0.08375  0.40432  0.01129  1.0000
  H   H19       1.0  0.89442  0.76893  0.15837  1.0000
  H   H20       1.0  0.10560  0.26893  0.15837  1.0000
  H   H21       1.0  0.87002  0.02393  0.20058  1.0000
  H   H22       1.0  0.12998  0.52392  0.20058  1.0000
  C   C1        1.0  0.63519  0.04625  0.77340  1.0000
  C   C2        1.0  0.36483  0.54625  0.77341  1.0000
  C   C3        1.0  0.59938  0.94398  0.62605  1.0000
  C   C4        1.0  0.40061  0.44398  0.62606  1.0000
  C   C5        1.0  0.74304  0.93381  0.51530  1.0000
  C   C6        1.0  0.25697  0.43381  0.51532  1.0000
  C   C7        1.0  0.92068  0.02501  0.55018  1.0000
  C   C8        1.0  0.07931  0.52501  0.55021  1.0000
  C   C9        1.0  0.95587  0.12560  0.69751  1.0000
  C   C10       1.0  0.04414  0.62560  0.69754  1.0000
  C   C11       1.0  0.81388  0.13617  0.80930  1.0000
  C   C12       1.0  0.18615  0.63616  0.80933  1.0000
  C   C13       1.0  0.36322  0.89182  0.23909  1.0000
  C   C14       1.0  0.63678  0.39182  0.23910  1.0000
  C   C15       1.0  0.83689  0.89409  0.11580  1.0000
  C   C16       1.0  0.16312  0.39408  0.11580  1.0000
  S   S1        1.0  0.44436  0.06010  0.90898  1.0000
  S   S2        1.0  0.55565  0.56009  0.90897  1.0000
