data_image0
_chemical_formula_structural       CoH20C24N4O4
_chemical_formula_sum              "Co1 H20 C24 N4 O4"
_cell_length_a       8.53042
_cell_length_b       8.17886
_cell_length_c       9.36226
_cell_angle_alpha    84.0121
_cell_angle_beta     79.2065
_cell_angle_gamma    73.4461

_space_group_name_H-M_alt    "P 1"
_space_group_IT_number       1

loop_
  _space_group_symop_operation_xyz
  'x, y, z'

loop_
  _atom_site_type_symbol
  _atom_site_label
  _atom_site_symmetry_multiplicity
  _atom_site_fract_x
  _atom_site_fract_y
  _atom_site_fract_z
  _atom_site_occupancy
  Co  Co1       1.0  0.49999  1.00000  0.99997  1.0000
  H   H1        1.0  0.21516  0.24105  0.18331  1.0000
  H   H2        1.0  0.78482  0.75892  0.81664  1.0000
  H   H3        1.0  0.07468  0.55411  0.14644  1.0000
  H   H4        1.0  0.92531  0.44587  0.85354  1.0000
  H   H5        1.0  0.18598  0.71853  0.92703  1.0000
  H   H6        1.0  0.81404  0.28148  0.07298  1.0000
  H   H7        1.0  0.44164  0.56121  0.75824  1.0000
  H   H8        1.0  0.55838  0.43881  0.24177  1.0000
  H   H9        1.0  0.87226  0.88865  0.02452  1.0000
  H   H10       1.0  0.12774  0.11128  0.97553  1.0000
  H   H11       1.0  0.06989  0.91684  0.18257  1.0000
  H   H12       1.0  0.93011  0.08314  0.81746  1.0000
  H   H13       1.0  0.64716  0.18059  0.48136  1.0000
  H   H14       1.0  0.35283  0.81945  0.51863  1.0000
  H   H15       1.0  0.46570  0.13495  0.31433  1.0000
  H   H16       1.0  0.53430  0.86505  0.68567  1.0000
  H   H17       1.0  0.93465  0.19492  0.49510  1.0000
  H   H18       1.0  0.06535  0.80511  0.50490  1.0000
  H   H19       1.0  0.10955  0.07205  0.37577  1.0000
  H   H20       1.0  0.89045  0.92797  0.62423  1.0000
  C   C1        1.0  0.26014  0.31952  0.09235  1.0000
  C   C2        1.0  0.73984  0.68048  0.90762  1.0000
  C   C3        1.0  0.18281  0.49246  0.06954  1.0000
  C   C4        1.0  0.81718  0.50753  0.93044  1.0000
  C   C5        1.0  0.24511  0.58363  0.94821  1.0000
  C   C6        1.0  0.75489  0.41637  0.05178  1.0000
  C   C7        1.0  0.38571  0.49879  0.85463  1.0000
  C   C8        1.0  0.61429  0.50122  0.14537  1.0000
  C   C9        1.0  0.45844  0.32706  0.88474  1.0000
  C   C10       1.0  0.54157  0.67295  0.11525  1.0000
  C   C11       1.0  0.61142  0.22376  0.79365  1.0000
  C   C12       1.0  0.38859  0.77625  0.20635  1.0000
  C   C13       1.0  0.82695  0.95045  0.12788  1.0000
  C   C14       1.0  0.17305  0.04951  0.87215  1.0000
  C   C15       1.0  0.93639  0.96687  0.21492  1.0000
  C   C16       1.0  0.06362  0.03312  0.78509  1.0000
  C   C17       1.0  0.87381  0.05251  0.34429  1.0000
  C   C18       1.0  0.12618  0.94751  0.65571  1.0000
  C   C19       1.0  0.70104  0.11311  0.38147  1.0000
  C   C20       1.0  0.29896  0.88691  0.61854  1.0000
  C   C21       1.0  0.60058  0.08917  0.28855  1.0000
  C   C22       1.0  0.39942  0.91084  0.71146  1.0000
  C   C23       1.0  0.98767  0.07381  0.44085  1.0000
  C   C24       1.0  0.01232  0.92622  0.55916  1.0000
  N   N1        1.0  0.39508  0.23765  0.00072  1.0000
  N   N2        1.0  0.60492  0.76235  0.99926  1.0000
  N   N3        1.0  0.66145  0.01145  0.16231  1.0000
  N   N4        1.0  0.33855  0.98852  0.83772  1.0000
  O   O1        1.0  0.65505  0.06309  0.83925  1.0000
  O   O2        1.0  0.34496  0.93692  0.16073  1.0000
  O   O3        1.0  0.68690  0.29002  0.68733  1.0000
  O   O4        1.0  0.31314  0.71001  0.31268  1.0000
