data_image0
_chemical_formula_structural       Ba2H20C20O14
_chemical_formula_sum              "Ba2 H20 C20 O14"
_cell_length_a       6.67712
_cell_length_b       7.52667
_cell_length_c       11.7216
_cell_angle_alpha    89.999
_cell_angle_beta     97.0359
_cell_angle_gamma    89.9992

_space_group_name_H-M_alt    "P 1"
_space_group_IT_number       1

loop_
  _space_group_symop_operation_xyz
  'x, y, z'

loop_
  _atom_site_type_symbol
  _atom_site_label
  _atom_site_symmetry_multiplicity
  _atom_site_fract_x
  _atom_site_fract_y
  _atom_site_fract_z
  _atom_site_occupancy
  Ba  Ba1       1.0  0.65031  0.62469  0.08371  1.0000
  Ba  Ba2       1.0  0.34969  0.12470  0.91628  1.0000
  H   H1        1.0  0.85125  0.52080  0.35429  1.0000
  H   H2        1.0  0.14876  0.02079  0.64572  1.0000
  H   H3        1.0  0.10048  0.52812  0.52576  1.0000
  H   H4        1.0  0.89953  0.02811  0.47425  1.0000
  H   H5        1.0  0.71357  0.87653  0.69303  1.0000
  H   H6        1.0  0.28642  0.37652  0.30697  1.0000
  H   H7        1.0  0.46413  0.87344  0.51801  1.0000
  H   H8        1.0  0.53585  0.37343  0.48199  1.0000
  H   H9        1.0  0.33098  0.91230  0.31388  1.0000
  H   H10       1.0  0.66900  0.41230  0.68611  1.0000
  H   H11       1.0  0.24513  0.72795  0.39043  1.0000
  H   H12       1.0  0.75486  0.22795  0.60957  1.0000
  H   H13       1.0  0.32753  0.62837  0.65799  1.0000
  H   H14       1.0  0.67247  0.12835  0.34201  1.0000
  H   H15       1.0  0.16833  0.46862  0.71706  1.0000
  H   H16       1.0  0.83169  0.96861  0.28294  1.0000
  H   H17       1.0  0.98177  0.44468  0.91188  1.0000
  H   H18       1.0  0.01823  0.94468  0.08811  1.0000
  H   H19       1.0  0.08393  0.55476  0.02124  1.0000
  H   H20       1.0  0.91609  0.05477  0.97875  1.0000
  C   C1        1.0  0.64339  0.69931  0.42290  1.0000
  C   C2        1.0  0.35661  0.19931  0.57711  1.0000
  C   C3        1.0  0.82252  0.60211  0.42744  1.0000
  C   C4        1.0  0.17748  0.10210  0.57257  1.0000
  C   C5        1.0  0.96390  0.60698  0.52499  1.0000
  C   C6        1.0  0.03611  0.10697  0.47501  1.0000
  C   C7        1.0  0.92795  0.71010  0.62011  1.0000
  C   C8        1.0  0.07204  0.21009  0.37989  1.0000
  C   C9        1.0  0.74502  0.80194  0.61747  1.0000
  C   C10       1.0  0.25497  0.30195  0.38253  1.0000
  C   C11       1.0  0.60352  0.79816  0.51888  1.0000
  C   C12       1.0  0.39647  0.29815  0.48112  1.0000
  C   C13       1.0  0.32037  0.76610  0.31556  1.0000
  C   C14       1.0  0.67962  0.26610  0.68444  1.0000
  C   C15       1.0  0.18861  0.70481  0.20695  1.0000
  C   C16       1.0  0.81140  0.20483  0.79305  1.0000
  C   C17       1.0  0.22876  0.60425  0.72573  1.0000
  C   C18       1.0  0.77124  0.10423  0.27427  1.0000
  C   C19       1.0  0.36051  0.62227  0.84044  1.0000
  C   C20       1.0  0.63950  0.12227  0.15955  1.0000
  O   O1        1.0  0.51604  0.68652  0.32116  1.0000
  O   O2        1.0  0.48396  0.18651  0.67884  1.0000
  O   O3        1.0  0.26334  0.60371  0.13693  1.0000
  O   O4        1.0  0.73668  0.10372  0.86308  1.0000
  O   O5        1.0  0.00840  0.76324  0.19532  1.0000
  O   O6        1.0  0.99160  0.26325  0.80468  1.0000
  O   O7        1.0  0.06541  0.72890  0.71662  1.0000
  O   O8        1.0  0.93458  0.22890  0.28338  1.0000
  O   O9        1.0  0.43801  0.47842  0.88333  1.0000
  O   O10       1.0  0.56202  0.97841  0.11666  1.0000
  O   O11       1.0  0.39610  0.77376  0.88530  1.0000
  O   O12       1.0  0.60390  0.27375  0.11471  1.0000
  O   O13       1.0  0.95912  0.53990  0.96614  1.0000
  O   O14       1.0  0.04089  0.03990  0.03385  1.0000
