data_image0
_chemical_formula_structural       Cu2H24C24N10Cl2O8
_chemical_formula_sum              "Cu2 H24 C24 N10 Cl2 O8"
_cell_length_a       7.54171
_cell_length_b       9.52645
_cell_length_c       10.0578
_cell_angle_alpha    87.6676
_cell_angle_beta     88.5849
_cell_angle_gamma    84.9384

_space_group_name_H-M_alt    "P 1"
_space_group_IT_number       1

loop_
  _space_group_symop_operation_xyz
  'x, y, z'

loop_
  _atom_site_type_symbol
  _atom_site_label
  _atom_site_symmetry_multiplicity
  _atom_site_fract_x
  _atom_site_fract_y
  _atom_site_fract_z
  _atom_site_occupancy
  Cu  Cu1       1.0  0.84160  0.30868  0.20276  1.0000
  Cu  Cu2       1.0  0.15841  0.69131  0.79723  1.0000
  H   H1        1.0  0.34390  0.27548  0.54065  1.0000
  H   H2        1.0  0.65610  0.72456  0.45934  1.0000
  H   H3        1.0  0.21001  0.30561  0.04059  1.0000
  H   H4        1.0  0.79000  0.69437  0.95941  1.0000
  H   H5        1.0  0.59400  0.04646  0.26975  1.0000
  H   H6        1.0  0.40600  0.95353  0.73027  1.0000
  H   H7        1.0  0.41449  0.04067  0.37768  1.0000
  H   H8        1.0  0.58550  0.95934  0.62233  1.0000
  H   H9        1.0  0.40704  0.88143  0.19748  1.0000
  H   H10       1.0  0.59295  0.11856  0.80254  1.0000
  H   H11       1.0  0.40487  0.02735  0.08125  1.0000
  H   H12       1.0  0.59513  0.97264  0.91876  1.0000
  H   H13       1.0  0.22259  0.01422  0.19821  1.0000
  H   H14       1.0  0.77741  0.98579  0.80180  1.0000
  H   H15       1.0  0.27380  0.25240  0.28709  1.0000
  H   H16       1.0  0.72621  0.74760  0.71291  1.0000
  H   H17       1.0  0.58464  0.36882  0.68080  1.0000
  H   H18       1.0  0.41538  0.63124  0.31917  1.0000
  H   H19       1.0  0.86343  0.40778  0.50282  1.0000
  H   H20       1.0  0.13658  0.59225  0.49714  1.0000
  H   H21       1.0  0.73043  0.37523  0.89475  1.0000
  H   H22       1.0  0.26957  0.62473  0.10525  1.0000
  H   H23       1.0  0.36524  0.38559  0.83065  1.0000
  H   H24       1.0  0.63476  0.61439  0.16934  1.0000
  C   C1        1.0  0.36603  0.99377  0.18223  1.0000
  C   C2        1.0  0.63397  0.00623  0.81779  1.0000
  C   C3        1.0  0.41832  0.23200  0.26858  1.0000
  C   C4        1.0  0.58169  0.76799  0.73141  1.0000
  C   C5        1.0  0.51938  0.29333  0.37484  1.0000
  C   C6        1.0  0.48062  0.70668  0.62515  1.0000
  C   C7        1.0  0.59749  0.35013  0.57567  1.0000
  C   C8        1.0  0.40251  0.64992  0.42430  1.0000
  C   C9        1.0  0.73490  0.36957  0.48651  1.0000
  C   C10       1.0  0.26511  0.63046  0.51346  1.0000
  C   C11       1.0  0.46447  0.28664  0.13238  1.0000
  C   C12       1.0  0.53553  0.71334  0.86761  1.0000
  C   C13       1.0  0.61448  0.34786  0.95360  1.0000
  C   C14       1.0  0.38552  0.65210  0.04640  1.0000
  C   C15       1.0  0.43721  0.35386  0.92055  1.0000
  C   C16       1.0  0.56279  0.64612  0.07945  1.0000
  C   C17       1.0  0.99792  0.10554  0.02338  1.0000
  C   C18       1.0  0.00211  0.89444  0.97662  1.0000
  C   C19       1.0  0.89599  0.98565  0.07113  1.0000
  C   C20       1.0  0.10404  0.01432  0.92889  1.0000
  C   C21       1.0  0.00530  0.07120  0.41816  1.0000
  C   C22       1.0  0.99466  0.92882  0.58188  1.0000
  C   C23       1.0  0.86227  0.00126  0.49059  1.0000
  C   C24       1.0  0.13770  0.99878  0.50944  1.0000
  N   N1        1.0  0.46330  0.30278  0.50375  1.0000
  N   N2        1.0  0.53671  0.69725  0.49624  1.0000
  N   N3        1.0  0.68435  0.33373  0.36257  1.0000
  N   N4        1.0  0.31564  0.66628  0.63740  1.0000
  N   N5        1.0  0.62897  0.30539  0.08599  1.0000
  N   N6        1.0  0.37103  0.69458  0.91399  1.0000
  N   N7        1.0  0.34600  0.31519  0.03371  1.0000
  N   N8        1.0  0.65400  0.68479  0.96628  1.0000
  N   N9        1.0  0.45748  0.07206  0.28008  1.0000
  N   N10       1.0  0.54252  0.92792  0.71994  1.0000
  Cl  Cl1       1.0  0.01394  0.49702  0.24095  1.0000
  Cl  Cl2       1.0  0.98606  0.50297  0.75904  1.0000
  O   O1        1.0  0.00008  0.23384  0.05083  1.0000
  O   O2        1.0  0.99992  0.76613  0.94918  1.0000
  O   O3        1.0  0.77319  0.96758  0.15300  1.0000
  O   O4        1.0  0.22682  0.03240  0.84701  1.0000
  O   O5        1.0  0.02253  0.15579  0.32040  1.0000
  O   O6        1.0  0.97746  0.84421  0.67961  1.0000
  O   O7        1.0  0.69607  0.99931  0.48203  1.0000
  O   O8        1.0  0.30389  0.00072  0.51799  1.0000
