data_image0
_chemical_formula_structural       Cd2H24C38S4N16
_chemical_formula_sum              "Cd2 H24 C38 S4 N16"
_cell_length_a       8.52434
_cell_length_b       8.94826
_cell_length_c       13.2069
_cell_angle_alpha    88.0627
_cell_angle_beta     81.8818
_cell_angle_gamma    80.7608

_space_group_name_H-M_alt    "P 1"
_space_group_IT_number       1

loop_
  _space_group_symop_operation_xyz
  'x, y, z'

loop_
  _atom_site_type_symbol
  _atom_site_label
  _atom_site_symmetry_multiplicity
  _atom_site_fract_x
  _atom_site_fract_y
  _atom_site_fract_z
  _atom_site_occupancy
  Cd  Cd1       1.0  0.75651  0.26645  0.52623  1.0000
  Cd  Cd2       1.0  0.24349  0.73355  0.47377  1.0000
  H   H1        1.0  0.37406  0.53181  0.27028  1.0000
  H   H2        1.0  0.62594  0.46818  0.72972  1.0000
  H   H3        1.0  0.91973  0.76232  0.36645  1.0000
  H   H4        1.0  0.08027  0.23768  0.63355  1.0000
  H   H5        1.0  0.80966  0.67588  0.21622  1.0000
  H   H6        1.0  0.19034  0.32413  0.78378  1.0000
  H   H7        1.0  0.99401  0.50843  0.08784  1.0000
  H   H8        1.0  0.00599  0.49157  0.91216  1.0000
  H   H9        1.0  0.64208  0.18357  0.80978  1.0000
  H   H10       1.0  0.35792  0.81643  0.19021  1.0000
  H   H11       1.0  0.87642  0.97804  0.76425  1.0000
  H   H12       1.0  0.12358  0.02196  0.23575  1.0000
  H   H13       1.0  0.98412  0.81458  0.90649  1.0000
  H   H14       1.0  0.01588  0.18542  0.09351  1.0000
  H   H15       1.0  0.85550  0.86861  0.08641  1.0000
  H   H16       1.0  0.14450  0.13139  0.91359  1.0000
  H   H17       1.0  0.34557  0.14473  0.26589  1.0000
  H   H18       1.0  0.65442  0.85527  0.73411  1.0000
  H   H19       1.0  0.48183  0.10942  0.42250  1.0000
  H   H20       1.0  0.51818  0.89057  0.57750  1.0000
  H   H21       1.0  0.83746  0.35120  0.29429  1.0000
  H   H22       1.0  0.16254  0.64879  0.70571  1.0000
  H   H23       1.0  0.71259  0.40144  0.13229  1.0000
  H   H24       1.0  0.28741  0.59856  0.86771  1.0000
  C   C1        1.0  0.25003  0.55784  0.25526  1.0000
  C   C2        1.0  0.74997  0.44216  0.74474  1.0000
  C   C3        1.0  0.99638  0.68982  0.30849  1.0000
  C   C4        1.0  0.00363  0.31018  0.69150  1.0000
  C   C5        1.0  0.93582  0.64145  0.22469  1.0000
  C   C6        1.0  0.06418  0.35855  0.77531  1.0000
  C   C7        1.0  0.03848  0.54758  0.15407  1.0000
  C   C8        1.0  0.96152  0.45242  0.84593  1.0000
  C   C9        1.0  0.19993  0.50363  0.16857  1.0000
  C   C10       1.0  0.80007  0.49637  0.83143  1.0000
  C   C11       1.0  0.30661  0.41271  0.08922  1.0000
  C   C12       1.0  0.69339  0.58729  0.91078  1.0000
  C   C13       1.0  0.49809  0.25611  0.00061  1.0000
  C   C14       1.0  0.50191  0.74389  0.99939  1.0000
  C   C15       1.0  0.63417  0.13627  0.97203  1.0000
  C   C16       1.0  0.36583  0.86373  0.02797  1.0000
  C   C17       1.0  0.69559  0.11280  0.86850  1.0000
  C   C18       1.0  0.30442  0.88720  0.13150  1.0000
  C   C19       1.0  0.82419  0.99687  0.84392  1.0000
  C   C20       1.0  0.17581  0.00312  0.15608  1.0000
  C   C21       1.0  0.88369  0.90643  0.92246  1.0000
  C   C22       1.0  0.11631  0.09357  0.07754  1.0000
  C   C23       1.0  0.81283  0.93743  0.02309  1.0000
  C   C24       1.0  0.18717  0.06257  0.97691  1.0000
  C   C25       1.0  0.52012  0.27585  0.18827  1.0000
  C   C26       1.0  0.47988  0.72415  0.81173  1.0000
  C   C27       1.0  0.45388  0.19271  0.26946  1.0000
  C   C28       1.0  0.54612  0.80729  0.73054  1.0000
  C   C29       1.0  0.53077  0.17204  0.35645  1.0000
  C   C30       1.0  0.46924  0.82795  0.64355  1.0000
  C   C31       1.0  0.72858  0.30718  0.28441  1.0000
  C   C32       1.0  0.27142  0.69282  0.71559  1.0000
  C   C33       1.0  0.66055  0.33416  0.19482  1.0000
  C   C34       1.0  0.33945  0.66584  0.80518  1.0000
  C   C35       1.0  0.12356  0.10821  0.42397  1.0000
  C   C36       1.0  0.87644  0.89180  0.57603  1.0000
  C   C37       1.0  0.37118  0.38452  0.56457  1.0000
  C   C38       1.0  0.62882  0.61548  0.43543  1.0000
  S   S1        1.0  0.05393  0.28813  0.42104  1.0000
  S   S2        1.0  0.94607  0.71188  0.57896  1.0000
  S   S3        1.0  0.45954  0.24528  0.62953  1.0000
  S   S4        1.0  0.54046  0.75471  0.37047  1.0000
  N   N1        1.0  0.15027  0.64886  0.32303  1.0000
  N   N2        1.0  0.84973  0.35113  0.67697  1.0000
  N   N3        1.0  0.28333  0.42207  0.99138  1.0000
  N   N4        1.0  0.71667  0.57793  0.00861  1.0000
  N   N5        1.0  0.40230  0.32491  0.93634  1.0000
  N   N6        1.0  0.59770  0.67509  0.06366  1.0000
  N   N7        1.0  0.44271  0.30874  0.09866  1.0000
  N   N8        1.0  0.55729  0.69125  0.90135  1.0000
  N   N9        1.0  0.69162  0.05021  0.04833  1.0000
  N   N10       1.0  0.30838  0.94979  0.95167  1.0000
  N   N11       1.0  0.66503  0.22875  0.36438  1.0000
  N   N12       1.0  0.33497  0.77124  0.63562  1.0000
  N   N13       1.0  0.17843  0.97794  0.42321  1.0000
  N   N14       1.0  0.82158  0.02206  0.57678  1.0000
  N   N15       1.0  0.30666  0.48271  0.51584  1.0000
  N   N16       1.0  0.69334  0.51728  0.48416  1.0000
