data_image0
_chemical_formula_structural       Cd2H24C38S4N16
_chemical_formula_sum              "Cd2 H24 C38 S4 N16"
_cell_length_a       8.77614
_cell_length_b       9.91481
_cell_length_c       12.2044
_cell_angle_alpha    73.34
_cell_angle_beta     75.1315
_cell_angle_gamma    79.8086

_space_group_name_H-M_alt    "P 1"
_space_group_IT_number       1

loop_
  _space_group_symop_operation_xyz
  'x, y, z'

loop_
  _atom_site_type_symbol
  _atom_site_label
  _atom_site_symmetry_multiplicity
  _atom_site_fract_x
  _atom_site_fract_y
  _atom_site_fract_z
  _atom_site_occupancy
  Cd  Cd1       1.0  0.63601  0.80575  0.68453  1.0000
  Cd  Cd2       1.0  0.36399  0.19425  0.31547  1.0000
  H   H1        1.0  0.90928  0.92269  0.44221  1.0000
  H   H2        1.0  0.09073  0.07730  0.55778  1.0000
  H   H3        1.0  0.16896  0.84066  0.32133  1.0000
  H   H4        1.0  0.83105  0.15933  0.67867  1.0000
  H   H5        1.0  0.31132  0.60448  0.40576  1.0000
  H   H6        1.0  0.68869  0.39552  0.59424  1.0000
  H   H7        1.0  0.18861  0.45959  0.60107  1.0000
  H   H8        1.0  0.81139  0.54040  0.39894  1.0000
  H   H9        1.0  0.05919  0.27203  0.03900  1.0000
  H   H10       1.0  0.94081  0.72797  0.96100  1.0000
  H   H11       1.0  0.00819  0.12910  0.24356  1.0000
  H   H12       1.0  0.99181  0.87089  0.75644  1.0000
  H   H13       1.0  0.72670  0.09768  0.35363  1.0000
  H   H14       1.0  0.27329  0.90232  0.64637  1.0000
  H   H15       1.0  0.55207  0.32509  0.06112  1.0000
  H   H16       1.0  0.44792  0.67492  0.93888  1.0000
  H   H17       1.0  0.44147  0.46088  0.83705  1.0000
  H   H18       1.0  0.55853  0.53912  0.16295  1.0000
  H   H19       1.0  0.53770  0.21359  0.82051  1.0000
  H   H20       1.0  0.46230  0.78642  0.17948  1.0000
  H   H21       1.0  0.34619  0.06500  0.80267  1.0000
  H   H22       1.0  0.65382  0.93500  0.19733  1.0000
  H   H23       1.0  0.06023  0.16970  0.80796  1.0000
  H   H24       1.0  0.93977  0.83030  0.19204  1.0000
  C   C1        1.0  0.97561  0.82085  0.47398  1.0000
  C   C2        1.0  0.02439  0.17915  0.52602  1.0000
  C   C3        1.0  0.11982  0.77512  0.40748  1.0000
  C   C4        1.0  0.88019  0.22488  0.59252  1.0000
  C   C5        1.0  0.19792  0.64401  0.45426  1.0000
  C   C6        1.0  0.80208  0.35599  0.54574  1.0000
  C   C7        1.0  0.13010  0.56304  0.56431  1.0000
  C   C8        1.0  0.86990  0.43695  0.43568  1.0000
  C   C9        1.0  0.98484  0.61660  0.62489  1.0000
  C   C10       1.0  0.01516  0.38340  0.37511  1.0000
  C   C11       1.0  0.89625  0.54055  0.73821  1.0000
  C   C12       1.0  0.10375  0.45945  0.26179  1.0000
  C   C13       1.0  0.81738  0.40717  0.91551  1.0000
  C   C14       1.0  0.18262  0.59283  0.08449  1.0000
  C   C15       1.0  0.80881  0.31224  0.03243  1.0000
  C   C16       1.0  0.19118  0.68776  0.96758  1.0000
  C   C17       1.0  0.93792  0.25420  0.08503  1.0000
  C   C18       1.0  0.06208  0.74580  0.91497  1.0000
  C   C19       1.0  0.90939  0.17414  0.20102  1.0000
  C   C20       1.0  0.09061  0.82586  0.79898  1.0000
  C   C21       1.0  0.75457  0.15618  0.26189  1.0000
  C   C22       1.0  0.24543  0.84381  0.73811  1.0000
  C   C23       1.0  0.65581  0.28410  0.09920  1.0000
  C   C24       1.0  0.34419  0.71590  0.90080  1.0000
  C   C25       1.0  0.11079  0.36936  0.82188  1.0000
  C   C26       1.0  0.88921  0.63064  0.17812  1.0000
  C   C27       1.0  0.36114  0.39424  0.82804  1.0000
  C   C28       1.0  0.63885  0.60576  0.17196  1.0000
  C   C29       1.0  0.41496  0.25628  0.81801  1.0000
  C   C30       1.0  0.58504  0.74373  0.18199  1.0000
  C   C31       1.0  0.30785  0.17328  0.80958  1.0000
  C   C32       1.0  0.69216  0.82672  0.19042  1.0000
  C   C33       1.0  0.15028  0.23070  0.81121  1.0000
  C   C34       1.0  0.84973  0.76930  0.18879  1.0000
  C   C35       1.0  0.45765  0.85830  0.46042  1.0000
  C   C36       1.0  0.54234  0.14169  0.53958  1.0000
  C   C37       1.0  0.71987  0.94892  0.87495  1.0000
  C   C38       1.0  0.28013  0.05108  0.12504  1.0000
  S   S1        1.0  0.55269  0.70880  0.51714  1.0000
  S   S2        1.0  0.44729  0.29120  0.48287  1.0000
  S   S3        1.0  0.76906  0.06513  0.92533  1.0000
  S   S4        1.0  0.23094  0.93488  0.07467  1.0000
  N   N1        1.0  0.90965  0.74467  0.57996  1.0000
  N   N2        1.0  0.09035  0.25533  0.42003  1.0000
  N   N3        1.0  0.74073  0.57145  0.77366  1.0000
  N   N4        1.0  0.25927  0.42855  0.22634  1.0000
  N   N5        1.0  0.69115  0.49033  0.88333  1.0000
  N   N6        1.0  0.30885  0.50967  0.11667  1.0000
  N   N7        1.0  0.94941  0.43455  0.82504  1.0000
  N   N8        1.0  0.05059  0.56545  0.17496  1.0000
  N   N9        1.0  0.62973  0.21017  0.21120  1.0000
  N   N10       1.0  0.37027  0.78984  0.78880  1.0000
  N   N11       1.0  0.21022  0.45150  0.82981  1.0000
  N   N12       1.0  0.78978  0.54850  0.17019  1.0000
  N   N13       1.0  0.38304  0.96582  0.42246  1.0000
  N   N14       1.0  0.61695  0.03418  0.57754  1.0000
  N   N15       1.0  0.68781  0.86065  0.83860  1.0000
  N   N16       1.0  0.31219  0.13936  0.16140  1.0000
