data_image0
_chemical_formula_structural       Cd2H24C38S4N16
_chemical_formula_sum              "Cd2 H24 C38 S4 N16"
_cell_length_a       8.64595
_cell_length_b       8.80371
_cell_length_c       14.445
_cell_angle_alpha    96.5804
_cell_angle_beta     98.6002
_cell_angle_gamma    104.912

_space_group_name_H-M_alt    "P 1"
_space_group_IT_number       1

loop_
  _space_group_symop_operation_xyz
  'x, y, z'

loop_
  _atom_site_type_symbol
  _atom_site_label
  _atom_site_symmetry_multiplicity
  _atom_site_fract_x
  _atom_site_fract_y
  _atom_site_fract_z
  _atom_site_occupancy
  Cd  Cd1       1.0  0.72654  0.52887  0.73071  1.0000
  Cd  Cd2       1.0  0.27346  0.47113  0.26929  1.0000
  H   H1        1.0  0.16355  0.46129  0.04204  1.0000
  H   H2        1.0  0.83645  0.53871  0.95796  1.0000
  H   H3        1.0  0.38704  0.17425  0.19037  1.0000
  H   H4        1.0  0.61296  0.82576  0.80963  1.0000
  H   H5        1.0  0.31747  0.95996  0.04621  1.0000
  H   H6        1.0  0.68252  0.04004  0.95379  1.0000
  H   H7        1.0  0.15963  0.00055  0.89767  1.0000
  H   H8        1.0  0.84037  0.99945  0.10233  1.0000
  H   H9        1.0  0.10848  0.20116  0.58132  1.0000
  H   H10       1.0  0.89152  0.79883  0.41868  1.0000
  H   H11       1.0  0.02653  0.22550  0.41394  1.0000
  H   H12       1.0  0.97347  0.77450  0.58605  1.0000
  H   H13       1.0  0.79699  0.34608  0.36847  1.0000
  H   H14       1.0  0.20301  0.65392  0.63153  1.0000
  H   H15       1.0  0.66648  0.44669  0.49718  1.0000
  H   H16       1.0  0.33352  0.55331  0.50282  1.0000
  H   H17       1.0  0.11179  0.96046  0.72389  1.0000
  H   H18       1.0  0.88821  0.03953  0.27611  1.0000
  H   H19       1.0  0.36738  0.91410  0.67552  1.0000
  H   H20       1.0  0.63262  0.08590  0.32449  1.0000
  H   H21       1.0  0.60337  0.14681  0.67925  1.0000
  H   H22       1.0  0.39662  0.85319  0.32075  1.0000
  H   H23       1.0  0.35941  0.46453  0.77889  1.0000
  H   H24       1.0  0.64059  0.53547  0.22111  1.0000
  C   C1        1.0  0.19688  0.34950  0.04075  1.0000
  C   C2        1.0  0.80312  0.65050  0.95925  1.0000
  C   C3        1.0  0.32139  0.18787  0.12270  1.0000
  C   C4        1.0  0.67862  0.81213  0.87730  1.0000
  C   C5        1.0  0.28276  0.07007  0.04320  1.0000
  C   C6        1.0  0.71724  0.92994  0.95680  1.0000
  C   C7        1.0  0.19587  0.09387  0.95952  1.0000
  C   C8        1.0  0.80413  0.90614  0.04048  1.0000
  C   C9        1.0  0.15192  0.23627  0.95775  1.0000
  C   C10       1.0  0.84808  0.76373  0.04225  1.0000
  C   C11       1.0  0.05402  0.27017  0.87538  1.0000
  C   C12       1.0  0.94598  0.72983  0.12462  1.0000
  C   C13       1.0  0.96399  0.30603  0.73122  1.0000
  C   C14       1.0  0.03601  0.69397  0.26878  1.0000
  C   C15       1.0  0.93244  0.31499  0.62961  1.0000
  C   C16       1.0  0.06755  0.68501  0.37039  1.0000
  C   C17       1.0  0.01176  0.25627  0.56212  1.0000
  C   C18       1.0  0.98824  0.74373  0.43788  1.0000
  C   C19       1.0  0.96401  0.26812  0.46720  1.0000
  C   C20       1.0  0.03600  0.73189  0.53280  1.0000
  C   C21       1.0  0.83749  0.33494  0.44186  1.0000
  C   C22       1.0  0.16250  0.66506  0.55814  1.0000
  C   C23       1.0  0.76499  0.39187  0.51335  1.0000
  C   C24       1.0  0.23501  0.60813  0.48665  1.0000
  C   C25       1.0  0.21979  0.21585  0.75386  1.0000
  C   C26       1.0  0.78021  0.78414  0.24614  1.0000
  C   C27       1.0  0.21923  0.05908  0.72517  1.0000
  C   C28       1.0  0.78077  0.94091  0.27483  1.0000
  C   C29       1.0  0.36001  0.03352  0.69874  1.0000
  C   C30       1.0  0.63999  0.96648  0.30126  1.0000
  C   C31       1.0  0.49304  0.16385  0.70140  1.0000
  C   C32       1.0  0.50696  0.83615  0.29861  1.0000
  C   C33       1.0  0.35776  0.34115  0.75577  1.0000
  C   C34       1.0  0.64224  0.65885  0.24422  1.0000
  C   C35       1.0  0.10825  0.70634  0.80680  1.0000
  C   C36       1.0  0.89177  0.29366  0.19320  1.0000
  C   C37       1.0  0.63562  0.77154  0.60549  1.0000
  C   C38       1.0  0.36438  0.22848  0.39451  1.0000
  S   S1        1.0  0.27429  0.70394  0.87421  1.0000
  S   S2        1.0  0.72572  0.29605  0.12579  1.0000
  S   S3        1.0  0.69921  0.92483  0.55597  1.0000
  S   S4        1.0  0.30079  0.07519  0.44403  1.0000
  N   N1        1.0  0.27917  0.32474  0.12134  1.0000
  N   N2        1.0  0.72083  0.67526  0.87866  1.0000
  N   N3        1.0  0.92840  0.32959  0.87927  1.0000
  N   N4        1.0  0.07160  0.67041  0.12073  1.0000
  N   N5        1.0  0.87336  0.35082  0.78991  1.0000
  N   N6        1.0  0.12663  0.64917  0.21009  1.0000
  N   N7        1.0  0.08034  0.25228  0.78296  1.0000
  N   N8        1.0  0.91966  0.74772  0.21704  1.0000
  N   N9        1.0  0.81221  0.38383  0.60462  1.0000
  N   N10       1.0  0.18778  0.61617  0.39538  1.0000
  N   N11       1.0  0.49198  0.31429  0.72973  1.0000
  N   N12       1.0  0.50802  0.68571  0.27027  1.0000
  N   N13       1.0  0.98757  0.71200  0.75631  1.0000
  N   N14       1.0  0.01243  0.28800  0.24369  1.0000
  N   N15       1.0  0.58468  0.65717  0.64121  1.0000
  N   N16       1.0  0.41533  0.34286  0.35880  1.0000
