data_image0
_chemical_formula_structural       CdH28C26S2N8Cl2
_chemical_formula_sum              "Cd1 H28 C26 S2 N8 Cl2"
_cell_length_a       7.90966
_cell_length_b       9.04884
_cell_length_c       12.1432
_cell_angle_alpha    68.1512
_cell_angle_beta     82.6174
_cell_angle_gamma    69.9142

_space_group_name_H-M_alt    "P 1"
_space_group_IT_number       1

loop_
  _space_group_symop_operation_xyz
  'x, y, z'

loop_
  _atom_site_type_symbol
  _atom_site_label
  _atom_site_symmetry_multiplicity
  _atom_site_fract_x
  _atom_site_fract_y
  _atom_site_fract_z
  _atom_site_occupancy
  Cd  Cd1       1.0  0.50000  0.00000  0.00000  1.0000
  H   H1        1.0  0.68585  0.68810  0.21795  1.0000
  H   H2        1.0  0.31376  0.09404  0.21845  1.0000
  H   H3        1.0  0.31415  0.31190  0.78205  1.0000
  H   H4        1.0  0.68623  0.90597  0.78156  1.0000
  H   H5        1.0  0.63700  0.45703  0.39880  1.0000
  H   H6        1.0  0.36281  0.14426  0.39929  1.0000
  H   H7        1.0  0.36299  0.54297  0.60120  1.0000
  H   H8        1.0  0.63720  0.85575  0.60071  1.0000
  H   H9        1.0  0.32504  0.42669  0.43377  1.0000
  H   H10       1.0  0.67485  0.13977  0.43387  1.0000
  H   H11       1.0  0.67496  0.57330  0.56623  1.0000
  H   H12       1.0  0.32516  0.86023  0.56614  1.0000
  H   H13       1.0  0.15882  0.84750  0.10852  1.0000
  H   H14       1.0  0.84067  0.04440  0.10824  1.0000
  H   H15       1.0  0.84118  0.15249  0.89149  1.0000
  H   H16       1.0  0.15932  0.95560  0.89176  1.0000
  H   H17       1.0  0.99799  0.57715  0.38372  1.0000
  H   H18       1.0  0.00219  0.03897  0.38331  1.0000
  H   H19       1.0  0.00201  0.42284  0.61628  1.0000
  H   H20       1.0  0.99781  0.96103  0.61669  1.0000
  H   H21       1.0  0.93398  0.74210  0.24338  1.0000
  H   H22       1.0  0.06563  0.01481  0.24270  1.0000
  H   H23       1.0  0.06602  0.25790  0.75662  1.0000
  H   H24       1.0  0.93436  0.98519  0.75729  1.0000
  H   H25       1.0  0.99190  0.54861  0.15071  1.0000
  H   H26       1.0  0.00774  0.30081  0.15052  1.0000
  H   H27       1.0  0.00810  0.45139  0.84929  1.0000
  H   H28       1.0  0.99226  0.69919  0.84948  1.0000
  C   C1        1.0  0.55491  0.66918  0.23704  1.0000
  C   C2        1.0  0.44471  0.09396  0.23736  1.0000
  C   C3        1.0  0.44508  0.33082  0.76296  1.0000
  C   C4        1.0  0.55528  0.90604  0.76264  1.0000
  C   C5        1.0  0.52600  0.54097  0.33736  1.0000
  C   C6        1.0  0.47373  0.12187  0.33767  1.0000
  C   C7        1.0  0.47399  0.45904  0.66264  1.0000
  C   C8        1.0  0.52627  0.87813  0.66233  1.0000
  C   C9        1.0  0.35517  0.52380  0.35584  1.0000
  C   C10       1.0  0.64461  0.12063  0.35595  1.0000
  C   C11       1.0  0.64483  0.47620  0.64416  1.0000
  C   C12       1.0  0.35539  0.87937  0.64405  1.0000
  C   C13       1.0  0.21885  0.63382  0.27323  1.0000
  C   C14       1.0  0.78089  0.09313  0.27316  1.0000
  C   C15       1.0  0.78114  0.36617  0.72677  1.0000
  C   C16       1.0  0.21911  0.90687  0.72684  1.0000
  C   C17       1.0  0.26090  0.75801  0.17507  1.0000
  C   C18       1.0  0.73871  0.06710  0.17502  1.0000
  C   C19       1.0  0.73910  0.24199  0.82493  1.0000
  C   C20       1.0  0.26128  0.93290  0.82498  1.0000
  C   C21       1.0  0.03226  0.61894  0.28896  1.0000
  C   C22       1.0  0.96758  0.09214  0.28862  1.0000
  C   C23       1.0  0.96774  0.38106  0.71104  1.0000
  C   C24       1.0  0.03242  0.90786  0.71138  1.0000
  C   C25       1.0  0.00003  0.34721  0.30531  1.0000
  C   C26       1.0  0.99996  0.65279  0.69468  1.0000
  S   S1        1.0  0.00030  0.27191  0.45551  1.0000
  S   S2        1.0  0.99969  0.72809  0.54449  1.0000
  N   N1        1.0  0.42501  0.77625  0.15727  1.0000
  N   N2        1.0  0.57453  0.06673  0.15738  1.0000
  N   N3        1.0  0.57499  0.22376  0.84273  1.0000
  N   N4        1.0  0.42547  0.93327  0.84263  1.0000
  N   N5        1.0  0.01641  0.50006  0.24019  1.0000
  N   N6        1.0  0.98346  0.25972  0.24004  1.0000
  N   N7        1.0  0.98359  0.49994  0.75980  1.0000
  N   N8        1.0  0.01654  0.74028  0.75995  1.0000
  Cl  Cl1       1.0  0.84647  0.80586  0.00011  1.0000
  Cl  Cl2       1.0  0.15352  0.19414  0.99989  1.0000
