data_image0
_chemical_formula_structural       Cd2H56C56S8N20
_chemical_formula_sum              "Cd2 H56 C56 S8 N20"
_cell_length_a       11.0032
_cell_length_b       12.751
_cell_length_c       13.7573
_cell_angle_alpha    69.4474
_cell_angle_beta     66.4483
_cell_angle_gamma    64.4475

_space_group_name_H-M_alt    "P 1"
_space_group_IT_number       1

loop_
  _space_group_symop_operation_xyz
  'x, y, z'

loop_
  _atom_site_type_symbol
  _atom_site_label
  _atom_site_symmetry_multiplicity
  _atom_site_fract_x
  _atom_site_fract_y
  _atom_site_fract_z
  _atom_site_occupancy
  Cd  Cd1       1.0  0.73641  0.74999  0.24986  1.0000
  Cd  Cd2       1.0  0.26359  0.25001  0.75013  1.0000
  H   H1        1.0  0.81626  0.69110  0.01860  1.0000
  H   H2        1.0  0.52658  0.80889  0.48128  1.0000
  H   H3        1.0  0.18374  0.30890  0.98140  1.0000
  H   H4        1.0  0.47342  0.19111  0.51872  1.0000
  H   H5        1.0  0.43467  0.88860  0.20295  1.0000
  H   H6        1.0  0.52640  0.61147  0.29698  1.0000
  H   H7        1.0  0.56532  0.11140  0.79705  1.0000
  H   H8        1.0  0.47360  0.38853  0.70302  1.0000
  H   H9        1.0  0.45577  0.84562  0.89842  1.0000
  H   H10       1.0  0.20023  0.65467  0.60151  1.0000
  H   H11       1.0  0.54423  0.15438  0.10158  1.0000
  H   H12       1.0  0.79976  0.34534  0.39849  1.0000
  H   H13       1.0  0.31388  0.92649  0.06891  1.0000
  H   H14       1.0  0.30949  0.57369  0.43108  1.0000
  H   H15       1.0  0.68612  0.07351  0.93109  1.0000
  H   H16       1.0  0.69051  0.42631  0.56892  1.0000
  H   H17       1.0  0.71889  0.52379  0.96617  1.0000
  H   H18       1.0  0.20901  0.97629  0.53379  1.0000
  H   H19       1.0  0.28111  0.47621  0.03383  1.0000
  H   H20       1.0  0.79099  0.02371  0.46621  1.0000
  H   H21       1.0  0.73694  0.17398  0.12559  1.0000
  H   H22       1.0  0.03636  0.32611  0.37455  1.0000
  H   H23       1.0  0.26306  0.82602  0.87441  1.0000
  H   H24       1.0  0.96363  0.67389  0.62545  1.0000
  H   H25       1.0  0.64256  0.73071  0.73186  1.0000
  H   H26       1.0  0.10589  0.76914  0.76802  1.0000
  H   H27       1.0  0.35744  0.26929  0.26814  1.0000
  H   H28       1.0  0.89411  0.23086  0.23199  1.0000
  H   H29       1.0  0.93026  0.37119  0.81910  1.0000
  H   H30       1.0  0.12052  0.12897  0.68107  1.0000
  H   H31       1.0  0.06974  0.62881  0.18090  1.0000
  H   H32       1.0  0.87948  0.87103  0.31893  1.0000
  H   H33       1.0  0.77896  0.78161  0.78203  1.0000
  H   H34       1.0  0.34333  0.71858  0.71781  1.0000
  H   H35       1.0  0.22105  0.21839  0.21797  1.0000
  H   H36       1.0  0.65667  0.28142  0.28219  1.0000
  H   H37       1.0  0.83573  0.63800  0.86217  1.0000
  H   H38       1.0  0.33625  0.86232  0.63773  1.0000
  H   H39       1.0  0.16427  0.36200  0.13783  1.0000
  H   H40       1.0  0.66375  0.13768  0.36227  1.0000
  H   H41       1.0  0.62255  0.36617  0.92204  1.0000
  H   H42       1.0  0.91091  0.13370  0.57817  1.0000
  H   H43       1.0  0.37745  0.63383  0.07796  1.0000
  H   H44       1.0  0.08909  0.86630  0.42183  1.0000
  H   H45       1.0  0.60261  0.37573  0.05468  1.0000
  H   H46       1.0  0.03296  0.12426  0.44540  1.0000
  H   H47       1.0  0.39739  0.62427  0.94531  1.0000
  H   H48       1.0  0.96704  0.87574  0.55460  1.0000
  H   H49       1.0  0.97900  0.02684  0.12510  1.0000
  H   H50       1.0  0.13080  0.47329  0.37496  1.0000
  H   H51       1.0  0.02100  0.97316  0.87490  1.0000
  H   H52       1.0  0.86920  0.52671  0.62504  1.0000
  H   H53       1.0  0.18484  0.05961  0.96666  1.0000
  H   H54       1.0  0.21118  0.44050  0.53340  1.0000
  H   H55       1.0  0.81516  0.94039  0.03334  1.0000
  H   H56       1.0  0.78882  0.55950  0.46660  1.0000
  C   C1        1.0  0.70513  0.74357  0.02630  1.0000
  C   C2        1.0  0.47547  0.75654  0.47358  1.0000
  C   C3        1.0  0.29487  0.25643  0.97370  1.0000
  C   C4        1.0  0.52454  0.24346  0.52642  1.0000
  C   C5        1.0  0.64742  0.76099  0.94569  1.0000
  C   C6        1.0  0.35457  0.73923  0.55418  1.0000
  C   C7        1.0  0.35258  0.23901  0.05431  1.0000
  C   C8        1.0  0.64543  0.26077  0.44582  1.0000
  C   C9        1.0  0.49223  0.85344  0.12925  1.0000
  C   C10       1.0  0.47518  0.64666  0.37067  1.0000
  C   C11       1.0  0.50777  0.14655  0.87075  1.0000
  C   C12       1.0  0.52482  0.35334  0.62933  1.0000
  C   C13       1.0  0.50445  0.82841  0.96020  1.0000
  C   C14       1.0  0.29346  0.67182  0.53970  1.0000
  C   C15       1.0  0.49555  0.17159  0.03980  1.0000
  C   C16       1.0  0.70654  0.32818  0.46030  1.0000
  C   C17       1.0  0.86037  0.49011  0.18538  1.0000
  C   C18       1.0  0.53598  0.00982  0.31459  1.0000
  C   C19       1.0  0.13963  0.50990  0.81463  1.0000
  C   C20       1.0  0.46401  0.99019  0.68541  1.0000
  C   C21       1.0  0.42576  0.87440  0.05350  1.0000
  C   C22       1.0  0.35396  0.62574  0.44646  1.0000
  C   C23       1.0  0.57425  0.12560  0.94650  1.0000
  C   C24       1.0  0.64604  0.37426  0.55354  1.0000
  C   C25       1.0  0.82877  0.18517  0.05759  1.0000
  C   C26       1.0  0.07144  0.31492  0.44252  1.0000
  C   C27       1.0  0.17123  0.81483  0.94241  1.0000
  C   C28       1.0  0.92855  0.68509  0.55748  1.0000
  C   C29       1.0  0.64862  0.56935  0.83342  1.0000
  C   C30       1.0  0.05183  0.93052  0.66657  1.0000
  C   C31       1.0  0.35138  0.43065  0.16658  1.0000
  C   C32       1.0  0.94817  0.06948  0.33343  1.0000
  C   C33       1.0  0.93484  0.29459  0.88733  1.0000
  C   C34       1.0  0.11676  0.20552  0.61278  1.0000
  C   C35       1.0  0.06516  0.70541  0.11267  1.0000
  C   C36       1.0  0.88325  0.79448  0.38722  1.0000
  C   C37       1.0  0.81331  0.28404  0.97105  1.0000
  C   C38       1.0  0.06837  0.21603  0.52905  1.0000
  C   C39       1.0  0.18669  0.71596  0.02895  1.0000
  C   C40       1.0  0.93163  0.78396  0.47095  1.0000
  C   C41       1.0  0.74102  0.71131  0.84510  1.0000
  C   C42       1.0  0.29798  0.78888  0.65479  1.0000
  C   C43       1.0  0.25898  0.28869  0.15490  1.0000
  C   C44       1.0  0.70202  0.21112  0.34521  1.0000
  C   C45       1.0  0.67202  0.37900  0.97068  1.0000
  C   C46       1.0  0.02176  0.12098  0.52941  1.0000
  C   C47       1.0  0.32798  0.62100  0.02932  1.0000
  C   C48       1.0  0.97824  0.87901  0.47059  1.0000
  C   C49       1.0  0.96250  0.10290  0.05783  1.0000
  C   C50       1.0  0.12319  0.39721  0.44223  1.0000
  C   C51       1.0  0.03750  0.89710  0.94217  1.0000
  C   C52       1.0  0.87681  0.60279  0.55776  1.0000
  C   C53       1.0  0.07768  0.12094  0.97093  1.0000
  C   C54       1.0  0.16955  0.37918  0.52915  1.0000
  C   C55       1.0  0.92232  0.87906  0.02907  1.0000
  C   C56       1.0  0.83044  0.62083  0.47085  1.0000
  S   S1        1.0  0.87695  0.41388  0.10504  1.0000
  S   S2        1.0  0.39591  0.08598  0.39489  1.0000
  S   S3        1.0  0.12306  0.58612  0.89496  1.0000
  S   S4        1.0  0.60408  0.91402  0.60511  1.0000
  S   S5        1.0  0.57806  0.53463  0.76462  1.0000
  S   S6        1.0  0.87783  0.96502  0.73543  1.0000
  S   S7        1.0  0.42194  0.46538  0.23537  1.0000
  S   S8        1.0  0.12217  0.03497  0.26457  1.0000
  N   N1        1.0  0.84911  0.54527  0.24459  1.0000
  N   N2        1.0  0.63918  0.95475  0.25539  1.0000
  N   N3        1.0  0.15090  0.45472  0.75540  1.0000
  N   N4        1.0  0.36081  0.04525  0.74461  1.0000
  N   N5        1.0  0.62968  0.78906  0.11564  1.0000
  N   N6        1.0  0.53471  0.71102  0.38427  1.0000
  N   N7        1.0  0.37032  0.21094  0.88436  1.0000
  N   N8        1.0  0.46529  0.28898  0.61573  1.0000
  N   N9        1.0  0.68280  0.49673  0.92461  1.0000
  N   N10       1.0  0.10437  0.00329  0.57544  1.0000
  N   N11       1.0  0.31720  0.50327  0.07539  1.0000
  N   N12       1.0  0.89563  0.99671  0.42456  1.0000
  N   N13       1.0  0.06369  0.21481  0.88720  1.0000
  N   N14       1.0  0.16563  0.28534  0.61290  1.0000
  N   N15       1.0  0.93631  0.78519  0.11280  1.0000
  N   N16       1.0  0.83437  0.71466  0.38710  1.0000
  N   N17       1.0  0.67176  0.67424  0.79918  1.0000
  N   N18       1.0  0.14579  0.82573  0.70074  1.0000
  N   N19       1.0  0.32824  0.32576  0.20082  1.0000
  N   N20       1.0  0.85422  0.17427  0.29926  1.0000
