data_image0
_chemical_formula_structural       Ag4H24C20N12O12
_chemical_formula_sum              "Ag4 H24 C20 N12 O12"
_cell_length_a       7.433
_cell_length_b       10.38
_cell_length_c       10.9594
_cell_angle_alpha    69.5735
_cell_angle_beta     71.338
_cell_angle_gamma    89.5997

_space_group_name_H-M_alt    "P 1"
_space_group_IT_number       1

loop_
  _space_group_symop_operation_xyz
  'x, y, z'

loop_
  _atom_site_type_symbol
  _atom_site_label
  _atom_site_symmetry_multiplicity
  _atom_site_fract_x
  _atom_site_fract_y
  _atom_site_fract_z
  _atom_site_occupancy
  Ag  Ag1       1.0  0.61740  0.53750  0.01032  1.0000
  Ag  Ag2       1.0  0.45273  0.56026  0.56759  1.0000
  Ag  Ag3       1.0  0.05378  0.06134  0.08429  1.0000
  Ag  Ag4       1.0  0.15607  0.54351  0.05014  1.0000
  H   H1        1.0  0.46299  0.76986  0.09165  1.0000
  H   H2        1.0  0.42872  0.11194  0.74113  1.0000
  H   H3        1.0  0.52829  0.95981  0.59994  1.0000
  H   H4        1.0  0.60357  0.72196  0.71159  1.0000
  H   H5        1.0  0.68567  0.58714  0.24608  1.0000
  H   H6        1.0  0.77257  0.20893  0.53708  1.0000
  H   H7        1.0  0.75014  0.09061  0.37617  1.0000
  H   H8        1.0  0.69117  0.22845  0.15805  1.0000
  H   H9        1.0  0.94815  0.77865  0.09469  1.0000
  H   H10       1.0  0.91314  0.06318  0.71083  1.0000
  H   H11       1.0  0.05345  0.89114  0.60138  1.0000
  H   H12       1.0  0.13986  0.67222  0.74618  1.0000
  H   H13       1.0  0.17342  0.59834  0.29262  1.0000
  H   H14       1.0  0.22032  0.22264  0.60637  1.0000
  H   H15       1.0  0.26547  0.10586  0.43331  1.0000
  H   H16       1.0  0.25053  0.24256  0.19899  1.0000
  H   H17       1.0  0.41266  0.98821  0.10352  1.0000
  H   H18       1.0  0.44312  0.13094  0.96540  1.0000
  H   H19       1.0  0.82333  0.57769  0.43052  1.0000
  H   H20       1.0  0.78317  0.42653  0.56845  1.0000
  H   H21       1.0  0.72841  0.97923  0.07117  1.0000
  H   H22       1.0  0.80840  0.11035  0.91661  1.0000
  H   H23       1.0  0.10067  0.58090  0.52427  1.0000
  H   H24       1.0  0.08272  0.43115  0.65341  1.0000
  C   C1        1.0  0.47605  0.81524  0.98268  1.0000
  C   C2        1.0  0.43882  0.95205  0.92767  1.0000
  C   C3        1.0  0.45798  0.00610  0.78683  1.0000
  C   C4        1.0  0.51459  0.92282  0.70887  1.0000
  C   C5        1.0  0.55407  0.78865  0.77041  1.0000
  C   C6        1.0  0.70377  0.47739  0.27668  1.0000
  C   C7        1.0  0.73262  0.40802  0.40275  1.0000
  C   C8        1.0  0.74856  0.26603  0.44033  1.0000
  C   C9        1.0  0.73594  0.20049  0.35162  1.0000
  C   C10       1.0  0.70600  0.27653  0.22855  1.0000
  C   C11       1.0  0.96791  0.80573  0.98539  1.0000
  C   C12       1.0  0.91773  0.93216  0.91199  1.0000
  C   C13       1.0  0.95158  0.96577  0.77064  1.0000
  C   C14       1.0  0.03061  0.87184  0.70978  1.0000
  C   C15       1.0  0.07671  0.74804  0.78982  1.0000
  C   C16       1.0  0.19250  0.48888  0.32776  1.0000
  C   C17       1.0  0.19002  0.41955  0.46320  1.0000
  C   C18       1.0  0.21788  0.27884  0.50244  1.0000
  C   C19       1.0  0.24178  0.21441  0.40726  1.0000
  C   C20       1.0  0.23599  0.28950  0.27572  1.0000
  N   N1        1.0  0.53383  0.73609  0.90571  1.0000
  N   N2        1.0  0.38215  0.02955  0.01335  1.0000
  N   N3        1.0  0.72683  0.35066  0.83921  1.0000
  N   N4        1.0  0.69013  0.41316  0.19200  1.0000
  N   N5        1.0  0.74119  0.48276  0.48682  1.0000
  N   N6        1.0  0.50292  0.84183  0.33671  1.0000
  N   N7        1.0  0.23413  0.36096  0.87272  1.0000
  N   N8        1.0  0.04667  0.71615  0.92569  1.0000
  N   N9        1.0  0.84304  0.02311  0.98112  1.0000
  N   N10       1.0  0.98135  0.82099  0.37241  1.0000
  N   N11       1.0  0.21233  0.42496  0.23727  1.0000
  N   N12       1.0  0.16197  0.49103  0.55392  1.0000
  O   O1        1.0  0.81102  0.47050  0.80162  1.0000
  O   O2        1.0  0.59032  0.29985  0.95358  1.0000
  O   O3        1.0  0.78047  0.27935  0.76227  1.0000
  O   O4        1.0  0.49770  0.81914  0.45945  1.0000
  O   O5        1.0  0.53635  0.96557  0.24936  1.0000
  O   O6        1.0  0.47536  0.74201  0.30097  1.0000
  O   O7        1.0  0.31531  0.48546  0.81993  1.0000
  O   O8        1.0  0.12866  0.31488  0.00014  1.0000
  O   O9        1.0  0.25696  0.28626  0.80149  1.0000
  O   O10       1.0  0.01725  0.95225  0.32710  1.0000
  O   O11       1.0  0.94465  0.76187  0.29745  1.0000
  O   O12       1.0  0.98193  0.74948  0.49197  1.0000
