data_image0
_chemical_formula_structural       Ag4H24C32N12O12
_chemical_formula_sum              "Ag4 H24 C32 N12 O12"
_cell_length_a       7.19568
_cell_length_b       9.43729
_cell_length_c       12.8757
_cell_angle_alpha    89.9999
_cell_angle_beta     89.9989
_cell_angle_gamma    89.9995

_space_group_name_H-M_alt    "P 1"
_space_group_IT_number       1

loop_
  _space_group_symop_operation_xyz
  'x, y, z'

loop_
  _atom_site_type_symbol
  _atom_site_label
  _atom_site_symmetry_multiplicity
  _atom_site_fract_x
  _atom_site_fract_y
  _atom_site_fract_z
  _atom_site_occupancy
  Ag  Ag1       1.0  0.99881  0.94406  0.66188  1.0000
  Ag  Ag2       1.0  0.50118  0.05594  0.16188  1.0000
  Ag  Ag3       1.0  0.49882  0.55594  0.33813  1.0000
  Ag  Ag4       1.0  0.00119  0.44406  0.83812  1.0000
  H   H1        1.0  0.15176  0.68411  0.61742  1.0000
  H   H2        1.0  0.34824  0.31589  0.11742  1.0000
  H   H3        1.0  0.65176  0.81589  0.38258  1.0000
  H   H4        1.0  0.84824  0.18412  0.88258  1.0000
  H   H5        1.0  0.32485  0.15440  0.65001  1.0000
  H   H6        1.0  0.17515  0.84560  0.15001  1.0000
  H   H7        1.0  0.82485  0.34560  0.34999  1.0000
  H   H8        1.0  0.67515  0.65440  0.84999  1.0000
  H   H9        1.0  0.32400  0.46119  0.58399  1.0000
  H   H10       1.0  0.17601  0.53881  0.08399  1.0000
  H   H11       1.0  0.82399  0.03881  0.41600  1.0000
  H   H12       1.0  0.67600  0.96119  0.91601  1.0000
  H   H13       1.0  0.67396  0.15435  0.64753  1.0000
  H   H14       1.0  0.82604  0.84564  0.14753  1.0000
  H   H15       1.0  0.17396  0.34565  0.35246  1.0000
  H   H16       1.0  0.32604  0.65435  0.85246  1.0000
  H   H17       1.0  0.67118  0.46099  0.58130  1.0000
  H   H18       1.0  0.82882  0.53900  0.08130  1.0000
  H   H19       1.0  0.17118  0.03901  0.41870  1.0000
  H   H20       1.0  0.32882  0.96100  0.91871  1.0000
  H   H21       1.0  0.84544  0.68357  0.61260  1.0000
  H   H22       1.0  0.65456  0.31643  0.11260  1.0000
  H   H23       1.0  0.34543  0.81643  0.38740  1.0000
  H   H24       1.0  0.15457  0.18357  0.88740  1.0000
  C   C1        1.0  0.59859  0.81181  0.62698  1.0000
  C   C2        1.0  0.90141  0.18818  0.12699  1.0000
  C   C3        1.0  0.09859  0.68818  0.37301  1.0000
  C   C4        1.0  0.40141  0.31182  0.87301  1.0000
  C   C5        1.0  0.39941  0.81192  0.62812  1.0000
  C   C6        1.0  0.10059  0.18808  0.12812  1.0000
  C   C7        1.0  0.89941  0.68809  0.37188  1.0000
  C   C8        1.0  0.60059  0.31192  0.87188  1.0000
  C   C9        1.0  0.30306  0.68288  0.61503  1.0000
  C   C10       1.0  0.19694  0.31712  0.11503  1.0000
  C   C11       1.0  0.80305  0.81711  0.38497  1.0000
  C   C12       1.0  0.69694  0.18289  0.88497  1.0000
  C   C13       1.0  0.40116  0.05531  0.64384  1.0000
  C   C14       1.0  0.09884  0.94469  0.14385  1.0000
  C   C15       1.0  0.90116  0.44470  0.35616  1.0000
  C   C16       1.0  0.59884  0.55530  0.85616  1.0000
  C   C17       1.0  0.39982  0.55913  0.59753  1.0000
  C   C18       1.0  0.10018  0.44086  0.09753  1.0000
  C   C19       1.0  0.89982  0.94087  0.40247  1.0000
  C   C20       1.0  0.60017  0.05913  0.90247  1.0000
  C   C21       1.0  0.59753  0.05519  0.64269  1.0000
  C   C22       1.0  0.90247  0.94480  0.14269  1.0000
  C   C23       1.0  0.09753  0.44480  0.35731  1.0000
  C   C24       1.0  0.40247  0.55521  0.85731  1.0000
  C   C25       1.0  0.59623  0.55903  0.59605  1.0000
  C   C26       1.0  0.90377  0.44097  0.09605  1.0000
  C   C27       1.0  0.09623  0.94096  0.40394  1.0000
  C   C28       1.0  0.40377  0.05904  0.90395  1.0000
  C   C29       1.0  0.69407  0.68267  0.61243  1.0000
  C   C30       1.0  0.80593  0.31733  0.11243  1.0000
  C   C31       1.0  0.19407  0.81734  0.38757  1.0000
  C   C32       1.0  0.30593  0.18266  0.88757  1.0000
  N   N1        1.0  0.99608  0.29340  0.61763  1.0000
  N   N2        1.0  0.50392  0.70660  0.11764  1.0000
  N   N3        1.0  0.49608  0.20660  0.38237  1.0000
  N   N4        1.0  0.00391  0.79340  0.88237  1.0000
  N   N5        1.0  0.30334  0.93670  0.63917  1.0000
  N   N6        1.0  0.19666  0.06330  0.13918  1.0000
  N   N7        1.0  0.80334  0.56329  0.36083  1.0000
  N   N8        1.0  0.69667  0.43671  0.86083  1.0000
  N   N9        1.0  0.69517  0.93657  0.63707  1.0000
  N   N10       1.0  0.80483  0.06343  0.13707  1.0000
  N   N11       1.0  0.19517  0.56344  0.36293  1.0000
  N   N12       1.0  0.30483  0.43656  0.86293  1.0000
  O   O1        1.0  0.00518  0.21733  0.70037  1.0000
  O   O2        1.0  0.49482  0.78267  0.20037  1.0000
  O   O3        1.0  0.50518  0.28267  0.29963  1.0000
  O   O4        1.0  0.99482  0.71733  0.79963  1.0000
  O   O5        1.0  0.98572  0.23444  0.53019  1.0000
  O   O6        1.0  0.51427  0.76556  0.03019  1.0000
  O   O7        1.0  0.48572  0.26556  0.46981  1.0000
  O   O8        1.0  0.01427  0.73444  0.96981  1.0000
  O   O9        1.0  0.99731  0.42729  0.62650  1.0000
  O   O10       1.0  0.50269  0.57272  0.12650  1.0000
  O   O11       1.0  0.49731  0.07271  0.37351  1.0000
  O   O12       1.0  0.00269  0.92729  0.87350  1.0000
