data_image0
_chemical_formula_structural       Cu6H24C14I2N22
_chemical_formula_sum              "Cu6 H24 C14 I2 N22"
_cell_length_a       7.57339
_cell_length_b       10.3374
_cell_length_c       11.0066
_cell_angle_alpha    71.2869
_cell_angle_beta     69.8737
_cell_angle_gamma    68.5141

_space_group_name_H-M_alt    "P 1"
_space_group_IT_number       1

loop_
  _space_group_symop_operation_xyz
  'x, y, z'

loop_
  _atom_site_type_symbol
  _atom_site_label
  _atom_site_symmetry_multiplicity
  _atom_site_fract_x
  _atom_site_fract_y
  _atom_site_fract_z
  _atom_site_occupancy
  Cu  Cu1       1.0  0.65698  0.38852  0.39667  1.0000
  Cu  Cu2       1.0  0.44234  0.61145  0.60337  1.0000
  Cu  Cu3       1.0  0.68636  0.10528  0.10448  1.0000
  Cu  Cu4       1.0  0.89619  0.89472  0.89545  1.0000
  Cu  Cu5       1.0  0.15970  0.24526  0.76270  1.0000
  Cu  Cu6       1.0  0.16771  0.75474  0.23728  1.0000
  H   H1        1.0  0.29572  0.03813  0.63797  1.0000
  H   H2        1.0  0.97192  0.96187  0.36201  1.0000
  H   H3        1.0  0.40109  0.16795  0.55613  1.0000
  H   H4        1.0  0.12527  0.83210  0.44382  1.0000
  H   H5        1.0  0.58946  0.66951  0.75690  1.0000
  H   H6        1.0  0.01582  0.33050  0.24331  1.0000
  H   H7        1.0  0.70751  0.66678  0.87389  1.0000
  H   H8        1.0  0.24818  0.33312  0.12626  1.0000
  H   H9        1.0  0.84547  0.65320  0.70694  1.0000
  H   H10       1.0  0.20563  0.34689  0.29315  1.0000
  H   H11       1.0  0.50134  0.92105  0.76742  1.0000
  H   H12       1.0  0.18997  0.07890  0.23242  1.0000
  H   H13       1.0  0.65374  0.43148  0.91860  1.0000
  H   H14       1.0  0.00390  0.56845  0.08140  1.0000
  H   H15       1.0  0.84806  0.92659  0.63930  1.0000
  H   H16       1.0  0.41394  0.07357  0.36056  1.0000
  H   H17       1.0  0.71213  0.91487  0.54042  1.0000
  H   H18       1.0  0.16737  0.08528  0.45941  1.0000
  H   H19       1.0  0.75050  0.08174  0.52501  1.0000
  H   H20       1.0  0.35720  0.91842  0.47491  1.0000
  H   H21       1.0  0.93834  0.34380  0.96902  1.0000
  H   H22       1.0  0.25117  0.65624  0.03099  1.0000
  H   H23       1.0  0.02679  0.47152  0.85530  1.0000
  H   H24       1.0  0.35366  0.52848  0.14466  1.0000
  C   C1        1.0  0.67493  0.28127  0.28420  1.0000
  C   C2        1.0  0.24063  0.71884  0.71578  1.0000
  C   C3        1.0  0.54169  0.10102  0.78946  1.0000
  C   C4        1.0  0.43231  0.89893  0.21052  1.0000
  C   C5        1.0  0.78419  0.39625  0.72457  1.0000
  C   C6        1.0  0.90502  0.60372  0.27548  1.0000
  C   C7        1.0  0.72555  0.62352  0.78997  1.0000
  C   C8        1.0  0.13906  0.37646  0.21014  1.0000
  C   C9        1.0  0.53421  0.01976  0.70160  1.0000
  C   C10       1.0  0.25563  0.98026  0.29831  1.0000
  C   C11       1.0  0.77044  0.46166  0.83230  1.0000
  C   C12       1.0  0.06446  0.53830  0.16772  1.0000
  C   C13       1.0  0.72355  0.98316  0.59430  1.0000
  C   C14       1.0  0.30100  0.01697  0.40558  1.0000
  I   I1        1.0  0.07833  1.00000  0.00001  1.0000
  I   I2        1.0  0.26363  0.49993  0.50017  1.0000
  N   N1        1.0  0.74469  0.33726  0.56817  1.0000
  N   N2        1.0  0.65019  0.66267  0.43187  1.0000
  N   N3        1.0  0.59919  0.16876  0.93297  1.0000
  N   N4        1.0  0.70111  0.83112  0.06707  1.0000
  N   N5        1.0  0.38912  0.21169  0.82525  1.0000
  N   N6        1.0  0.42619  0.78825  0.17475  1.0000
  N   N7        1.0  0.91420  0.25238  0.59022  1.0000
  N   N8        1.0  0.75688  0.74753  0.40985  1.0000
  N   N9        1.0  0.42654  0.25278  0.91532  1.0000
  N   N10       1.0  0.59480  0.74712  0.08471  1.0000
  N   N11       1.0  0.94019  0.28787  0.68831  1.0000
  N   N12       1.0  0.91644  0.71208  0.31173  1.0000
  N   N13       1.0  0.67074  0.21806  0.21320  1.0000
  N   N14       1.0  0.10222  0.78207  0.78673  1.0000
  N   N15       1.0  0.36064  0.10396  0.64762  1.0000
  N   N16       1.0  0.11230  0.89605  0.35234  1.0000
  N   N17       1.0  0.96059  0.39509  0.87098  1.0000
  N   N18       1.0  0.22670  0.60490  0.12903  1.0000
  N   N19       1.0  0.67618  0.07245  0.85402  1.0000
  N   N20       1.0  0.60279  0.92747  0.14600  1.0000
  N   N21       1.0  0.65903  0.42927  0.65124  1.0000
  N   N22       1.0  0.73959  0.57071  0.34876  1.0000
