data_image0
_chemical_formula_structural       ZnH32C36N14O6
_chemical_formula_sum              "Zn1 H32 C36 N14 O6"
_cell_length_a       7.2113
_cell_length_b       8.75324
_cell_length_c       15.7681
_cell_angle_alpha    81.5663
_cell_angle_beta     77.7684
_cell_angle_gamma    69.0368

_space_group_name_H-M_alt    "P 1"
_space_group_IT_number       1

loop_
  _space_group_symop_operation_xyz
  'x, y, z'

loop_
  _atom_site_type_symbol
  _atom_site_label
  _atom_site_symmetry_multiplicity
  _atom_site_fract_x
  _atom_site_fract_y
  _atom_site_fract_z
  _atom_site_occupancy
  Zn  Zn1       1.0  0.50000  0.00000  0.00000  1.0000
  H   H1        1.0  0.90422  0.95546  0.08412  1.0000
  H   H2        1.0  0.09578  0.04455  0.91588  1.0000
  H   H3        1.0  0.67435  0.58792  0.05843  1.0000
  H   H4        1.0  0.32565  0.41208  0.94157  1.0000
  H   H5        1.0  0.48320  0.83124  0.20867  1.0000
  H   H6        1.0  0.51679  0.16875  0.79133  1.0000
  H   H7        1.0  0.10696  0.28556  0.11203  1.0000
  H   H8        1.0  0.89304  0.71444  0.88797  1.0000
  H   H9        1.0  0.18059  0.78511  0.16493  1.0000
  H   H10       1.0  0.81941  0.21489  0.83507  1.0000
  H   H11       1.0  0.27766  0.57469  0.14573  1.0000
  H   H12       1.0  0.72234  0.42531  0.85427  1.0000
  H   H13       1.0  0.87150  0.37202  0.24794  1.0000
  H   H14       1.0  0.12850  0.62798  0.75206  1.0000
  H   H15       1.0  0.02058  0.33074  0.33052  1.0000
  H   H16       1.0  0.97942  0.66926  0.66949  1.0000
  H   H17       1.0  0.77890  0.76530  0.29038  1.0000
  H   H18       1.0  0.22110  0.23470  0.70962  1.0000
  H   H19       1.0  0.40559  0.47069  0.27818  1.0000
  H   H20       1.0  0.59441  0.52932  0.72182  1.0000
  H   H21       1.0  0.67102  0.16538  0.25399  1.0000
  H   H22       1.0  0.32898  0.83463  0.74601  1.0000
  H   H23       1.0  0.92344  0.21307  0.46871  1.0000
  H   H24       1.0  0.07656  0.78693  0.53129  1.0000
  H   H25       1.0  0.71168  0.68066  0.44422  1.0000
  H   H26       1.0  0.28832  0.31934  0.55577  1.0000
  H   H27       1.0  0.34308  0.39106  0.43326  1.0000
  H   H28       1.0  0.65692  0.60894  0.56674  1.0000
  H   H29       1.0  0.45072  0.03507  0.35465  1.0000
  H   H30       1.0  0.54928  0.96493  0.64536  1.0000
  H   H31       1.0  0.71340  0.07698  0.56912  1.0000
  H   H32       1.0  0.28661  0.92303  0.43088  1.0000
  C   C1        1.0  0.87688  0.83993  0.08886  1.0000
  C   C2        1.0  0.12311  0.16007  0.91114  1.0000
  C   C3        1.0  0.76336  0.65044  0.07723  1.0000
  C   C4        1.0  0.23664  0.34956  0.92277  1.0000
  C   C5        1.0  0.36536  0.94976  0.20440  1.0000
  C   C6        1.0  0.63464  0.05023  0.79560  1.0000
  C   C7        1.0  0.17752  0.17811  0.15273  1.0000
  C   C8        1.0  0.82248  0.82189  0.84727  1.0000
  C   C9        1.0  0.14527  0.67102  0.17652  1.0000
  C   C10       1.0  0.85472  0.32898  0.82348  1.0000
  C   C11       1.0  0.95076  0.27593  0.29355  1.0000
  C   C12       1.0  0.04924  0.72407  0.70645  1.0000
  C   C13       1.0  0.09735  0.62406  0.27238  1.0000
  C   C14       1.0  0.90265  0.37594  0.72762  1.0000
  C   C15       1.0  0.81408  0.19696  0.35427  1.0000
  C   C16       1.0  0.18592  0.80304  0.64573  1.0000
  C   C17       1.0  0.90356  0.68191  0.32121  1.0000
  C   C18       1.0  0.09643  0.31809  0.67879  1.0000
  C   C19       1.0  0.25338  0.51972  0.31505  1.0000
  C   C20       1.0  0.74662  0.48028  0.68495  1.0000
  C   C21       1.0  0.67941  0.14554  0.32336  1.0000
  C   C22       1.0  0.32059  0.85447  0.67664  1.0000
  C   C23       1.0  0.82040  0.17277  0.44340  1.0000
  C   C24       1.0  0.17960  0.82723  0.55660  1.0000
  C   C25       1.0  0.86572  0.63374  0.40942  1.0000
  C   C26       1.0  0.13428  0.36626  0.59058  1.0000
  C   C27       1.0  0.21635  0.47358  0.40365  1.0000
  C   C28       1.0  0.78364  0.52642  0.59635  1.0000
  C   C29       1.0  0.55658  0.07046  0.38050  1.0000
  C   C30       1.0  0.44342  0.92954  0.61950  1.0000
  C   C31       1.0  0.69895  0.09589  0.50058  1.0000
  C   C32       1.0  0.30105  0.90411  0.49942  1.0000
  C   C33       1.0  0.02072  0.52720  0.45314  1.0000
  C   C34       1.0  0.97928  0.47280  0.54686  1.0000
  C   C35       1.0  0.56471  0.04172  0.47018  1.0000
  C   C36       1.0  0.43529  0.95828  0.52982  1.0000
  N   N1        1.0  0.73739  0.81289  0.05476  1.0000
  N   N2        1.0  0.26261  0.18711  0.94524  1.0000
  N   N3        1.0  0.33775  0.04665  0.12868  1.0000
  N   N4        1.0  0.66224  0.95335  0.87132  1.0000
  N   N5        1.0  0.36565  0.73685  0.94022  1.0000
  N   N6        1.0  0.63435  0.26315  0.05978  1.0000
  N   N7        1.0  0.98009  0.69966  0.13006  1.0000
  N   N8        1.0  0.01991  0.30034  0.86994  1.0000
  N   N9        1.0  0.91030  0.57697  0.12329  1.0000
  N   N10       1.0  0.08971  0.42303  0.87671  1.0000
  N   N11       1.0  0.23220  0.01336  0.27312  1.0000
  N   N12       1.0  0.76780  0.98663  0.72688  1.0000
  N   N13       1.0  0.11402  0.15865  0.23866  1.0000
  N   N14       1.0  0.88598  0.84135  0.76134  1.0000
  O   O1        1.0  0.32943  0.83283  0.00141  1.0000
  O   O2        1.0  0.67057  0.16717  0.99859  1.0000
  O   O3        1.0  0.53785  0.63183  0.92258  1.0000
  O   O4        1.0  0.46216  0.36817  0.07742  1.0000
  O   O5        1.0  0.22538  0.75177  0.90034  1.0000
  O   O6        1.0  0.77463  0.24823  0.09966  1.0000
