data_image0
_chemical_formula_structural       Cu4H4C4N6Cl4
_chemical_formula_sum              "Cu4 H4 C4 N6 Cl4"
_cell_length_a       6.86187
_cell_length_b       6.91583
_cell_length_c       7.70684
_cell_angle_alpha    114.322
_cell_angle_beta     114.173
_cell_angle_gamma    94.6899

_space_group_name_H-M_alt    "P 1"
_space_group_IT_number       1

loop_
  _space_group_symop_operation_xyz
  'x, y, z'

loop_
  _atom_site_type_symbol
  _atom_site_label
  _atom_site_symmetry_multiplicity
  _atom_site_fract_x
  _atom_site_fract_y
  _atom_site_fract_z
  _atom_site_occupancy
  Cu  Cu1       1.0  0.21424  0.46356  0.42725  1.0000
  Cu  Cu2       1.0  0.78576  0.53643  0.57274  1.0000
  Cu  Cu3       1.0  1.00000  0.00000  0.50001  1.0000
  Cu  Cu4       1.0  0.49998  1.00000  0.49998  1.0000
  H   H1        1.0  0.70906  0.27565  0.02754  1.0000
  H   H2        1.0  0.31968  0.25126  0.02774  1.0000
  H   H3        1.0  0.29090  0.72439  0.97248  1.0000
  H   H4        1.0  0.68025  0.74870  0.97224  1.0000
  C   C1        1.0  0.83281  0.24351  0.97509  1.0000
  C   C2        1.0  0.14339  0.23105  0.97516  1.0000
  C   C3        1.0  0.16720  0.75651  0.02493  1.0000
  C   C4        1.0  0.85660  0.76893  0.02481  1.0000
  N   N1        1.0  0.78470  0.13698  0.76739  1.0000
  N   N2        1.0  0.98349  0.13013  0.76744  1.0000
  N   N3        1.0  0.21535  0.86304  0.23261  1.0000
  N   N4        1.0  0.01656  0.86986  0.23256  1.0000
  N   N5        1.0  0.05628  0.30525  0.11126  1.0000
  N   N6        1.0  0.94376  0.69474  0.88873  1.0000
  Cl  Cl1       1.0  0.26517  0.81655  0.64929  1.0000
  Cl  Cl2       1.0  0.38444  0.33217  0.64951  1.0000
  Cl  Cl3       1.0  0.61555  0.66783  0.35050  1.0000
  Cl  Cl4       1.0  0.73483  0.18347  0.35072  1.0000
