data_image0
_chemical_formula_structural       Cu8H8C8N12Cl8
_chemical_formula_sum              "Cu8 H8 C8 N12 Cl8"
_cell_length_a       6.82721
_cell_length_b       7.01361
_cell_length_c       12.1114
_cell_angle_alpha    90.0013
_cell_angle_beta     90.0014
_cell_angle_gamma    89.9989

_space_group_name_H-M_alt    "P 1"
_space_group_IT_number       1

loop_
  _space_group_symop_operation_xyz
  'x, y, z'

loop_
  _atom_site_type_symbol
  _atom_site_label
  _atom_site_symmetry_multiplicity
  _atom_site_fract_x
  _atom_site_fract_y
  _atom_site_fract_z
  _atom_site_occupancy
  Cu  Cu1       1.0  1.00000  1.00000  0.50000  1.0000
  Cu  Cu2       1.0  0.50001  0.00000  0.50000  1.0000
  Cu  Cu3       1.0  0.50000  0.50000  0.99999  1.0000
  Cu  Cu4       1.0  0.99999  0.50000  0.99999  1.0000
  Cu  Cu5       1.0  0.24998  0.50002  0.53068  1.0000
  Cu  Cu6       1.0  0.25000  0.99999  0.96932  1.0000
  Cu  Cu7       1.0  0.75002  0.49998  0.46936  1.0000
  Cu  Cu8       1.0  0.75000  0.00002  0.03066  1.0000
  H   H1        1.0  0.94282  0.02410  0.76743  1.0000
  H   H2        1.0  0.55712  0.97592  0.76742  1.0000
  H   H3        1.0  0.55711  0.52411  0.73258  1.0000
  H   H4        1.0  0.94280  0.47592  0.73258  1.0000
  H   H5        1.0  0.05717  0.97591  0.23258  1.0000
  H   H6        1.0  0.44287  0.02407  0.23258  1.0000
  H   H7        1.0  0.44289  0.47588  0.26742  1.0000
  H   H8        1.0  0.05718  0.52408  0.26742  1.0000
  C   C1        1.0  0.09370  0.01213  0.74077  1.0000
  C   C2        1.0  0.40626  0.98786  0.74076  1.0000
  C   C3        1.0  0.40625  0.51214  0.75922  1.0000
  C   C4        1.0  0.09367  0.48788  0.75923  1.0000
  C   C5        1.0  0.90631  0.98787  0.25923  1.0000
  C   C6        1.0  0.59374  0.01214  0.25923  1.0000
  C   C7        1.0  0.59375  0.48786  0.24078  1.0000
  C   C8        1.0  0.90633  0.51212  0.24077  1.0000
  N   N1        1.0  0.15015  0.00742  0.63565  1.0000
  N   N2        1.0  0.34986  0.99260  0.63565  1.0000
  N   N3        1.0  0.34982  0.50741  0.86434  1.0000
  N   N4        1.0  0.15012  0.49260  0.86434  1.0000
  N   N5        1.0  0.84986  0.99258  0.36435  1.0000
  N   N6        1.0  0.65015  0.00741  0.36434  1.0000
  N   N7        1.0  0.65018  0.49259  0.13566  1.0000
  N   N8        1.0  0.84988  0.50740  0.13566  1.0000
  N   N9        1.0  0.24999  0.99999  0.80960  1.0000
  N   N10       1.0  0.24995  0.50002  0.69040  1.0000
  N   N11       1.0  0.75002  0.00001  0.19039  1.0000
  N   N12       1.0  0.75005  0.49999  0.30962  1.0000
  Cl  Cl1       1.0  0.20387  0.25149  0.42062  1.0000
  Cl  Cl2       1.0  0.29613  0.74849  0.42062  1.0000
  Cl  Cl3       1.0  0.29614  0.75150  0.07938  1.0000
  Cl  Cl4       1.0  0.20388  0.24854  0.07938  1.0000
  Cl  Cl5       1.0  0.79613  0.74850  0.57939  1.0000
  Cl  Cl6       1.0  0.70387  0.25151  0.57939  1.0000
  Cl  Cl7       1.0  0.70389  0.24850  0.92060  1.0000
  Cl  Cl8       1.0  0.79609  0.75147  0.92061  1.0000
