data_image0
_chemical_formula_structural       Cd6H16C28S12N20O4
_chemical_formula_sum              "Cd6 H16 C28 S12 N20 O4"
_cell_length_a       11.1579
_cell_length_b       11.158
_cell_length_c       12.8669
_cell_angle_alpha    115.431
_cell_angle_beta     115.43
_cell_angle_gamma    90.5357

_space_group_name_H-M_alt    "P 1"
_space_group_IT_number       1

loop_
  _space_group_symop_operation_xyz
  'x, y, z'

loop_
  _atom_site_type_symbol
  _atom_site_label
  _atom_site_symmetry_multiplicity
  _atom_site_fract_x
  _atom_site_fract_y
  _atom_site_fract_z
  _atom_site_occupancy
  Cd  Cd1       1.0  0.97701  0.47697  0.49981  1.0000
  Cd  Cd2       1.0  0.72697  0.72701  0.99981  1.0000
  Cd  Cd3       1.0  0.41901  0.13661  0.60894  1.0000
  Cd  Cd4       1.0  0.52803  0.81004  0.39109  1.0000
  Cd  Cd5       1.0  0.06003  0.27803  0.89109  1.0000
  Cd  Cd6       1.0  0.38661  0.16901  0.10894  1.0000
  H   H1        1.0  0.80566  0.04970  0.54809  1.0000
  H   H2        1.0  0.50199  0.25711  0.45202  1.0000
  H   H3        1.0  0.50711  0.25199  0.95202  1.0000
  H   H4        1.0  0.29970  0.55566  0.04809  1.0000
  H   H5        1.0  0.96355  0.20565  0.53959  1.0000
  H   H6        1.0  0.66628  0.42359  0.46052  1.0000
  H   H7        1.0  0.67359  0.41627  0.96052  1.0000
  H   H8        1.0  0.45566  0.71355  0.03959  1.0000
  H   H9        1.0  0.46564  0.73531  0.59910  1.0000
  H   H10       1.0  0.13628  0.86665  0.40080  1.0000
  H   H11       1.0  0.11666  0.88628  0.90080  1.0000
  H   H12       1.0  0.98531  0.21564  0.09909  1.0000
  H   H13       1.0  0.30306  0.57202  0.59732  1.0000
  H   H14       1.0  0.97456  0.70564  0.40218  1.0000
  H   H15       1.0  0.95565  0.72456  0.90218  1.0000
  H   H16       1.0  0.82203  0.05306  0.09732  1.0000
  C   C1        1.0  0.77619  0.13135  0.52524  1.0000
  C   C2        1.0  0.60652  0.25060  0.47495  1.0000
  C   C3        1.0  0.50060  0.35652  0.97495  1.0000
  C   C4        1.0  0.38136  0.52619  0.02525  1.0000
  C   C5        1.0  0.86152  0.21941  0.52238  1.0000
  C   C6        1.0  0.69735  0.33882  0.47778  1.0000
  C   C7        1.0  0.58883  0.44735  0.97778  1.0000
  C   C8        1.0  0.46941  0.61152  0.02238  1.0000
  C   C9        1.0  0.35576  0.72521  0.55554  1.0000
  C   C10       1.0  0.16967  0.80022  0.44425  1.0000
  C   C11       1.0  0.05022  0.91967  0.94425  1.0000
  C   C12       1.0  0.97522  0.10576  0.05554  1.0000
  C   C13       1.0  0.26519  0.63759  0.55344  1.0000
  C   C14       1.0  0.08402  0.71158  0.44611  1.0000
  C   C15       1.0  0.96159  0.83402  0.94611  1.0000
  C   C16       1.0  0.88759  0.01519  0.05344  1.0000
  C   C17       1.0  0.73818  0.15749  0.81369  1.0000
  C   C18       1.0  0.34389  0.92474  0.18669  1.0000
  C   C19       1.0  0.17474  0.09389  0.68669  1.0000
  C   C20       1.0  0.40748  0.48818  0.31368  1.0000
  C   C21       1.0  0.15884  0.23420  0.44404  1.0000
  C   C22       1.0  0.79015  0.71457  0.55603  1.0000
  C   C23       1.0  0.96456  0.54015  0.05602  1.0000
  C   C24       1.0  0.48420  0.90884  0.94404  1.0000
  C   C25       1.0  0.70933  0.31359  0.20783  1.0000
  C   C26       1.0  0.10549  0.50198  0.79212  1.0000
  C   C27       1.0  0.75198  0.85549  0.29212  1.0000
  C   C28       1.0  0.56359  0.45933  0.70783  1.0000
  S   S1        1.0  0.60131  0.08731  0.80234  1.0000
  S   S2        1.0  0.28520  0.79925  0.19815  1.0000
  S   S3        1.0  0.04925  0.03520  0.69815  1.0000
  S   S4        1.0  0.33731  0.35132  0.30233  1.0000
  S   S5        1.0  0.22068  0.10717  0.37963  1.0000
  S   S6        1.0  0.72761  0.84091  0.62049  1.0000
  S   S7        1.0  0.09091  0.47762  0.12048  1.0000
  S   S8        1.0  0.35717  0.97068  0.87962  1.0000
  S   S9        1.0  0.85578  0.37658  0.23069  1.0000
  S   S10       1.0  0.14585  0.62531  0.76901  1.0000
  S   S11       1.0  0.87531  0.89583  0.26901  1.0000
  S   S12       1.0  0.62658  0.60578  0.73069  1.0000
  N   N1        1.0  0.64773  0.14730  0.50006  1.0000
  N   N2        1.0  0.39730  0.39773  0.00006  1.0000
  N   N3        1.0  0.82398  0.32371  0.50004  1.0000
  N   N4        1.0  0.57371  0.57398  0.00004  1.0000
  N   N5        1.0  0.30598  0.80598  0.49998  1.0000
  N   N6        1.0  0.05598  0.05598  0.99998  1.0000
  N   N7        1.0  0.13044  0.63043  0.49972  1.0000
  N   N8        1.0  0.88043  0.88044  0.99972  1.0000
  N   N9        1.0  0.83835  0.20704  0.82231  1.0000
  N   N10       1.0  0.38485  0.01618  0.17794  1.0000
  N   N11       1.0  0.26617  0.13485  0.67795  1.0000
  N   N12       1.0  0.45704  0.58836  0.32230  1.0000
  N   N13       1.0  0.11202  0.32510  0.48835  1.0000
  N   N14       1.0  0.83655  0.62336  0.51155  1.0000
  N   N15       1.0  0.87334  0.58655  0.01154  1.0000
  N   N16       1.0  0.57510  0.86203  0.98835  1.0000
  N   N17       1.0  0.60236  0.26873  0.19122  1.0000
  N   N18       1.0  0.07711  0.41180  0.80888  1.0000
  N   N19       1.0  0.66180  0.82711  0.30889  1.0000
  N   N20       1.0  0.51873  0.35237  0.69122  1.0000
  O   O1        1.0  0.56425  0.06382  0.49998  1.0000
  O   O2        1.0  0.31382  0.31425  0.99998  1.0000
  O   O3        1.0  0.38927  0.88923  0.50014  1.0000
  O   O4        1.0  0.13923  0.13926  0.00014  1.0000
