data_image0
_chemical_formula_structural       Cu8H12C12N18Cl6O2
_chemical_formula_sum              "Cu8 H12 C12 N18 Cl6 O2"
_cell_length_a       6.03729
_cell_length_b       11.5063
_cell_length_c       11.5063
_cell_angle_alpha    120
_cell_angle_beta     90.0001
_cell_angle_gamma    89.9999

_space_group_name_H-M_alt    "P 1"
_space_group_IT_number       1

loop_
  _space_group_symop_operation_xyz
  'x, y, z'

loop_
  _atom_site_type_symbol
  _atom_site_label
  _atom_site_symmetry_multiplicity
  _atom_site_fract_x
  _atom_site_fract_y
  _atom_site_fract_z
  _atom_site_occupancy
  Cu  Cu1       1.0  0.25000  0.57008  0.42992  1.0000
  Cu  Cu2       1.0  0.25000  0.57008  0.14016  1.0000
  Cu  Cu3       1.0  0.25000  0.85984  0.42992  1.0000
  Cu  Cu4       1.0  0.75000  0.42992  0.85984  1.0000
  Cu  Cu5       1.0  0.75000  0.14016  0.57008  1.0000
  Cu  Cu6       1.0  0.75000  0.42992  0.57008  1.0000
  Cu  Cu7       1.0  0.25000  0.99999  1.00000  1.0000
  Cu  Cu8       1.0  0.75000  0.00000  0.00000  1.0000
  H   H1        1.0  0.25000  0.25168  0.30963  1.0000
  H   H2        1.0  0.25000  0.69036  0.94205  1.0000
  H   H3        1.0  0.25000  0.05795  0.74831  1.0000
  H   H4        1.0  0.75000  0.30964  0.05795  1.0000
  H   H5        1.0  0.75000  0.94205  0.25168  1.0000
  H   H6        1.0  0.75000  0.30963  0.25169  1.0000
  H   H7        1.0  0.25000  0.05795  0.30963  1.0000
  H   H8        1.0  0.25000  0.25168  0.94205  1.0000
  H   H9        1.0  0.75000  0.74832  0.69037  1.0000
  H   H10       1.0  0.75000  0.94205  0.69037  1.0000
  H   H11       1.0  0.75000  0.74832  0.05795  1.0000
  H   H12       1.0  0.25000  0.69036  0.74831  1.0000
  C   C1        1.0  0.25000  0.27931  0.23252  1.0000
  C   C2        1.0  0.24999  0.76747  0.04679  1.0000
  C   C3        1.0  0.25000  0.95321  0.72069  1.0000
  C   C4        1.0  0.75000  0.23253  0.95321  1.0000
  C   C5        1.0  0.75000  0.04679  0.27931  1.0000
  C   C6        1.0  0.75000  0.23252  0.27931  1.0000
  C   C7        1.0  0.25000  0.95321  0.23252  1.0000
  C   C8        1.0  0.25000  0.27931  0.04679  1.0000
  C   C9        1.0  0.75000  0.72069  0.76748  1.0000
  C   C10       1.0  0.75000  0.04679  0.76748  1.0000
  C   C11       1.0  0.75000  0.72069  0.95322  1.0000
  C   C12       1.0  0.25000  0.76748  0.72069  1.0000
  N   N1        1.0  0.25000  0.40694  0.26209  1.0000
  N   N2        1.0  0.25000  0.73791  0.14485  1.0000
  N   N3        1.0  0.25000  0.85514  0.59305  1.0000
  N   N4        1.0  0.75000  0.26210  0.85515  1.0000
  N   N5        1.0  0.75000  0.14485  0.40695  1.0000
  N   N6        1.0  0.75000  0.26209  0.40694  1.0000
  N   N7        1.0  0.25000  0.85515  0.26209  1.0000
  N   N8        1.0  0.25000  0.40694  0.14485  1.0000
  N   N9        1.0  0.75000  0.59306  0.73791  1.0000
  N   N10       1.0  0.75000  0.14486  0.73791  1.0000
  N   N11       1.0  0.75000  0.59306  0.85515  1.0000
  N   N12       1.0  0.25000  0.73791  0.59305  1.0000
  N   N13       1.0  0.25000  0.19549  0.09775  1.0000
  N   N14       1.0  0.25000  0.90225  0.09775  1.0000
  N   N15       1.0  0.25000  0.90225  0.80450  1.0000
  N   N16       1.0  0.75000  0.09775  0.90225  1.0000
  N   N17       1.0  0.75000  0.09775  0.19550  1.0000
  N   N18       1.0  0.75000  0.80451  0.90226  1.0000
  Cl  Cl1       1.0  0.24999  0.45360  0.54639  1.0000
  Cl  Cl2       1.0  0.25000  0.45360  0.90720  1.0000
  Cl  Cl3       1.0  0.25000  0.09277  0.54638  1.0000
  Cl  Cl4       1.0  0.75000  0.54640  0.09278  1.0000
  Cl  Cl5       1.0  0.75000  0.90722  0.45361  1.0000
  Cl  Cl6       1.0  0.75000  0.54640  0.45360  1.0000
  O   O1        1.0  0.25000  0.66667  0.33334  1.0000
  O   O2        1.0  0.75000  0.33333  0.66667  1.0000
