data_image0
_chemical_formula_structural       Cd2H40C48S4N12O16
_chemical_formula_sum              "Cd2 H40 C48 S4 N12 O16"
_cell_length_a       7.56656
_cell_length_b       9.58392
_cell_length_c       19.3527
_cell_angle_alpha    89.9996
_cell_angle_beta     101.082
_cell_angle_gamma    89.9999

_space_group_name_H-M_alt    "P 1"
_space_group_IT_number       1

loop_
  _space_group_symop_operation_xyz
  'x, y, z'

loop_
  _atom_site_type_symbol
  _atom_site_label
  _atom_site_symmetry_multiplicity
  _atom_site_fract_x
  _atom_site_fract_y
  _atom_site_fract_z
  _atom_site_occupancy
  Cd  Cd1       1.0  0.50000  0.50000  0.50000  1.0000
  Cd  Cd2       1.0  0.00000  1.00000  1.00000  1.0000
  H   H1        1.0  0.01047  0.72920  0.31018  1.0000
  H   H2        1.0  0.48953  0.22921  0.18982  1.0000
  H   H3        1.0  0.98953  0.27079  0.68982  1.0000
  H   H4        1.0  0.51047  0.77080  0.81018  1.0000
  H   H5        1.0  0.93974  0.83735  0.19104  1.0000
  H   H6        1.0  0.56026  0.33735  0.30895  1.0000
  H   H7        1.0  0.06025  0.16265  0.80896  1.0000
  H   H8        1.0  0.43975  0.66265  0.69105  1.0000
  H   H9        1.0  0.62293  0.85753  0.12701  1.0000
  H   H10       1.0  0.87707  0.35753  0.37298  1.0000
  H   H11       1.0  0.37707  0.14247  0.87298  1.0000
  H   H12       1.0  0.12293  0.64247  0.62702  1.0000
  H   H13       1.0  0.36946  0.78059  0.18299  1.0000
  H   H14       1.0  0.13054  0.28058  0.31701  1.0000
  H   H15       1.0  0.63054  0.21942  0.81701  1.0000
  H   H16       1.0  0.86946  0.71942  0.68299  1.0000
  H   H17       1.0  0.83598  0.29505  0.52241  1.0000
  H   H18       1.0  0.66401  0.79505  0.97759  1.0000
  H   H19       1.0  0.16402  0.70495  0.47759  1.0000
  H   H20       1.0  0.33599  0.20495  0.02241  1.0000
  H   H21       1.0  0.31535  0.22535  0.41325  1.0000
  H   H22       1.0  0.18465  0.72536  0.08675  1.0000
  H   H23       1.0  0.68465  0.77464  0.58675  1.0000
  H   H24       1.0  0.81535  0.27465  0.91325  1.0000
  H   H25       1.0  0.71575  0.89966  0.41954  1.0000
  H   H26       1.0  0.78425  0.39966  0.08047  1.0000
  H   H27       1.0  0.28425  0.10033  0.58047  1.0000
  H   H28       1.0  0.21575  0.60034  0.91954  1.0000
  H   H29       1.0  0.39690  0.98369  0.37765  1.0000
  H   H30       1.0  0.10310  0.48369  0.12235  1.0000
  H   H31       1.0  0.60311  0.01631  0.62235  1.0000
  H   H32       1.0  0.89690  0.51631  0.87765  1.0000
  H   H33       1.0  0.15204  0.42357  0.49477  1.0000
  H   H34       1.0  0.34796  0.92357  0.00523  1.0000
  H   H35       1.0  0.84796  0.57643  0.50523  1.0000
  H   H36       1.0  0.65204  0.07643  0.99477  1.0000
  H   H37       1.0  0.10803  0.50855  0.42402  1.0000
  H   H38       1.0  0.39197  0.00855  0.07598  1.0000
  H   H39       1.0  0.89197  0.49145  0.57598  1.0000
  H   H40       1.0  0.60803  0.99145  0.92402  1.0000
  C   C1        1.0  0.55202  0.70339  0.27527  1.0000
  C   C2        1.0  0.94799  0.20339  0.22472  1.0000
  C   C3        1.0  0.44798  0.29661  0.72472  1.0000
  C   C4        1.0  0.05202  0.79661  0.77528  1.0000
  C   C5        1.0  0.72946  0.68868  0.31150  1.0000
  C   C6        1.0  0.77054  0.18868  0.18849  1.0000
  C   C7        1.0  0.27053  0.31132  0.68849  1.0000
  C   C8        1.0  0.22946  0.81132  0.81151  1.0000
  C   C9        1.0  0.73747  0.62271  0.38178  1.0000
  C   C10       1.0  0.76253  0.12271  0.11821  1.0000
  C   C11       1.0  0.26252  0.37729  0.61822  1.0000
  C   C12       1.0  0.23747  0.87730  0.88179  1.0000
  C   C13       1.0  0.87163  0.73709  0.28185  1.0000
  C   C14       1.0  0.62837  0.23709  0.21815  1.0000
  C   C15       1.0  0.12837  0.26291  0.71815  1.0000
  C   C16       1.0  0.37163  0.76292  0.78185  1.0000
  C   C17       1.0  0.83060  0.79738  0.21481  1.0000
  C   C18       1.0  0.66940  0.29737  0.28519  1.0000
  C   C19       1.0  0.16940  0.20262  0.78519  1.0000
  C   C20       1.0  0.33060  0.70263  0.71481  1.0000
  C   C21       1.0  0.65208  0.80996  0.17900  1.0000
  C   C22       1.0  0.84792  0.30995  0.32100  1.0000
  C   C23       1.0  0.34792  0.19004  0.82100  1.0000
  C   C24       1.0  0.15208  0.69005  0.67900  1.0000
  C   C25       1.0  0.50842  0.76451  0.20932  1.0000
  C   C26       1.0  0.99158  0.26450  0.29067  1.0000
  C   C27       1.0  0.49158  0.23549  0.79068  1.0000
  C   C28       1.0  0.00842  0.73550  0.70933  1.0000
  C   C29       1.0  0.74006  0.22578  0.49006  1.0000
  C   C30       1.0  0.75993  0.72578  0.00994  1.0000
  C   C31       1.0  0.25994  0.77422  0.50994  1.0000
  C   C32       1.0  0.24006  0.27422  0.99006  1.0000
  C   C33       1.0  0.45141  0.18398  0.42901  1.0000
  C   C34       1.0  0.04858  0.68398  0.07099  1.0000
  C   C35       1.0  0.54859  0.81601  0.57099  1.0000
  C   C36       1.0  0.95141  0.31602  0.92901  1.0000
  C   C37       1.0  0.67257  0.00301  0.43274  1.0000
  C   C38       1.0  0.82743  0.50301  0.06726  1.0000
  C   C39       1.0  0.32744  0.99699  0.56726  1.0000
  C   C40       1.0  0.17257  0.49699  0.93274  1.0000
  C   C41       1.0  0.79647  0.09282  0.47406  1.0000
  C   C42       1.0  0.70353  0.59282  0.02595  1.0000
  C   C43       1.0  0.20353  0.90718  0.52595  1.0000
  C   C44       1.0  0.29647  0.40718  0.97406  1.0000
  C   C45       1.0  0.49744  0.05012  0.40979  1.0000
  C   C46       1.0  0.00256  0.55013  0.09022  1.0000
  C   C47       1.0  0.50256  0.94987  0.59022  1.0000
  C   C48       1.0  0.99745  0.44988  0.90979  1.0000
  S   S1        1.0  0.40878  0.63432  0.32919  1.0000
  S   S2        1.0  0.09122  0.13432  0.17081  1.0000
  S   S3        1.0  0.59121  0.36568  0.67081  1.0000
  S   S4        1.0  0.90878  0.86568  0.82919  1.0000
  N   N1        1.0  0.57337  0.58974  0.39507  1.0000
  N   N2        1.0  0.92663  0.08974  0.10493  1.0000
  N   N3        1.0  0.42663  0.41026  0.60493  1.0000
  N   N4        1.0  0.07337  0.91026  0.89507  1.0000
  N   N5        1.0  0.57081  0.27032  0.46837  1.0000
  N   N6        1.0  0.92918  0.77032  0.03163  1.0000
  N   N7        1.0  0.42919  0.72968  0.53163  1.0000
  N   N8        1.0  0.07081  0.22968  0.96837  1.0000
  N   N9        1.0  0.97945  0.06378  0.50106  1.0000
  N   N10       1.0  0.52055  0.56378  0.99894  1.0000
  N   N11       1.0  0.02055  0.93621  0.49894  1.0000
  N   N12       1.0  0.47945  0.43622  0.00106  1.0000
  O   O1        1.0  0.31374  0.51147  0.29793  1.0000
  O   O2        1.0  0.18626  0.01147  0.20207  1.0000
  O   O3        1.0  0.68625  0.48853  0.70207  1.0000
  O   O4        1.0  0.81374  0.98853  0.79793  1.0000
  O   O5        1.0  0.88345  0.60191  0.42474  1.0000
  O   O6        1.0  0.61655  0.10191  0.07526  1.0000
  O   O7        1.0  0.11655  0.39808  0.57526  1.0000
  O   O8        1.0  0.38345  0.89809  0.92474  1.0000
  O   O9        1.0  0.29992  0.74313  0.35255  1.0000
  O   O10       1.0  0.20008  0.24313  0.14744  1.0000
  O   O11       1.0  0.70008  0.25687  0.64744  1.0000
  O   O12       1.0  0.79991  0.75687  0.85256  1.0000
  O   O13       1.0  0.19579  0.44206  0.44963  1.0000
  O   O14       1.0  0.30421  0.94206  0.05037  1.0000
  O   O15       1.0  0.80421  0.55794  0.55037  1.0000
  O   O16       1.0  0.69579  0.05794  0.94963  1.0000
