data_image0
_chemical_formula_structural       Er4H32C24N4O28
_chemical_formula_sum              "Er4 H32 C24 N4 O28"
_cell_length_a       6.49458
_cell_length_b       11.4195
_cell_length_c       12.6734
_cell_angle_alpha    90.0002
_cell_angle_beta     89.9992
_cell_angle_gamma    90.0001

_space_group_name_H-M_alt    "P 1"
_space_group_IT_number       1

loop_
  _space_group_symop_operation_xyz
  'x, y, z'

loop_
  _atom_site_type_symbol
  _atom_site_label
  _atom_site_symmetry_multiplicity
  _atom_site_fract_x
  _atom_site_fract_y
  _atom_site_fract_z
  _atom_site_occupancy
  Er  Er1       1.0  0.64526  0.50059  0.49763  1.0000
  Er  Er2       1.0  0.14528  0.99941  0.50237  1.0000
  Er  Er3       1.0  0.35472  0.00059  0.00237  1.0000
  Er  Er4       1.0  0.85473  0.49942  0.99763  1.0000
  H   H1        1.0  0.73644  0.73974  0.64722  1.0000
  H   H2        1.0  0.23647  0.76027  0.35278  1.0000
  H   H3        1.0  0.26354  0.23974  0.85278  1.0000
  H   H4        1.0  0.76353  0.26026  0.14722  1.0000
  H   H5        1.0  0.00609  0.72675  0.63588  1.0000
  H   H6        1.0  0.50609  0.77324  0.36412  1.0000
  H   H7        1.0  0.99391  0.22677  0.86412  1.0000
  H   H8        1.0  0.49391  0.27324  0.13588  1.0000
  H   H9        1.0  0.70640  0.02891  0.71026  1.0000
  H   H10       1.0  0.20641  0.47110  0.28973  1.0000
  H   H11       1.0  0.29361  0.52891  0.78974  1.0000
  H   H12       1.0  0.79359  0.97110  0.21026  1.0000
  H   H13       1.0  0.57710  0.90611  0.65644  1.0000
  H   H14       1.0  0.07710  0.59389  0.34357  1.0000
  H   H15       1.0  0.42290  0.40611  0.84356  1.0000
  H   H16       1.0  0.92290  0.09389  0.15644  1.0000
  H   H17       1.0  0.11147  0.83077  0.75642  1.0000
  H   H18       1.0  0.61149  0.66923  0.24358  1.0000
  H   H19       1.0  0.88855  0.33077  0.74357  1.0000
  H   H20       1.0  0.38852  0.16923  0.25642  1.0000
  H   H21       1.0  0.90996  0.91117  0.81453  1.0000
  H   H22       1.0  0.40998  0.58883  0.18547  1.0000
  H   H23       1.0  0.09004  0.41117  0.68547  1.0000
  H   H24       1.0  0.59001  0.08884  0.31453  1.0000
  H   H25       1.0  0.52583  0.27009  0.57480  1.0000
  H   H26       1.0  0.02583  0.22990  0.42519  1.0000
  H   H27       1.0  0.47418  0.77011  0.92518  1.0000
  H   H28       1.0  0.97417  0.72990  0.07480  1.0000
  H   H29       1.0  0.74925  0.24069  0.54020  1.0000
  H   H30       1.0  0.24925  0.25931  0.45979  1.0000
  H   H31       1.0  0.25075  0.74070  0.95979  1.0000
  H   H32       1.0  0.75074  0.75930  0.04020  1.0000
  C   C1        1.0  0.87348  0.77949  0.61089  1.0000
  C   C2        1.0  0.37348  0.72050  0.38912  1.0000
  C   C3        1.0  0.12653  0.27949  0.88911  1.0000
  C   C4        1.0  0.62652  0.22050  0.11089  1.0000
  C   C5        1.0  0.86129  0.76850  0.49126  1.0000
  C   C6        1.0  0.36128  0.73149  0.50875  1.0000
  C   C7        1.0  0.13870  0.26851  0.00875  1.0000
  C   C8        1.0  0.63870  0.23149  0.99126  1.0000
  C   C9        1.0  0.70805  0.96572  0.64449  1.0000
  C   C10       1.0  0.20805  0.53427  0.35552  1.0000
  C   C11       1.0  0.29197  0.46573  0.85551  1.0000
  C   C12       1.0  0.79195  0.03428  0.14449  1.0000
  C   C13       1.0  0.67022  0.04015  0.54637  1.0000
  C   C14       1.0  0.17023  0.45983  0.45363  1.0000
  C   C15       1.0  0.32978  0.54016  0.95363  1.0000
  C   C16       1.0  0.82976  0.95984  0.04637  1.0000
  C   C17       1.0  0.01438  0.90872  0.74597  1.0000
  C   C18       1.0  0.51440  0.59128  0.25403  1.0000
  C   C19       1.0  0.98562  0.40872  0.75402  1.0000
  C   C20       1.0  0.48560  0.09128  0.24597  1.0000
  C   C21       1.0  0.16037  0.01319  0.75059  1.0000
  C   C22       1.0  0.66040  0.48681  0.24940  1.0000
  C   C23       1.0  0.83963  0.51319  0.74940  1.0000
  C   C24       1.0  0.33961  0.98682  0.25060  1.0000
  N   N1        1.0  0.90607  0.90154  0.64402  1.0000
  N   N2        1.0  0.40608  0.59846  0.35599  1.0000
  N   N3        1.0  0.09394  0.40154  0.85598  1.0000
  N   N4        1.0  0.59392  0.09846  0.14402  1.0000
  O   O1        1.0  0.80493  0.67030  0.45300  1.0000
  O   O2        1.0  0.30492  0.82970  0.54701  1.0000
  O   O3        1.0  0.19507  0.17031  0.04701  1.0000
  O   O4        1.0  0.69509  0.32970  0.95299  1.0000
  O   O5        1.0  0.91292  0.85565  0.43544  1.0000
  O   O6        1.0  0.41291  0.64435  0.56456  1.0000
  O   O7        1.0  0.08708  0.35565  0.06457  1.0000
  O   O8        1.0  0.58707  0.14435  0.93544  1.0000
  O   O9        1.0  0.49009  0.05905  0.51473  1.0000
  O   O10       1.0  0.99009  0.44094  0.48526  1.0000
  O   O11       1.0  0.50992  0.55904  0.98526  1.0000
  O   O12       1.0  0.00990  0.94095  0.01474  1.0000
  O   O13       1.0  0.82815  0.09115  0.50519  1.0000
  O   O14       1.0  0.32816  0.40884  0.49480  1.0000
  O   O15       1.0  0.17186  0.59116  0.99481  1.0000
  O   O16       1.0  0.67183  0.90884  0.00519  1.0000
  O   O17       1.0  0.25568  0.03159  0.83585  1.0000
  O   O18       1.0  0.75570  0.46842  0.16415  1.0000
  O   O19       1.0  0.74431  0.53158  0.66416  1.0000
  O   O20       1.0  0.24431  0.96842  0.33584  1.0000
  O   O21       1.0  0.18483  0.07512  0.66812  1.0000
  O   O22       1.0  0.68485  0.42488  0.33188  1.0000
  O   O23       1.0  0.81519  0.57513  0.83189  1.0000
  O   O24       1.0  0.31515  0.92489  0.16811  1.0000
  O   O25       1.0  0.66261  0.30452  0.56854  1.0000
  O   O26       1.0  0.16261  0.19548  0.43146  1.0000
  O   O27       1.0  0.33739  0.80453  0.93145  1.0000
  O   O28       1.0  0.83739  0.69547  0.06854  1.0000
