data_image0
_chemical_formula_structural       Mn4H32C28N40
_chemical_formula_sum              "Mn4 H32 C28 N40"
_cell_length_a       7.47102
_cell_length_b       8.76698
_cell_length_c       16.7675
_cell_angle_alpha    89.9997
_cell_angle_beta     94.2119
_cell_angle_gamma    89.9999

_space_group_name_H-M_alt    "P 1"
_space_group_IT_number       1

loop_
  _space_group_symop_operation_xyz
  'x, y, z'

loop_
  _atom_site_type_symbol
  _atom_site_label
  _atom_site_symmetry_multiplicity
  _atom_site_fract_x
  _atom_site_fract_y
  _atom_site_fract_z
  _atom_site_occupancy
  Mn  Mn1       1.0  0.17946  0.38479  0.52999  1.0000
  Mn  Mn2       1.0  0.32053  0.88478  0.97001  1.0000
  Mn  Mn3       1.0  0.82053  0.61522  0.47001  1.0000
  Mn  Mn4       1.0  0.67947  0.11522  0.02999  1.0000
  H   H1        1.0  0.39924  0.17544  0.66054  1.0000
  H   H2        1.0  0.10077  0.67544  0.83945  1.0000
  H   H3        1.0  0.60076  0.82456  0.33946  1.0000
  H   H4        1.0  0.89923  0.32456  0.16055  1.0000
  H   H5        1.0  0.32496  0.99082  0.69136  1.0000
  H   H6        1.0  0.17505  0.49081  0.80864  1.0000
  H   H7        1.0  0.67504  0.00918  0.30864  1.0000
  H   H8        1.0  0.82496  0.50918  0.19136  1.0000
  H   H9        1.0  0.36479  0.80669  0.58131  1.0000
  H   H10       1.0  0.13522  0.30669  0.91870  1.0000
  H   H11       1.0  0.63521  0.19332  0.41869  1.0000
  H   H12       1.0  0.86479  0.69331  0.08130  1.0000
  H   H13       1.0  0.30867  0.81468  0.41684  1.0000
  H   H14       1.0  0.19134  0.31469  0.08317  1.0000
  H   H15       1.0  0.69133  0.18532  0.58316  1.0000
  H   H16       1.0  0.80867  0.68531  0.91684  1.0000
  H   H17       1.0  0.19711  0.11053  0.38569  1.0000
  H   H18       1.0  0.30289  0.61053  0.11431  1.0000
  H   H19       1.0  0.80288  0.88948  0.61431  1.0000
  H   H20       1.0  0.69712  0.38947  0.88569  1.0000
  H   H21       1.0  0.04350  0.99724  0.76069  1.0000
  H   H22       1.0  0.45650  0.49724  0.73931  1.0000
  H   H23       1.0  0.95649  0.00276  0.23931  1.0000
  H   H24       1.0  0.54350  0.50276  0.26069  1.0000
  H   H25       1.0  0.77556  0.21281  0.77529  1.0000
  H   H26       1.0  0.72445  0.71280  0.72471  1.0000
  H   H27       1.0  0.22444  0.78719  0.22471  1.0000
  H   H28       1.0  0.27556  0.28720  0.27529  1.0000
  H   H29       1.0  0.85955  0.43791  0.66785  1.0000
  H   H30       1.0  0.64045  0.93791  0.83215  1.0000
  H   H31       1.0  0.14044  0.56209  0.33215  1.0000
  H   H32       1.0  0.35956  0.06209  0.16785  1.0000
  C   C1        1.0  0.29306  0.08916  0.65274  1.0000
  C   C2        1.0  0.20694  0.58916  0.84726  1.0000
  C   C3        1.0  0.70693  0.91084  0.34726  1.0000
  C   C4        1.0  0.79307  0.41083  0.15274  1.0000
  C   C5        1.0  0.31843  0.89818  0.54154  1.0000
  C   C6        1.0  0.18158  0.39818  0.95846  1.0000
  C   C7        1.0  0.68156  0.10182  0.45846  1.0000
  C   C8        1.0  0.81843  0.60181  0.04154  1.0000
  C   C9        1.0  0.29105  0.90598  0.45897  1.0000
  C   C10       1.0  0.20895  0.40598  0.04103  1.0000
  C   C11       1.0  0.70894  0.09402  0.54103  1.0000
  C   C12       1.0  0.79106  0.59402  0.95897  1.0000
  C   C13       1.0  0.23418  0.05618  0.44262  1.0000
  C   C14       1.0  0.26582  0.55618  0.05738  1.0000
  C   C15       1.0  0.76581  0.94383  0.55738  1.0000
  C   C16       1.0  0.73418  0.44382  0.94262  1.0000
  C   C17       1.0  0.01789  0.10545  0.73055  1.0000
  C   C18       1.0  0.48211  0.60544  0.76945  1.0000
  C   C19       1.0  0.98211  0.89455  0.26945  1.0000
  C   C20       1.0  0.51790  0.39455  0.23055  1.0000
  C   C21       1.0  0.88686  0.21633  0.73725  1.0000
  C   C22       1.0  0.61315  0.71633  0.76275  1.0000
  C   C23       1.0  0.11314  0.78367  0.26275  1.0000
  C   C24       1.0  0.38686  0.28367  0.23725  1.0000
  C   C25       1.0  0.92853  0.33162  0.68311  1.0000
  C   C26       1.0  0.57147  0.83162  0.81689  1.0000
  C   C27       1.0  0.07146  0.66838  0.31689  1.0000
  C   C28       1.0  0.42854  0.16838  0.18311  1.0000
  N   N1        1.0  0.06879  0.60876  0.55456  1.0000
  N   N2        1.0  0.43121  0.10876  0.94544  1.0000
  N   N3        1.0  0.93121  0.39124  0.44544  1.0000
  N   N4        1.0  0.56879  0.89123  0.05456  1.0000
  N   N5        1.0  0.07149  0.67048  0.61886  1.0000
  N   N6        1.0  0.42851  0.17048  0.88114  1.0000
  N   N7        1.0  0.92850  0.32952  0.38115  1.0000
  N   N8        1.0  0.57149  0.82952  0.11885  1.0000
  N   N9        1.0  0.07347  0.73276  0.68060  1.0000
  N   N10       1.0  0.42653  0.23275  0.81939  1.0000
  N   N11       1.0  0.92652  0.26725  0.31940  1.0000
  N   N12       1.0  0.57348  0.76724  0.18061  1.0000
  N   N13       1.0  0.42774  0.42318  0.60115  1.0000
  N   N14       1.0  0.07226  0.92318  0.89885  1.0000
  N   N15       1.0  0.57225  0.57682  0.39885  1.0000
  N   N16       1.0  0.92775  0.07682  0.10115  1.0000
  N   N17       1.0  0.55357  0.49868  0.58715  1.0000
  N   N18       1.0  0.94643  0.99868  0.91285  1.0000
  N   N19       1.0  0.44643  0.50132  0.41285  1.0000
  N   N20       1.0  0.05357  0.00132  0.08715  1.0000
  N   N21       1.0  0.68122  0.57430  0.57675  1.0000
  N   N22       1.0  0.81878  0.07430  0.92325  1.0000
  N   N23       1.0  0.31877  0.42569  0.42325  1.0000
  N   N24       1.0  0.18122  0.92569  0.07675  1.0000
  N   N25       1.0  0.27730  0.03734  0.57035  1.0000
  N   N26       1.0  0.22271  0.53734  0.92965  1.0000
  N   N27       1.0  0.72270  0.96267  0.42965  1.0000
  N   N28       1.0  0.77730  0.46266  0.07035  1.0000
  N   N29       1.0  0.22732  0.13646  0.51066  1.0000
  N   N30       1.0  0.27268  0.63646  0.98934  1.0000
  N   N31       1.0  0.77267  0.86355  0.48934  1.0000
  N   N32       1.0  0.72733  0.36354  0.01066  1.0000
  N   N33       1.0  0.12767  0.15656  0.67543  1.0000
  N   N34       1.0  0.37233  0.65656  0.82457  1.0000
  N   N35       1.0  0.87233  0.84344  0.32457  1.0000
  N   N36       1.0  0.62767  0.34344  0.17543  1.0000
  N   N37       1.0  0.07519  0.29498  0.64554  1.0000
  N   N38       1.0  0.42481  0.79498  0.85446  1.0000
  N   N39       1.0  0.92480  0.70502  0.35446  1.0000
  N   N40       1.0  0.57519  0.20502  0.14554  1.0000
