data_image0
_chemical_formula_structural       Cd4H46C78N8Cl2O12
_chemical_formula_sum              "Cd4 H46 C78 N8 Cl2 O12"
_cell_length_a       10.0676
_cell_length_b       10.3063
_cell_length_c       16.1893
_cell_angle_alpha    81.8762
_cell_angle_beta     75.0805
_cell_angle_gamma    77.9832

_space_group_name_H-M_alt    "P 1"
_space_group_IT_number       1

loop_
  _space_group_symop_operation_xyz
  'x, y, z'

loop_
  _atom_site_type_symbol
  _atom_site_label
  _atom_site_symmetry_multiplicity
  _atom_site_fract_x
  _atom_site_fract_y
  _atom_site_fract_z
  _atom_site_occupancy
  Cd  Cd1       1.0  0.06144  0.01993  0.27562  1.0000
  Cd  Cd2       1.0  0.93857  0.98007  0.72438  1.0000
  Cd  Cd3       1.0  0.68882  0.25408  0.85800  1.0000
  Cd  Cd4       1.0  0.31119  0.74592  0.14200  1.0000
  H   H1        1.0  0.40526  0.07197  0.24751  1.0000
  H   H2        1.0  0.59474  0.92803  0.75249  1.0000
  H   H3        1.0  0.37022  0.28806  0.97946  1.0000
  H   H4        1.0  0.62978  0.71194  0.02054  1.0000
  H   H5        1.0  0.24378  0.33533  0.13349  1.0000
  H   H6        1.0  0.75622  0.66467  0.86651  1.0000
  H   H7        1.0  0.38015  0.38749  0.22890  1.0000
  H   H8        1.0  0.61985  0.61251  0.77110  1.0000
  H   H9        1.0  0.61292  0.39622  0.25280  1.0000
  H   H10       1.0  0.38708  0.60378  0.74720  1.0000
  H   H11       1.0  0.86957  0.37794  0.19823  1.0000
  H   H12       1.0  0.13043  0.62206  0.80177  1.0000
  H   H13       1.0  0.07759  0.34660  0.07652  1.0000
  H   H14       1.0  0.92241  0.65340  0.92348  1.0000
  H   H15       1.0  0.17976  0.31124  0.91852  1.0000
  H   H16       1.0  0.82024  0.68877  0.08148  1.0000
  H   H17       1.0  0.01115  0.98724  0.08796  1.0000
  H   H18       1.0  0.98885  0.01276  0.91204  1.0000
  H   H19       1.0  0.81432  0.97960  0.01872  1.0000
  H   H20       1.0  0.18569  0.02041  0.98128  1.0000
  H   H21       1.0  0.56916  0.01930  0.10711  1.0000
  H   H22       1.0  0.43084  0.98071  0.89288  1.0000
  H   H23       1.0  0.36576  0.12712  0.39543  1.0000
  H   H24       1.0  0.63424  0.87288  0.60456  1.0000
  H   H25       1.0  0.46484  0.16674  0.51756  1.0000
  H   H26       1.0  0.53516  0.83326  0.48243  1.0000
  H   H27       1.0  0.18655  0.65212  0.47904  1.0000
  H   H28       1.0  0.81344  0.34788  0.52096  1.0000
  H   H29       1.0  0.07754  0.51957  0.26943  1.0000
  H   H30       1.0  0.92245  0.48043  0.73057  1.0000
  H   H31       1.0  0.50658  0.50387  0.63643  1.0000
  H   H32       1.0  0.49343  0.49613  0.36357  1.0000
  H   H33       1.0  0.26394  0.19856  0.74435  1.0000
  H   H34       1.0  0.73605  0.80144  0.25566  1.0000
  H   H35       1.0  0.15257  0.24318  0.62038  1.0000
  H   H36       1.0  0.84742  0.75682  0.37963  1.0000
  H   H37       1.0  0.37856  0.56573  0.52118  1.0000
  H   H38       1.0  0.62144  0.43426  0.47882  1.0000
  H   H39       1.0  0.18414  0.23517  0.47298  1.0000
  H   H40       1.0  0.81584  0.76483  0.52702  1.0000
  H   H41       1.0  0.67820  0.15584  0.57418  1.0000
  H   H42       1.0  0.32180  0.84416  0.42581  1.0000
  H   H43       1.0  0.91345  0.09779  0.47759  1.0000
  H   H44       1.0  0.08655  0.90221  0.52241  1.0000
  H   H45       1.0  0.01569  0.29457  0.82892  1.0000
  H   H46       1.0  0.98431  0.70543  0.17108  1.0000
  C   C1        1.0  0.10906  0.25577  0.32277  1.0000
  C   C2        1.0  0.89095  0.74422  0.67723  1.0000
  C   C3        1.0  0.12843  0.36665  0.36733  1.0000
  C   C4        1.0  0.87156  0.63335  0.63268  1.0000
  C   C5        1.0  0.46609  0.31330  0.77044  1.0000
  C   C6        1.0  0.53391  0.68669  0.22956  1.0000
  C   C7        1.0  0.39173  0.34824  0.69886  1.0000
  C   C8        1.0  0.60827  0.65176  0.30114  1.0000
  C   C9        1.0  0.42388  0.45131  0.63499  1.0000
  C   C10       1.0  0.57612  0.54869  0.36501  1.0000
  C   C11       1.0  0.11077  0.74173  0.33259  1.0000
  C   C12       1.0  0.88923  0.25827  0.66741  1.0000
  C   C13       1.0  0.19620  0.43914  0.48544  1.0000
  C   C14       1.0  0.80379  0.56086  0.51457  1.0000
  C   C15       1.0  0.25639  0.40895  0.56161  1.0000
  C   C16       1.0  0.74360  0.59105  0.43839  1.0000
  C   C17       1.0  0.74830  0.05493  0.25311  1.0000
  C   C18       1.0  0.25171  0.94507  0.74689  1.0000
  C   C19       1.0  0.13059  0.60037  0.37078  1.0000
  C   C20       1.0  0.86940  0.39963  0.62923  1.0000
  C   C21       1.0  0.63563  0.33992  0.04516  1.0000
  C   C22       1.0  0.36437  0.66008  0.95484  1.0000
  C   C23       1.0  0.17244  0.57055  0.44810  1.0000
  C   C24       1.0  0.82755  0.42946  0.55190  1.0000
  C   C25       1.0  0.58673  0.11274  0.39169  1.0000
  C   C26       1.0  0.41327  0.88726  0.60831  1.0000
  C   C27       1.0  0.72572  0.08269  0.34128  1.0000
  C   C28       1.0  0.27428  0.91731  0.65872  1.0000
  C   C29       1.0  0.22698  0.30353  0.62472  1.0000
  C   C30       1.0  0.77302  0.69647  0.37528  1.0000
  C   C31       1.0  0.17017  0.33828  0.44515  1.0000
  C   C32       1.0  0.82982  0.66172  0.55486  1.0000
  C   C33       1.0  0.10943  0.49805  0.33001  1.0000
  C   C34       1.0  0.89056  0.50195  0.66999  1.0000
  C   C35       1.0  0.63114  0.05238  0.21993  1.0000
  C   C36       1.0  0.36887  0.94763  0.78007  1.0000
  C   C37       1.0  0.29027  0.27695  0.69384  1.0000
  C   C38       1.0  0.70973  0.72305  0.30617  1.0000
  C   C39       1.0  0.90207  0.00565  0.12340  1.0000
  C   C40       1.0  0.09793  0.99435  0.87660  1.0000
  C   C41       1.0  0.65682  0.02404  0.13385  1.0000
  C   C42       1.0  0.34319  0.97597  0.86615  1.0000
  C   C43       1.0  0.35334  0.48422  0.56955  1.0000
  C   C44       1.0  0.64666  0.51577  0.43045  1.0000
  C   C45       1.0  0.81983  0.10313  0.45430  1.0000
  C   C46       1.0  0.18017  0.89687  0.54570  1.0000
  C   C47       1.0  0.97764  0.31006  0.89686  1.0000
  C   C48       1.0  0.02236  0.68995  0.10314  1.0000
  C   C49       1.0  0.78394  0.33609  0.01188  1.0000
  C   C50       1.0  0.21606  0.66391  0.98811  1.0000
  C   C51       1.0  0.57500  0.36538  0.13196  1.0000
  C   C52       1.0  0.42500  0.63462  0.86804  1.0000
  C   C53       1.0  0.79271  0.00160  0.08528  1.0000
  C   C54       1.0  0.20730  0.99841  0.91472  1.0000
  C   C55       1.0  0.49325  0.07758  0.27365  1.0000
  C   C56       1.0  0.50675  0.92242  0.72634  1.0000
  C   C57       1.0  0.86693  0.35012  0.06794  1.0000
  C   C58       1.0  0.13307  0.64988  0.93206  1.0000
  C   C59       1.0  0.56978  0.14178  0.47704  1.0000
  C   C60       1.0  0.43023  0.85822  0.52296  1.0000
  C   C61       1.0  0.47185  0.10836  0.35593  1.0000
  C   C62       1.0  0.52816  0.89164  0.64407  1.0000
  C   C63       1.0  0.06812  0.32034  0.94793  1.0000
  C   C64       1.0  0.93188  0.67966  0.05207  1.0000
  C   C65       1.0  0.01235  0.33947  0.03367  1.0000
  C   C66       1.0  0.98765  0.66053  0.96633  1.0000
  C   C67       1.0  0.68623  0.13648  0.50853  1.0000
  C   C68       1.0  0.31377  0.86352  0.49147  1.0000
  C   C69       1.0  0.42331  0.31291  0.02443  1.0000
  C   C70       1.0  0.57669  0.68709  0.97557  1.0000
  C   C71       1.0  0.66185  0.38069  0.18590  1.0000
  C   C72       1.0  0.33815  0.61930  0.81410  1.0000
  C   C73       1.0  0.43011  0.36709  0.16266  1.0000
  C   C74       1.0  0.56989  0.63291  0.83734  1.0000
  C   C75       1.0  0.80282  0.37197  0.15584  1.0000
  C   C76       1.0  0.19718  0.62803  0.84416  1.0000
  C   C77       1.0  0.35430  0.33998  0.10910  1.0000
  C   C78       1.0  0.64570  0.66003  0.89090  1.0000
  N   N1        1.0  0.83839  0.07814  0.37331  1.0000
  N   N2        1.0  0.16161  0.92186  0.62669  1.0000
  N   N3        1.0  0.88096  0.03088  0.20459  1.0000
  N   N4        1.0  0.11905  0.96912  0.79541  1.0000
  N   N5        1.0  0.55919  0.31436  0.99348  1.0000
  N   N6        1.0  0.44081  0.68564  0.00652  1.0000
  N   N7        1.0  0.84069  0.31571  0.92819  1.0000
  N   N8        1.0  0.15932  0.68429  0.07181  1.0000
  Cl  Cl1       1.0  0.26439  0.00113  0.13134  1.0000
  Cl  Cl2       1.0  0.73561  0.99887  0.86865  1.0000
  O   O1        1.0  0.14461  0.13632  0.35559  1.0000
  O   O2        1.0  0.85539  0.86368  0.64441  1.0000
  O   O3        1.0  0.06048  0.28236  0.25624  1.0000
  O   O4        1.0  0.93953  0.71764  0.74376  1.0000
  O   O5        1.0  0.58449  0.35342  0.75565  1.0000
  O   O6        1.0  0.41551  0.64658  0.24436  1.0000
  O   O7        1.0  0.10180  0.83439  0.37877  1.0000
  O   O8        1.0  0.89819  0.16562  0.62122  1.0000
  O   O9        1.0  0.41446  0.24819  0.83874  1.0000
  O   O10       1.0  0.58554  0.75181  0.16127  1.0000
  O   O11       1.0  0.10107  0.76623  0.25398  1.0000
  O   O12       1.0  0.89893  0.23376  0.74602  1.0000
