data_image0
_chemical_formula_structural       Cd2H26C40N2O14
_chemical_formula_sum              "Cd2 H26 C40 N2 O14"
_cell_length_a       6.56397
_cell_length_b       9.8736
_cell_length_c       13.61
_cell_angle_alpha    95.6731
_cell_angle_beta     99.5971
_cell_angle_gamma    90.5517

_space_group_name_H-M_alt    "P 1"
_space_group_IT_number       1

loop_
  _space_group_symop_operation_xyz
  'x, y, z'

loop_
  _atom_site_type_symbol
  _atom_site_label
  _atom_site_symmetry_multiplicity
  _atom_site_fract_x
  _atom_site_fract_y
  _atom_site_fract_z
  _atom_site_occupancy
  Cd  Cd1       1.0  0.21734  0.47449  0.60121  1.0000
  Cd  Cd2       1.0  0.78261  0.52554  0.39879  1.0000
  H   H1        1.0  0.21688  0.99623  0.58095  1.0000
  H   H2        1.0  0.78311  0.00381  0.41905  1.0000
  H   H3        1.0  0.60005  0.60409  0.64789  1.0000
  H   H4        1.0  0.39993  0.39591  0.35209  1.0000
  H   H5        1.0  0.50811  0.62220  0.74941  1.0000
  H   H6        1.0  0.49193  0.37778  0.25059  1.0000
  H   H7        1.0  0.22364  0.03633  0.97428  1.0000
  H   H8        1.0  0.77645  0.96365  0.02572  1.0000
  H   H9        1.0  0.96179  0.66131  0.73709  1.0000
  H   H10       1.0  0.03822  0.33872  0.26293  1.0000
  H   H11       1.0  0.17617  0.30055  0.95292  1.0000
  H   H12       1.0  0.82379  0.69945  0.04709  1.0000
  H   H13       1.0  0.39342  0.68215  0.20879  1.0000
  H   H14       1.0  0.60656  0.31784  0.79122  1.0000
  H   H15       1.0  0.17991  0.08511  0.15231  1.0000
  H   H16       1.0  0.82019  0.91489  0.84767  1.0000
  H   H17       1.0  0.43284  0.63614  0.03072  1.0000
  H   H18       1.0  0.56714  0.36383  0.96930  1.0000
  H   H19       1.0  0.31975  0.13826  0.30434  1.0000
  H   H20       1.0  0.68023  0.86175  0.69565  1.0000
  H   H21       1.0  0.23107  0.70662  0.32659  1.0000
  H   H22       1.0  0.76891  0.29339  0.67342  1.0000
  H   H23       1.0  0.86784  0.68109  0.90651  1.0000
  H   H24       1.0  0.13220  0.31894  0.09352  1.0000
  H   H25       1.0  0.23437  0.29037  0.77723  1.0000
  H   H26       1.0  0.76559  0.70963  0.22278  1.0000
  C   C1        1.0  0.28463  0.22503  0.49610  1.0000
  C   C2        1.0  0.71533  0.77497  0.50388  1.0000
  C   C3        1.0  0.26812  0.08214  0.44628  1.0000
  C   C4        1.0  0.73190  0.91788  0.55371  1.0000
  C   C5        1.0  0.22989  0.97487  0.50225  1.0000
  C   C6        1.0  0.77008  0.02515  0.49774  1.0000
  C   C7        1.0  0.18664  0.72618  0.51870  1.0000
  C   C8        1.0  0.81331  0.27383  0.48130  1.0000
  C   C9        1.0  0.27268  0.91906  0.30004  1.0000
  C   C10       1.0  0.72731  0.08093  0.69995  1.0000
  C   C11       1.0  0.21606  0.84017  0.45767  1.0000
  C   C12       1.0  0.78388  0.15984  0.54232  1.0000
  C   C13       1.0  0.01976  0.49446  0.94785  1.0000
  C   C14       1.0  0.98024  0.50554  0.05217  1.0000
  C   C15       1.0  0.24054  0.81246  0.35834  1.0000
  C   C16       1.0  0.75941  0.18755  0.64165  1.0000
  C   C17       1.0  0.28942  0.88923  0.19469  1.0000
  C   C18       1.0  0.71059  0.11077  0.80532  1.0000
  C   C19       1.0  0.33701  0.83521  0.99250  1.0000
  C   C20       1.0  0.66305  0.16476  0.00750  1.0000
  C   C21       1.0  0.35571  0.76034  0.15792  1.0000
  C   C22       1.0  0.64427  0.23965  0.84209  1.0000
  C   C23       1.0  0.28669  0.05438  0.34603  1.0000
  C   C24       1.0  0.71329  0.94563  0.65397  1.0000
  C   C25       1.0  0.23991  0.98807  0.12656  1.0000
  C   C26       1.0  0.76014  0.01192  0.87344  1.0000
  C   C27       1.0  0.26290  0.96130  0.02741  1.0000
  C   C28       1.0  0.73717  0.03867  0.97259  1.0000
  C   C29       1.0  0.95573  0.59425  0.88365  1.0000
  C   C30       1.0  0.04430  0.40576  0.11637  1.0000
  C   C31       1.0  0.37890  0.73416  0.05872  1.0000
  C   C32       1.0  0.62108  0.26582  0.94129  1.0000
  C   C33       1.0  0.36197  0.80738  0.88482  1.0000
  C   C34       1.0  0.63812  0.19257  0.11518  1.0000
  C   C35       1.0  0.00186  0.58264  0.78718  1.0000
  C   C36       1.0  0.99814  0.41739  0.21283  1.0000
  C   C37       1.0  0.12244  0.38272  0.90834  1.0000
  C   C38       1.0  0.87755  0.61727  0.09168  1.0000
  C   C39       1.0  0.15830  0.37669  0.81050  1.0000
  C   C40       1.0  0.84168  0.62333  0.18951  1.0000
  N   N1        1.0  0.10252  0.47614  0.75133  1.0000
  N   N2        1.0  0.89746  0.52388  0.24868  1.0000
  O   O1        1.0  0.30812  0.32423  0.44620  1.0000
  O   O2        1.0  0.69179  0.67576  0.55376  1.0000
  O   O3        1.0  0.26599  0.24144  0.58877  1.0000
  O   O4        1.0  0.73398  0.75859  0.41120  1.0000
  O   O5        1.0  0.15206  0.60498  0.47180  1.0000
  O   O6        1.0  0.84792  0.39504  0.52820  1.0000
  O   O7        1.0  0.53454  0.55303  0.69445  1.0000
  O   O8        1.0  0.46546  0.44696  0.30553  1.0000
  O   O9        1.0  0.20142  0.74838  0.61194  1.0000
  O   O10       1.0  0.79856  0.25166  0.38805  1.0000
  O   O11       1.0  0.49807  0.72400  0.86245  1.0000
  O   O12       1.0  0.50199  0.27594  0.13755  1.0000
  O   O13       1.0  0.23900  0.86799  0.82318  1.0000
  O   O14       1.0  0.76109  0.13195  0.17682  1.0000
