data_image0
_chemical_formula_structural       Cd3H28C36N2O14
_chemical_formula_sum              "Cd3 H28 C36 N2 O14"
_cell_length_a       7.63011
_cell_length_b       10.1962
_cell_length_c       13.5976
_cell_angle_alpha    68.4501
_cell_angle_beta     80.716
_cell_angle_gamma    71.1243

_space_group_name_H-M_alt    "P 1"
_space_group_IT_number       1

loop_
  _space_group_symop_operation_xyz
  'x, y, z'

loop_
  _atom_site_type_symbol
  _atom_site_label
  _atom_site_symmetry_multiplicity
  _atom_site_fract_x
  _atom_site_fract_y
  _atom_site_fract_z
  _atom_site_occupancy
  Cd  Cd1       1.0  0.17156  0.34689  0.45479  1.0000
  Cd  Cd2       1.0  0.82844  0.65311  0.54521  1.0000
  Cd  Cd3       1.0  0.50000  1.00000  0.50000  1.0000
  H   H1        1.0  0.14401  0.86682  0.45220  1.0000
  H   H2        1.0  0.85599  0.13318  0.54781  1.0000
  H   H3        1.0  0.21010  0.76259  0.16778  1.0000
  H   H4        1.0  0.78990  0.23741  0.83222  1.0000
  H   H5        1.0  0.16422  0.20377  0.15028  1.0000
  H   H6        1.0  0.83578  0.79624  0.84972  1.0000
  H   H7        1.0  0.41214  0.81581  0.03601  1.0000
  H   H8        1.0  0.58786  0.18419  0.96399  1.0000
  H   H9        1.0  0.46554  0.87769  0.84160  1.0000
  H   H10       1.0  0.53447  0.12231  0.15840  1.0000
  H   H11       1.0  0.10028  0.31375  0.79492  1.0000
  H   H12       1.0  0.89972  0.68625  0.20508  1.0000
  H   H13       1.0  0.04370  0.25281  0.98933  1.0000
  H   H14       1.0  0.95630  0.74719  0.01067  1.0000
  H   H15       1.0  0.39010  0.79384  0.72419  1.0000
  H   H16       1.0  0.60991  0.20616  0.27581  1.0000
  H   H17       1.0  0.27414  0.65693  0.86363  1.0000
  H   H18       1.0  0.72586  0.34306  0.13637  1.0000
  H   H19       1.0  0.34866  0.46335  0.88402  1.0000
  H   H20       1.0  0.65134  0.53664  0.11598  1.0000
  H   H21       1.0  0.12688  0.57487  0.83059  1.0000
  H   H22       1.0  0.87312  0.42512  0.16941  1.0000
  H   H23       1.0  0.42660  0.53353  0.59374  1.0000
  H   H24       1.0  0.57340  0.46647  0.40627  1.0000
  H   H25       1.0  0.22530  0.49353  0.66904  1.0000
  H   H26       1.0  0.77470  0.50647  0.33096  1.0000
  H   H27       1.0  0.44925  0.38737  0.71916  1.0000
  H   H28       1.0  0.55075  0.61263  0.28084  1.0000
  C   C1        1.0  0.15113  0.04654  0.30566  1.0000
  C   C2        1.0  0.84887  0.95346  0.69435  1.0000
  C   C3        1.0  0.15498  0.90106  0.36625  1.0000
  C   C4        1.0  0.84501  0.09894  0.63375  1.0000
  C   C5        1.0  0.17291  0.80022  0.31531  1.0000
  C   C6        1.0  0.82709  0.19978  0.68470  1.0000
  C   C7        1.0  0.19450  0.84396  0.20495  1.0000
  C   C8        1.0  0.80550  0.15604  0.79505  1.0000
  C   C9        1.0  0.19103  0.98892  0.14305  1.0000
  C   C10       1.0  0.80897  0.01109  0.85695  1.0000
  C   C11       1.0  0.16476  0.09035  0.19496  1.0000
  C   C12       1.0  0.83523  0.90965  0.80504  1.0000
  C   C13       1.0  0.22200  0.02912  0.02708  1.0000
  C   C14       1.0  0.77800  0.97088  0.97292  1.0000
  C   C15       1.0  0.34005  0.92427  0.98341  1.0000
  C   C16       1.0  0.65995  0.07573  0.01659  1.0000
  C   C17       1.0  0.37147  0.95869  0.87467  1.0000
  C   C18       1.0  0.62853  0.04131  0.12532  1.0000
  C   C19       1.0  0.28654  0.09925  0.80544  1.0000
  C   C20       1.0  0.71346  0.90075  0.19455  1.0000
  C   C21       1.0  0.17042  0.20530  0.84816  1.0000
  C   C22       1.0  0.82958  0.79470  0.15184  1.0000
  C   C23       1.0  0.13887  0.17046  0.95742  1.0000
  C   C24       1.0  0.86113  0.82954  0.04258  1.0000
  C   C25       1.0  0.14502  0.15490  0.35699  1.0000
  C   C26       1.0  0.85498  0.84511  0.64301  1.0000
  C   C27       1.0  0.16816  0.64580  0.37591  1.0000
  C   C28       1.0  0.83184  0.35420  0.62409  1.0000
  C   C29       1.0  0.31672  0.13105  0.68798  1.0000
  C   C30       1.0  0.68328  0.86895  0.31202  1.0000
  C   C31       1.0  0.41270  0.72025  0.67807  1.0000
  C   C32       1.0  0.58731  0.27974  0.32193  1.0000
  C   C33       1.0  0.27138  0.57238  0.83263  1.0000
  C   C34       1.0  0.72862  0.42762  0.16737  1.0000
  C   C35       1.0  0.36530  0.49733  0.67375  1.0000
  C   C36       1.0  0.63470  0.50267  0.32625  1.0000
  N   N1        1.0  0.35557  0.60130  0.72585  1.0000
  N   N2        1.0  0.64443  0.39869  0.27415  1.0000
  O   O1        1.0  0.10011  0.29121  0.30522  1.0000
  O   O2        1.0  0.89990  0.70879  0.69479  1.0000
  O   O3        1.0  0.19043  0.10495  0.45482  1.0000
  O   O4        1.0  0.80957  0.89504  0.54518  1.0000
  O   O5        1.0  0.13073  0.60656  0.47595  1.0000
  O   O6        1.0  0.86927  0.39345  0.52406  1.0000
  O   O7        1.0  0.20490  0.55579  0.32532  1.0000
  O   O8        1.0  0.79510  0.44421  0.67468  1.0000
  O   O9        1.0  0.41639  0.02286  0.65901  1.0000
  O   O10       1.0  0.58361  0.97714  0.34099  1.0000
  O   O11       1.0  0.24096  0.26046  0.62745  1.0000
  O   O12       1.0  0.75904  0.73954  0.37255  1.0000
  O   O13       1.0  0.48643  0.75315  0.58492  1.0000
  O   O14       1.0  0.51357  0.24685  0.41508  1.0000
