data_image0
_chemical_formula_structural       Zn4H36C42N4Cl4O8
_chemical_formula_sum              "Zn4 H36 C42 N4 Cl4 O8"
_cell_length_a       7.30018
_cell_length_b       7.16838
_cell_length_c       20.6406
_cell_angle_alpha    89.9996
_cell_angle_beta     98.5502
_cell_angle_gamma    89.9992

_space_group_name_H-M_alt    "P 1"
_space_group_IT_number       1

loop_
  _space_group_symop_operation_xyz
  'x, y, z'

loop_
  _atom_site_type_symbol
  _atom_site_label
  _atom_site_symmetry_multiplicity
  _atom_site_fract_x
  _atom_site_fract_y
  _atom_site_fract_z
  _atom_site_occupancy
  Zn  Zn1       1.0  0.12217  0.94158  0.07895  1.0000
  Zn  Zn2       1.0  0.87782  0.94158  0.42105  1.0000
  Zn  Zn3       1.0  0.87784  0.05843  0.92105  1.0000
  Zn  Zn4       1.0  0.12216  0.05842  0.57895  1.0000
  H   H1        1.0  0.22387  0.54352  0.11723  1.0000
  H   H2        1.0  0.77613  0.54353  0.38276  1.0000
  H   H3        1.0  0.77613  0.45649  0.88277  1.0000
  H   H4        1.0  0.22387  0.45648  0.61724  1.0000
  H   H5        1.0  0.50494  0.38006  0.17265  1.0000
  H   H6        1.0  0.49506  0.38007  0.32735  1.0000
  H   H7        1.0  0.49506  0.61994  0.82736  1.0000
  H   H8        1.0  0.50495  0.61992  0.67265  1.0000
  H   H9        1.0  0.77749  0.91666  0.19745  1.0000
  H   H10       1.0  0.22251  0.91667  0.30255  1.0000
  H   H11       1.0  0.22253  0.08333  0.80256  1.0000
  H   H12       1.0  0.77748  0.08331  0.69745  1.0000
  H   H13       1.0  0.48552  0.05794  0.14170  1.0000
  H   H14       1.0  0.51447  0.05794  0.35830  1.0000
  H   H15       1.0  0.51450  0.94206  0.85830  1.0000
  H   H16       1.0  0.48551  0.94205  0.64170  1.0000
  H   H17       1.0  0.88243  0.44329  0.18153  1.0000
  H   H18       1.0  0.11757  0.44329  0.31847  1.0000
  H   H19       1.0  0.11756  0.55671  0.81846  1.0000
  H   H20       1.0  0.88244  0.55669  0.68153  1.0000
  H   H21       1.0  0.80119  0.43321  0.25660  1.0000
  H   H22       1.0  0.19881  0.43322  0.24340  1.0000
  H   H23       1.0  0.19881  0.56677  0.74339  1.0000
  H   H24       1.0  0.80120  0.56676  0.75661  1.0000
  H   H25       1.0  0.95670  0.74600  0.28764  1.0000
  H   H26       1.0  0.04328  0.74601  0.21235  1.0000
  H   H27       1.0  0.04330  0.25397  0.71236  1.0000
  H   H28       1.0  0.95671  0.25398  0.78765  1.0000
  H   H29       1.0  0.43093  0.82972  0.96821  1.0000
  H   H30       1.0  0.56908  0.82973  0.53179  1.0000
  H   H31       1.0  0.56908  0.17029  0.03179  1.0000
  H   H32       1.0  0.43092  0.17030  0.46821  1.0000
  H   H33       1.0  0.81922  0.40775  0.04958  1.0000
  H   H34       1.0  0.18079  0.40777  0.45042  1.0000
  H   H35       1.0  0.18079  0.59224  0.95041  1.0000
  H   H36       1.0  0.81921  0.59225  0.54959  1.0000
  C   C1        1.0  0.34950  0.62045  0.13596  1.0000
  C   C2        1.0  0.65051  0.62046  0.36404  1.0000
  C   C3        1.0  0.65050  0.37956  0.86404  1.0000
  C   C4        1.0  0.34949  0.37955  0.63596  1.0000
  C   C5        1.0  0.50666  0.53114  0.16676  1.0000
  C   C6        1.0  0.49332  0.53115  0.33324  1.0000
  C   C7        1.0  0.49334  0.46886  0.83324  1.0000
  C   C8        1.0  0.50668  0.46885  0.66676  1.0000
  C   C9        1.0  0.66721  0.63341  0.18968  1.0000
  C   C10       1.0  0.33279  0.63342  0.31032  1.0000
  C   C11       1.0  0.33279  0.36658  0.81032  1.0000
  C   C12       1.0  0.66720  0.36657  0.68968  1.0000
  C   C13       1.0  0.65888  0.82730  0.18108  1.0000
  C   C14       1.0  0.34110  0.82731  0.31891  1.0000
  C   C15       1.0  0.34113  0.17269  0.81892  1.0000
  C   C16       1.0  0.65889  0.17268  0.68109  1.0000
  C   C17       1.0  0.49650  0.90780  0.14990  1.0000
  C   C18       1.0  0.50351  0.90780  0.35010  1.0000
  C   C19       1.0  0.50351  0.09221  0.85011  1.0000
  C   C20       1.0  0.49648  0.09219  0.64990  1.0000
  C   C21       1.0  0.83813  0.53267  0.21989  1.0000
  C   C22       1.0  0.16186  0.53268  0.28011  1.0000
  C   C23       1.0  0.16187  0.46731  0.78011  1.0000
  C   C24       1.0  0.83814  0.46730  0.71989  1.0000
  C   C25       1.0  0.99999  0.65378  0.25000  1.0000
  C   C26       1.0  0.00000  0.34621  0.75000  1.0000
  C   C27       1.0  0.79069  0.77785  0.01870  1.0000
  C   C28       1.0  0.20931  0.77785  0.48129  1.0000
  C   C29       1.0  0.20932  0.22216  0.98129  1.0000
  C   C30       1.0  0.79068  0.22216  0.51871  1.0000
  C   C31       1.0  0.64116  0.63405  0.00949  1.0000
  C   C32       1.0  0.35884  0.63406  0.49051  1.0000
  C   C33       1.0  0.35885  0.36595  0.99051  1.0000
  C   C34       1.0  0.64115  0.36596  0.50949  1.0000
  C   C35       1.0  0.46107  0.68474  0.98138  1.0000
  C   C36       1.0  0.53894  0.68475  0.51862  1.0000
  C   C37       1.0  0.53894  0.31526  0.01862  1.0000
  C   C38       1.0  0.46106  0.31527  0.48138  1.0000
  C   C39       1.0  0.67946  0.44808  0.02805  1.0000
  C   C40       1.0  0.32054  0.44810  0.47195  1.0000
  C   C41       1.0  0.32055  0.55191  0.97195  1.0000
  C   C42       1.0  0.67945  0.55193  0.52805  1.0000
  N   N1        1.0  0.34463  0.80716  0.12734  1.0000
  N   N2        1.0  0.65535  0.80717  0.37266  1.0000
  N   N3        1.0  0.65537  0.19285  0.87266  1.0000
  N   N4        1.0  0.34464  0.19283  0.62734  1.0000
  Cl  Cl1       1.0  0.04390  0.17262  0.14070  1.0000
  Cl  Cl2       1.0  0.95610  0.17262  0.35931  1.0000
  Cl  Cl3       1.0  0.95611  0.82739  0.85930  1.0000
  Cl  Cl4       1.0  0.04389  0.82738  0.64070  1.0000
  O   O1        1.0  0.94490  0.73521  0.05366  1.0000
  O   O2        1.0  0.05509  0.73521  0.44634  1.0000
  O   O3        1.0  0.05510  0.26480  0.94634  1.0000
  O   O4        1.0  0.94490  0.26479  0.55366  1.0000
  O   O5        1.0  0.75729  0.93729  0.99191  1.0000
  O   O6        1.0  0.24270  0.93730  0.50808  1.0000
  O   O7        1.0  0.24272  0.06272  0.00809  1.0000
  O   O8        1.0  0.75728  0.06272  0.49191  1.0000
