data_image0
_chemical_formula_structural       Cd2H48C40S4N16
_chemical_formula_sum              "Cd2 H48 C40 S4 N16"
_cell_length_a       9.10244
_cell_length_b       10.8223
_cell_length_c       12.3305
_cell_angle_alpha    89.9999
_cell_angle_beta     90
_cell_angle_gamma    108.612

_space_group_name_H-M_alt    "P 1"
_space_group_IT_number       1

loop_
  _space_group_symop_operation_xyz
  'x, y, z'

loop_
  _atom_site_type_symbol
  _atom_site_label
  _atom_site_symmetry_multiplicity
  _atom_site_fract_x
  _atom_site_fract_y
  _atom_site_fract_z
  _atom_site_occupancy
  Cd  Cd1       1.0  0.81668  0.74964  0.67782  1.0000
  Cd  Cd2       1.0  0.18332  0.25036  0.17782  1.0000
  H   H1        1.0  0.62963  0.55671  0.87562  1.0000
  H   H2        1.0  0.37037  0.44329  0.37562  1.0000
  H   H3        1.0  0.13586  0.43958  0.82244  1.0000
  H   H4        1.0  0.86414  0.56042  0.32244  1.0000
  H   H5        1.0  0.18851  0.58759  0.66116  1.0000
  H   H6        1.0  0.81148  0.41241  0.16117  1.0000
  H   H7        1.0  0.46362  0.71932  0.61872  1.0000
  H   H8        1.0  0.53638  0.28068  0.11872  1.0000
  H   H9        1.0  0.31662  0.29557  0.93024  1.0000
  H   H10       1.0  0.68338  0.70443  0.43024  1.0000
  H   H11       1.0  0.46675  0.41128  1.00000  1.0000
  H   H12       1.0  0.53325  0.58872  0.50000  1.0000
  H   H13       1.0  0.13825  0.40358  0.00401  1.0000
  H   H14       1.0  0.86175  0.59642  0.50401  1.0000
  H   H15       1.0  0.28046  0.50208  0.07690  1.0000
  H   H16       1.0  0.71954  0.49792  0.57690  1.0000
  H   H17       1.0  0.97531  0.89721  0.45333  1.0000
  H   H18       1.0  0.02469  0.10279  0.95333  1.0000
  H   H19       1.0  0.47330  0.02979  0.48371  1.0000
  H   H20       1.0  0.52669  0.97021  0.98371  1.0000
  H   H21       1.0  0.44058  0.91770  0.66364  1.0000
  H   H22       1.0  0.55942  0.08230  0.16364  1.0000
  H   H23       1.0  0.17056  0.80158  0.73103  1.0000
  H   H24       1.0  0.82944  0.19842  0.23103  1.0000
  H   H25       1.0  0.35433  0.12151  0.34621  1.0000
  H   H26       1.0  0.64567  0.87849  0.84621  1.0000
  H   H27       1.0  0.25450  0.97522  0.27938  1.0000
  H   H28       1.0  0.74550  0.02478  0.77939  1.0000
  H   H29       1.0  0.08300  0.13424  0.38042  1.0000
  H   H30       1.0  0.91700  0.86576  0.88042  1.0000
  H   H31       1.0  0.02160  0.01435  0.29088  1.0000
  H   H32       1.0  0.97840  0.98565  0.79088  1.0000
  H   H33       1.0  0.68944  0.90110  0.32102  1.0000
  H   H34       1.0  0.31057  0.09890  0.82102  1.0000
  H   H35       1.0  0.53672  0.63574  0.05386  1.0000
  H   H36       1.0  0.46328  0.36426  0.55386  1.0000
  H   H37       1.0  0.81880  0.66351  0.01620  1.0000
  H   H38       1.0  0.18119  0.33648  0.51621  1.0000
  H   H39       1.0  0.02007  0.81051  0.13523  1.0000
  H   H40       1.0  0.97992  0.18949  0.63524  1.0000
  H   H41       1.0  0.40176  0.70550  0.30497  1.0000
  H   H42       1.0  0.59824  0.29450  0.80496  1.0000
  H   H43       1.0  0.41984  0.85075  0.23505  1.0000
  H   H44       1.0  0.58016  0.14925  0.73505  1.0000
  H   H45       1.0  0.20506  0.63906  0.19061  1.0000
  H   H46       1.0  0.79494  0.36094  0.69061  1.0000
  H   H47       1.0  0.28963  0.72969  0.08730  1.0000
  H   H48       1.0  0.71037  0.27031  0.58730  1.0000
  C   C1        1.0  0.89734  0.53085  0.85239  1.0000
  C   C2        1.0  0.10266  0.46914  0.35238  1.0000
  C   C3        1.0  0.74619  0.99212  0.52447  1.0000
  C   C4        1.0  0.25382  0.00788  0.02446  1.0000
  C   C5        1.0  0.52814  0.56278  0.83153  1.0000
  C   C6        1.0  0.47186  0.43722  0.33153  1.0000
  C   C7        1.0  0.37915  0.48782  0.86345  1.0000
  C   C8        1.0  0.62085  0.51218  0.36345  1.0000
  C   C9        1.0  0.25443  0.49726  0.80140  1.0000
  C   C10       1.0  0.74557  0.50274  0.30140  1.0000
  C   C11       1.0  0.28280  0.58012  0.71223  1.0000
  C   C12       1.0  0.71720  0.41988  0.21223  1.0000
  C   C13       1.0  0.43537  0.65209  0.68722  1.0000
  C   C14       1.0  0.56463  0.34791  0.18722  1.0000
  C   C15       1.0  0.35520  0.39696  0.95924  1.0000
  C   C16       1.0  0.64480  0.60304  0.45924  1.0000
  C   C17       1.0  0.08180  0.90338  0.49682  1.0000
  C   C18       1.0  0.91820  0.09662  0.99682  1.0000
  C   C19       1.0  0.22661  0.97116  0.45296  1.0000
  C   C20       1.0  0.77339  0.02884  0.95296  1.0000
  C   C21       1.0  0.35774  0.97570  0.51401  1.0000
  C   C22       1.0  0.64226  0.02430  0.01401  1.0000
  C   C23       1.0  0.33999  0.91392  0.61435  1.0000
  C   C24       1.0  0.66001  0.08608  0.11435  1.0000
  C   C25       1.0  0.19110  0.84944  0.65206  1.0000
  C   C26       1.0  0.80890  0.15056  0.15206  1.0000
  C   C27       1.0  0.24414  0.04074  0.34526  1.0000
  C   C28       1.0  0.75586  0.95925  0.84526  1.0000
  C   C29       1.0  0.71293  0.84394  0.25383  1.0000
  C   C30       1.0  0.28708  0.15606  0.75383  1.0000
  C   C31       1.0  0.59013  0.76260  0.19254  1.0000
  C   C32       1.0  0.40986  0.23740  0.69254  1.0000
  C   C33       1.0  0.62865  0.69774  0.10473  1.0000
  C   C34       1.0  0.37134  0.30225  0.60473  1.0000
  C   C35       1.0  0.78435  0.71396  0.08329  1.0000
  C   C36       1.0  0.21564  0.28603  0.58329  1.0000
  C   C37       1.0  0.89738  0.79513  0.15051  1.0000
  C   C38       1.0  0.10262  0.20486  0.65051  1.0000
  C   C39       1.0  0.42604  0.75091  0.22410  1.0000
  C   C40       1.0  0.57396  0.24909  0.72410  1.0000
  S   S1        1.0  0.86685  0.40577  0.93249  1.0000
  S   S2        1.0  0.13315  0.59423  0.43249  1.0000
  S   S3        1.0  0.78301  0.12627  0.45476  1.0000
  S   S4        1.0  0.21700  0.87373  0.95476  1.0000
  N   N1        1.0  0.91874  0.62142  0.79283  1.0000
  N   N2        1.0  0.08126  0.37858  0.29283  1.0000
  N   N3        1.0  0.71789  0.89301  0.57418  1.0000
  N   N4        1.0  0.28211  0.10700  0.07417  1.0000
  N   N5        1.0  0.55645  0.64354  0.74568  1.0000
  N   N6        1.0  0.44355  0.35647  0.24568  1.0000
  N   N7        1.0  0.24245  0.41081  0.04014  1.0000
  N   N8        1.0  0.75755  0.58919  0.54014  1.0000
  N   N9        1.0  0.06443  0.84447  0.59411  1.0000
  N   N10       1.0  0.93557  0.15553  0.09411  1.0000
  N   N11       1.0  0.11758  0.09098  0.31562  1.0000
  N   N12       1.0  0.88242  0.90902  0.81562  1.0000
  N   N13       1.0  0.86278  0.86028  0.23457  1.0000
  N   N14       1.0  0.13723  0.13972  0.73457  1.0000
  N   N15       1.0  0.30756  0.67268  0.14937  1.0000
  N   N16       1.0  0.69244  0.32732  0.64937  1.0000
