data_image0
_chemical_formula_structural       Zn2H32C28S4N12
_chemical_formula_sum              "Zn2 H32 C28 S4 N12"
_cell_length_a       8.01254
_cell_length_b       8.78272
_cell_length_c       12.0736
_cell_angle_alpha    89.9999
_cell_angle_beta     90.0003
_cell_angle_gamma    99.7929

_space_group_name_H-M_alt    "P 1"
_space_group_IT_number       1

loop_
  _space_group_symop_operation_xyz
  'x, y, z'

loop_
  _atom_site_type_symbol
  _atom_site_label
  _atom_site_symmetry_multiplicity
  _atom_site_fract_x
  _atom_site_fract_y
  _atom_site_fract_z
  _atom_site_occupancy
  Zn  Zn1       1.0  0.00000  0.00000  0.50000  1.0000
  Zn  Zn2       1.0  0.50000  0.50000  0.00000  1.0000
  H   H1        1.0  0.96503  0.66603  0.60212  1.0000
  H   H2        1.0  0.53497  0.83397  0.10212  1.0000
  H   H3        1.0  0.03497  0.33397  0.39788  1.0000
  H   H4        1.0  0.46503  0.16603  0.89788  1.0000
  H   H5        1.0  0.79601  0.40258  0.57806  1.0000
  H   H6        1.0  0.70398  0.09742  0.07806  1.0000
  H   H7        1.0  0.20398  0.59742  0.42194  1.0000
  H   H8        1.0  0.29601  0.90258  0.92194  1.0000
  H   H9        1.0  0.58939  0.35496  0.41960  1.0000
  H   H10       1.0  0.91060  0.14504  0.91960  1.0000
  H   H11       1.0  0.41060  0.64505  0.58040  1.0000
  H   H12       1.0  0.08939  0.85496  0.08040  1.0000
  H   H13       1.0  0.72959  0.83534  0.33465  1.0000
  H   H14       1.0  0.77041  0.66466  0.83465  1.0000
  H   H15       1.0  0.27041  0.16466  0.66535  1.0000
  H   H16       1.0  0.22959  0.33534  0.16535  1.0000
  H   H17       1.0  0.41267  0.49628  0.28404  1.0000
  H   H18       1.0  0.08733  0.00371  0.78404  1.0000
  H   H19       1.0  0.58733  0.50371  0.71596  1.0000
  H   H20       1.0  0.91267  0.99629  0.21596  1.0000
  H   H21       1.0  0.50484  0.68064  0.23564  1.0000
  H   H22       1.0  0.99515  0.81935  0.73564  1.0000
  H   H23       1.0  0.49516  0.31935  0.76436  1.0000
  H   H24       1.0  0.00485  0.18065  0.26436  1.0000
  H   H25       1.0  0.60735  0.38095  0.18629  1.0000
  H   H26       1.0  0.89265  0.11905  0.68629  1.0000
  H   H27       1.0  0.39265  0.61904  0.81371  1.0000
  H   H28       1.0  0.10735  0.88095  0.31371  1.0000
  H   H29       1.0  0.73196  0.54329  0.15742  1.0000
  H   H30       1.0  0.76804  0.95671  0.65742  1.0000
  H   H31       1.0  0.26804  0.45671  0.84258  1.0000
  H   H32       1.0  0.23197  0.04329  0.34258  1.0000
  C   C1        1.0  0.68034  0.10028  0.37560  1.0000
  C   C2        1.0  0.81966  0.39973  0.87562  1.0000
  C   C3        1.0  0.31967  0.89972  0.62441  1.0000
  C   C4        1.0  0.18035  0.60027  0.12439  1.0000
  C   C5        1.0  0.87065  0.64278  0.53656  1.0000
  C   C6        1.0  0.62935  0.85722  0.03655  1.0000
  C   C7        1.0  0.12935  0.35722  0.46344  1.0000
  C   C8        1.0  0.37065  0.14278  0.96344  1.0000
  C   C9        1.0  0.77780  0.49504  0.52151  1.0000
  C   C10       1.0  0.72220  0.00496  0.02151  1.0000
  C   C11       1.0  0.22220  0.50496  0.47849  1.0000
  C   C12       1.0  0.27780  0.99504  0.97849  1.0000
  C   C13       1.0  0.66435  0.46908  0.43366  1.0000
  C   C14       1.0  0.83564  0.03092  0.93366  1.0000
  C   C15       1.0  0.33564  0.53093  0.56634  1.0000
  C   C16       1.0  0.16435  0.96908  0.06634  1.0000
  C   C17       1.0  0.64772  0.59102  0.36218  1.0000
  C   C18       1.0  0.85228  0.90898  0.86218  1.0000
  C   C19       1.0  0.35228  0.40899  0.63782  1.0000
  C   C20       1.0  0.14772  0.09102  0.13782  1.0000
  C   C21       1.0  0.74268  0.73578  0.38582  1.0000
  C   C22       1.0  0.75732  0.76422  0.88582  1.0000
  C   C23       1.0  0.25733  0.26422  0.61418  1.0000
  C   C24       1.0  0.24268  0.23578  0.11418  1.0000
  C   C25       1.0  0.53381  0.56864  0.26222  1.0000
  C   C26       1.0  0.96619  0.93136  0.76222  1.0000
  C   C27       1.0  0.46620  0.43136  0.73778  1.0000
  C   C28       1.0  0.03381  0.06864  0.23778  1.0000
  S   S1        1.0  0.53412  0.10304  0.28254  1.0000
  S   S2        1.0  0.96588  0.39697  0.78255  1.0000
  S   S3        1.0  0.46589  0.89696  0.71746  1.0000
  S   S4        1.0  0.03412  0.60303  0.21746  1.0000
  N   N1        1.0  0.78889  0.09879  0.44240  1.0000
  N   N2        1.0  0.71113  0.40121  0.94241  1.0000
  N   N3        1.0  0.21112  0.90121  0.55760  1.0000
  N   N4        1.0  0.28887  0.59879  0.05760  1.0000
  N   N5        1.0  0.85197  0.76247  0.47097  1.0000
  N   N6        1.0  0.64803  0.73753  0.97097  1.0000
  N   N7        1.0  0.14803  0.23753  0.52902  1.0000
  N   N8        1.0  0.35197  0.26247  0.02902  1.0000
  N   N9        1.0  0.60649  0.49502  0.16734  1.0000
  N   N10       1.0  0.89352  0.00498  0.66734  1.0000
  N   N11       1.0  0.39352  0.50498  0.83266  1.0000
  N   N12       1.0  0.10649  0.99502  0.33266  1.0000
