data_image0
_chemical_formula_structural       Cd2H32C28S4N12
_chemical_formula_sum              "Cd2 H32 C28 S4 N12"
_cell_length_a       7.99293
_cell_length_b       8.88647
_cell_length_c       12.547
_cell_angle_alpha    90.0005
_cell_angle_beta     89.9994
_cell_angle_gamma    98.6925

_space_group_name_H-M_alt    "P 1"
_space_group_IT_number       1

loop_
  _space_group_symop_operation_xyz
  'x, y, z'

loop_
  _atom_site_type_symbol
  _atom_site_label
  _atom_site_symmetry_multiplicity
  _atom_site_fract_x
  _atom_site_fract_y
  _atom_site_fract_z
  _atom_site_occupancy
  Cd  Cd1       1.0  0.99999  0.00000  0.50000  1.0000
  Cd  Cd2       1.0  0.50000  0.50000  1.00000  1.0000
  H   H1        1.0  0.94806  0.65105  0.60029  1.0000
  H   H2        1.0  0.55194  0.84895  0.10029  1.0000
  H   H3        1.0  0.05194  0.34896  0.39971  1.0000
  H   H4        1.0  0.44806  0.15104  0.89971  1.0000
  H   H5        1.0  0.78551  0.39215  0.56966  1.0000
  H   H6        1.0  0.71450  0.10785  0.06966  1.0000
  H   H7        1.0  0.21450  0.60785  0.43034  1.0000
  H   H8        1.0  0.28551  0.89215  0.93034  1.0000
  H   H9        1.0  0.58612  0.35191  0.41417  1.0000
  H   H10       1.0  0.91389  0.14809  0.91417  1.0000
  H   H11       1.0  0.41389  0.64809  0.58584  1.0000
  H   H12       1.0  0.08612  0.85191  0.08584  1.0000
  H   H13       1.0  0.72055  0.82822  0.34149  1.0000
  H   H14       1.0  0.77945  0.67178  0.84148  1.0000
  H   H15       1.0  0.27944  0.17178  0.65852  1.0000
  H   H16       1.0  0.22056  0.32822  0.15851  1.0000
  H   H17       1.0  0.40859  0.50372  0.28230  1.0000
  H   H18       1.0  0.09141  0.99627  0.78230  1.0000
  H   H19       1.0  0.59141  0.49627  0.71770  1.0000
  H   H20       1.0  0.90859  0.00373  0.21770  1.0000
  H   H21       1.0  0.51264  0.68004  0.23535  1.0000
  H   H22       1.0  0.98736  0.81996  0.73534  1.0000
  H   H23       1.0  0.48735  0.31996  0.76466  1.0000
  H   H24       1.0  0.01265  0.18005  0.26466  1.0000
  H   H25       1.0  0.60341  0.37441  0.19731  1.0000
  H   H26       1.0  0.89659  0.12559  0.69731  1.0000
  H   H27       1.0  0.39659  0.62559  0.80269  1.0000
  H   H28       1.0  0.10341  0.87441  0.30269  1.0000
  H   H29       1.0  0.73632  0.52916  0.17056  1.0000
  H   H30       1.0  0.76368  0.97084  0.67056  1.0000
  H   H31       1.0  0.26368  0.47085  0.82944  1.0000
  H   H32       1.0  0.23632  0.02916  0.32944  1.0000
  C   C1        1.0  0.66965  0.10290  0.36614  1.0000
  C   C2        1.0  0.83035  0.39709  0.86613  1.0000
  C   C3        1.0  0.33033  0.89709  0.63385  1.0000
  C   C4        1.0  0.16967  0.60291  0.13385  1.0000
  C   C5        1.0  0.85731  0.63052  0.53507  1.0000
  C   C6        1.0  0.64269  0.86948  0.03507  1.0000
  C   C7        1.0  0.14269  0.36948  0.46493  1.0000
  C   C8        1.0  0.35731  0.13052  0.96493  1.0000
  C   C9        1.0  0.76782  0.48570  0.51681  1.0000
  C   C10       1.0  0.73218  0.01430  0.01682  1.0000
  C   C11       1.0  0.23218  0.51430  0.48319  1.0000
  C   C12       1.0  0.26783  0.98570  0.98319  1.0000
  C   C13       1.0  0.65816  0.46384  0.43024  1.0000
  C   C14       1.0  0.84184  0.03616  0.93024  1.0000
  C   C15       1.0  0.34184  0.53616  0.56976  1.0000
  C   C16       1.0  0.15816  0.96385  0.06976  1.0000
  C   C17       1.0  0.64143  0.58655  0.36323  1.0000
  C   C18       1.0  0.85857  0.91345  0.86323  1.0000
  C   C19       1.0  0.35856  0.41345  0.63677  1.0000
  C   C20       1.0  0.14144  0.08655  0.13677  1.0000
  C   C21       1.0  0.73301  0.72805  0.38951  1.0000
  C   C22       1.0  0.76698  0.77195  0.88950  1.0000
  C   C23       1.0  0.26698  0.27195  0.61049  1.0000
  C   C24       1.0  0.23302  0.22805  0.11049  1.0000
  C   C25       1.0  0.53386  0.56780  0.26415  1.0000
  C   C26       1.0  0.96613  0.93219  0.76414  1.0000
  C   C27       1.0  0.46613  0.43219  0.73585  1.0000
  C   C28       1.0  0.03387  0.06781  0.23586  1.0000
  S   S1        1.0  0.53304  0.10054  0.26976  1.0000
  S   S2        1.0  0.96696  0.39945  0.76975  1.0000
  S   S3        1.0  0.46695  0.89946  0.73024  1.0000
  S   S4        1.0  0.03305  0.60055  0.23024  1.0000
  N   N1        1.0  0.77013  0.10724  0.43627  1.0000
  N   N2        1.0  0.72986  0.39275  0.93626  1.0000
  N   N3        1.0  0.22987  0.89275  0.56374  1.0000
  N   N4        1.0  0.27014  0.60725  0.06374  1.0000
  N   N5        1.0  0.83881  0.75037  0.47324  1.0000
  N   N6        1.0  0.66119  0.74962  0.97324  1.0000
  N   N7        1.0  0.16118  0.24963  0.52676  1.0000
  N   N8        1.0  0.33882  0.25037  0.02676  1.0000
  N   N9        1.0  0.60929  0.48743  0.17716  1.0000
  N   N10       1.0  0.89071  0.01257  0.67716  1.0000
  N   N11       1.0  0.39071  0.51257  0.82284  1.0000
  N   N12       1.0  0.10929  0.98743  0.32284  1.0000
