data_image0
_chemical_formula_structural       Cu4H56C32N8O12
_chemical_formula_sum              "Cu4 H56 C32 N8 O12"
_cell_length_a       9.40154
_cell_length_b       10.0393
_cell_length_c       10.7176
_cell_angle_alpha    89.9887
_cell_angle_beta     89.9982
_cell_angle_gamma    89.999

_space_group_name_H-M_alt    "P 1"
_space_group_IT_number       1

loop_
  _space_group_symop_operation_xyz
  'x, y, z'

loop_
  _atom_site_type_symbol
  _atom_site_label
  _atom_site_symmetry_multiplicity
  _atom_site_fract_x
  _atom_site_fract_y
  _atom_site_fract_z
  _atom_site_occupancy
  Cu  Cu1       1.0  0.74196  0.14660  0.53342  1.0000
  Cu  Cu2       1.0  0.75803  0.85324  0.03365  1.0000
  Cu  Cu3       1.0  0.25803  0.64671  0.96640  1.0000
  Cu  Cu4       1.0  0.24197  0.35345  0.46660  1.0000
  H   H1        1.0  0.49049  0.13569  0.61330  1.0000
  H   H2        1.0  0.00947  0.86422  0.11331  1.0000
  H   H3        1.0  0.50948  0.63575  0.88671  1.0000
  H   H4        1.0  0.99050  0.36435  0.38672  1.0000
  H   H5        1.0  0.53397  0.99784  0.53685  1.0000
  H   H6        1.0  0.96572  0.00204  0.03694  1.0000
  H   H7        1.0  0.46574  0.49792  0.96307  1.0000
  H   H8        1.0  0.03401  0.50219  0.46314  1.0000
  H   H9        1.0  0.52033  0.01540  0.79651  1.0000
  H   H10       1.0  0.97962  0.98427  0.29668  1.0000
  H   H11       1.0  0.47963  0.51575  0.70334  1.0000
  H   H12       1.0  0.02035  0.48456  0.20347  1.0000
  H   H13       1.0  0.99883  0.15482  0.78526  1.0000
  H   H14       1.0  0.50120  0.84525  0.28534  1.0000
  H   H15       1.0  0.00118  0.65477  0.71466  1.0000
  H   H16       1.0  0.49883  0.34520  0.21474  1.0000
  H   H17       1.0  0.48803  0.80545  0.67924  1.0000
  H   H18       1.0  0.01206  0.19435  0.17936  1.0000
  H   H19       1.0  0.51215  0.30568  0.82064  1.0000
  H   H20       1.0  0.98795  0.69450  0.32073  1.0000
  H   H21       1.0  0.63834  0.78573  0.78029  1.0000
  H   H22       1.0  0.86192  0.21412  0.28050  1.0000
  H   H23       1.0  0.36202  0.28586  0.71949  1.0000
  H   H24       1.0  0.13825  0.71428  0.21967  1.0000
  H   H25       1.0  0.66481  0.81702  0.61885  1.0000
  H   H26       1.0  0.83526  0.18293  0.11910  1.0000
  H   H27       1.0  0.33533  0.31702  0.88089  1.0000
  H   H28       1.0  0.16475  0.68301  0.38111  1.0000
  H   H29       1.0  0.99874  0.90414  0.76859  1.0000
  H   H30       1.0  0.50123  0.09601  0.26859  1.0000
  H   H31       1.0  0.00127  0.40403  0.73142  1.0000
  H   H32       1.0  0.49871  0.59586  0.23143  1.0000
  H   H33       1.0  0.96946  0.88420  0.53722  1.0000
  H   H34       1.0  0.53056  0.11582  0.03717  1.0000
  H   H35       1.0  0.03059  0.38420  0.96283  1.0000
  H   H36       1.0  0.46944  0.61577  0.46281  1.0000
  H   H37       1.0  0.12447  0.79794  0.58909  1.0000
  H   H38       1.0  0.37566  0.20224  0.08899  1.0000
  H   H39       1.0  0.87568  0.29778  0.91099  1.0000
  H   H40       1.0  0.62444  0.70206  0.41090  1.0000
  H   H41       1.0  0.14104  0.95513  0.51492  1.0000
  H   H42       1.0  0.35890  0.04501  0.01499  1.0000
  H   H43       1.0  0.85892  0.45500  0.98503  1.0000
  H   H44       1.0  0.64105  0.54485  0.48508  1.0000
  H   H45       1.0  0.20037  0.03330  0.85873  1.0000
  H   H46       1.0  0.29954  0.96697  0.35882  1.0000
  H   H47       1.0  0.79960  0.53304  0.64115  1.0000
  H   H48       1.0  0.70033  0.46673  0.14124  1.0000
  H   H49       1.0  0.28033  0.04396  0.70905  1.0000
  H   H50       1.0  0.21960  0.95631  0.20912  1.0000
  H   H51       1.0  0.71959  0.54368  0.79082  1.0000
  H   H52       1.0  0.78033  0.45604  0.29091  1.0000
  H   H53       1.0  0.26024  0.88595  0.78363  1.0000
  H   H54       1.0  0.23982  0.11435  0.28360  1.0000
  H   H55       1.0  0.73989  0.38567  0.71635  1.0000
  H   H56       1.0  0.76019  0.61407  0.21636  1.0000
  C   C1        1.0  0.59807  0.98992  0.72375  1.0000
  C   C2        1.0  0.90193  0.00991  0.22390  1.0000
  C   C3        1.0  0.40193  0.49007  0.77610  1.0000
  C   C4        1.0  0.09807  0.51005  0.27624  1.0000
  C   C5        1.0  0.74685  0.03078  0.76986  1.0000
  C   C6        1.0  0.75312  0.96910  0.26996  1.0000
  C   C7        1.0  0.25312  0.53085  0.73005  1.0000
  C   C8        1.0  0.24685  0.46925  0.23014  1.0000
  C   C9        1.0  0.98031  0.09914  0.69780  1.0000
  C   C10       1.0  0.51962  0.90092  0.19786  1.0000
  C   C11       1.0  0.01965  0.59910  0.80215  1.0000
  C   C12       1.0  0.48032  0.40085  0.30220  1.0000
  C   C13       1.0  0.02986  0.18729  0.58961  1.0000
  C   C14       1.0  0.47016  0.81269  0.08974  1.0000
  C   C15       1.0  0.97013  0.68728  0.91029  1.0000
  C   C16       1.0  0.52987  0.31272  0.41041  1.0000
  C   C17       1.0  0.59669  0.83974  0.69950  1.0000
  C   C18       1.0  0.90342  0.16009  0.19968  1.0000
  C   C19       1.0  0.40349  0.33990  0.80030  1.0000
  C   C20       1.0  0.09664  0.66026  0.30047  1.0000
  C   C21       1.0  0.06465  0.96588  0.70645  1.0000
  C   C22       1.0  0.43539  0.03423  0.20647  1.0000
  C   C23       1.0  0.93540  0.46578  0.79353  1.0000
  C   C24       1.0  0.56462  0.53411  0.29355  1.0000
  C   C25       1.0  0.07509  0.89664  0.57967  1.0000
  C   C26       1.0  0.42494  0.10345  0.07971  1.0000
  C   C27       1.0  0.92496  0.39657  0.92029  1.0000
  C   C28       1.0  0.57508  0.60334  0.42033  1.0000
  C   C29       1.0  0.20990  0.98340  0.76778  1.0000
  C   C30       1.0  0.29010  0.01684  0.26782  1.0000
  C   C31       1.0  0.79012  0.48317  0.73215  1.0000
  C   C32       1.0  0.70986  0.51661  0.23220  1.0000
  N   N1        1.0  0.56449  0.06125  0.60657  1.0000
  N   N2        1.0  0.93540  0.93861  0.10671  1.0000
  N   N3        1.0  0.43540  0.56136  0.89331  1.0000
  N   N4        1.0  0.06450  0.43878  0.39342  1.0000
  N   N5        1.0  0.83052  0.07364  0.67844  1.0000
  N   N6        1.0  0.66943  0.92642  0.17851  1.0000
  N   N7        1.0  0.16945  0.57364  0.82150  1.0000
  N   N8        1.0  0.33051  0.42634  0.32154  1.0000
  O   O1        1.0  0.93936  0.21765  0.50478  1.0000
  O   O2        1.0  0.56075  0.78202  0.00511  1.0000
  O   O3        1.0  0.06070  0.71784  0.99499  1.0000
  O   O4        1.0  0.43938  0.28248  0.49529  1.0000
  O   O5        1.0  0.15842  0.22609  0.58863  1.0000
  O   O6        1.0  0.34155  0.77412  0.08860  1.0000
  O   O7        1.0  0.84154  0.72588  0.91141  1.0000
  O   O8        1.0  0.65838  0.27388  0.41136  1.0000
  O   O9        1.0  0.78304  0.01694  0.88268  1.0000
  O   O10       1.0  0.71684  0.98276  0.38277  1.0000
  O   O11       1.0  0.21681  0.51713  0.61729  1.0000
  O   O12       1.0  0.28310  0.48314  0.11734  1.0000
