data_image0
_chemical_formula_structural       Cu2H52C54S2N12Cl4O4
_chemical_formula_sum              "Cu2 H52 C54 S2 N12 Cl4 O4"
_cell_length_a       8.59127
_cell_length_b       13.101
_cell_length_c       14.3131
_cell_angle_alpha    73.7089
_cell_angle_beta     73.4346
_cell_angle_gamma    83.5142

_space_group_name_H-M_alt    "P 1"
_space_group_IT_number       1

loop_
  _space_group_symop_operation_xyz
  'x, y, z'

loop_
  _atom_site_type_symbol
  _atom_site_label
  _atom_site_symmetry_multiplicity
  _atom_site_fract_x
  _atom_site_fract_y
  _atom_site_fract_z
  _atom_site_occupancy
  Cu  Cu1       1.0  0.73168  0.44880  0.17018  1.0000
  Cu  Cu2       1.0  0.26833  0.55120  0.82981  1.0000
  H   H1        1.0  0.00825  0.01637  0.11152  1.0000
  H   H2        1.0  0.99176  0.98364  0.88847  1.0000
  H   H3        1.0  0.96221  0.84963  0.25174  1.0000
  H   H4        1.0  0.03780  0.15037  0.74826  1.0000
  H   H5        1.0  0.40444  0.70420  0.10414  1.0000
  H   H6        1.0  0.59557  0.29580  0.89585  1.0000
  H   H7        1.0  0.70277  0.99988  0.75329  1.0000
  H   H8        1.0  0.29722  0.00013  0.24671  1.0000
  H   H9        1.0  0.81907  0.11890  0.58561  1.0000
  H   H10       1.0  0.18092  0.88111  0.41439  1.0000
  H   H11       1.0  0.38674  0.32218  0.62033  1.0000
  H   H12       1.0  0.61324  0.67782  0.37967  1.0000
  H   H13       1.0  0.27159  0.20445  0.78885  1.0000
  H   H14       1.0  0.72840  0.79555  0.21115  1.0000
  H   H15       1.0  0.25606  0.62949  0.28935  1.0000
  H   H16       1.0  0.74395  0.37051  0.71065  1.0000
  H   H17       1.0  0.05034  0.67596  0.33382  1.0000
  H   H18       1.0  0.94967  0.32404  0.66618  1.0000
  H   H19       1.0  0.31060  0.51058  0.16275  1.0000
  H   H20       1.0  0.68941  0.48941  0.83725  1.0000
  H   H21       1.0  0.33461  0.38002  0.03851  1.0000
  H   H22       1.0  0.66540  0.61998  0.96149  1.0000
  H   H23       1.0  0.31400  0.24516  0.94633  1.0000
  H   H24       1.0  0.68600  0.75484  0.05367  1.0000
  H   H25       1.0  0.04060  0.19136  0.95522  1.0000
  H   H26       1.0  0.95941  0.80864  0.04478  1.0000
  H   H27       1.0  0.79252  0.28225  0.04744  1.0000
  H   H28       1.0  0.20749  0.71775  0.95256  1.0000
  H   H29       1.0  0.63901  0.45330  0.41320  1.0000
  H   H30       1.0  0.36099  0.54670  0.58679  1.0000
  H   H31       1.0  0.61485  0.42846  0.54664  1.0000
  H   H32       1.0  0.38514  0.57153  0.45336  1.0000
  H   H33       1.0  0.81275  0.42756  0.46175  1.0000
  H   H34       1.0  0.18724  0.57243  0.53825  1.0000
  H   H35       1.0  0.76459  0.06200  0.22050  1.0000
  H   H36       1.0  0.23543  0.93800  0.77950  1.0000
  H   H37       1.0  0.57794  0.09387  0.30149  1.0000
  H   H38       1.0  0.42206  0.90613  0.69851  1.0000
  H   H39       1.0  0.71946  0.19500  0.23157  1.0000
  H   H40       1.0  0.28055  0.80500  0.76844  1.0000
  H   H41       1.0  0.02912  0.04298  0.28075  1.0000
  H   H42       1.0  0.97088  0.95703  0.71926  1.0000
  H   H43       1.0  0.02225  0.08942  0.38737  1.0000
  H   H44       1.0  0.97775  0.91058  0.61263  1.0000
  H   H45       1.0  0.99799  0.18143  0.27358  1.0000
  H   H46       1.0  0.00201  0.81857  0.72642  1.0000
  H   H47       1.0  0.80470  0.95309  0.48959  1.0000
  H   H48       1.0  0.19530  0.04691  0.51042  1.0000
  H   H49       1.0  0.80747  0.91376  0.37948  1.0000
  H   H50       1.0  0.19254  0.08623  0.62053  1.0000
  H   H51       1.0  0.62198  0.95782  0.45262  1.0000
  H   H52       1.0  0.37803  0.04217  0.54738  1.0000
  C   C1        1.0  0.40496  0.01935  0.87913  1.0000
  C   C2        1.0  0.59504  0.98065  0.12087  1.0000
  C   C3        1.0  0.09420  0.94869  0.11023  1.0000
  C   C4        1.0  0.90580  0.05131  0.88977  1.0000
  C   C5        1.0  0.06995  0.85559  0.18802  1.0000
  C   C6        1.0  0.93005  0.14441  0.81198  1.0000
  C   C7        1.0  0.18009  0.76764  0.18572  1.0000
  C   C8        1.0  0.81991  0.23236  0.81428  1.0000
  C   C9        1.0  0.31866  0.77220  0.10487  1.0000
  C   C10       1.0  0.68134  0.22780  0.89513  1.0000
  C   C11       1.0  0.34249  0.86487  0.02603  1.0000
  C   C12       1.0  0.65752  0.13513  0.97397  1.0000
  C   C13       1.0  0.23058  0.95398  0.02717  1.0000
  C   C14       1.0  0.76942  0.04602  0.97283  1.0000
  C   C15       1.0  0.47652  0.09194  0.78195  1.0000
  C   C16       1.0  0.52346  0.90807  0.21805  1.0000
  C   C17       1.0  0.63178  0.06953  0.72366  1.0000
  C   C18       1.0  0.36821  0.93048  0.27635  1.0000
  C   C19       1.0  0.69809  0.13643  0.62969  1.0000
  C   C20       1.0  0.30190  0.86358  0.37032  1.0000
  C   C21       1.0  0.60900  0.22661  0.59011  1.0000
  C   C22       1.0  0.39098  0.77340  0.40990  1.0000
  C   C23       1.0  0.45593  0.25113  0.64882  1.0000
  C   C24       1.0  0.54405  0.74887  0.35118  1.0000
  C   C25       1.0  0.39077  0.18489  0.74389  1.0000
  C   C26       1.0  0.60921  0.81512  0.25611  1.0000
  C   C27       1.0  0.14538  0.66484  0.26736  1.0000
  C   C28       1.0  0.85463  0.33517  0.73264  1.0000
  C   C29       1.0  0.06721  0.47495  0.14849  1.0000
  C   C30       1.0  0.93279  0.52505  0.85151  1.0000
  C   C31       1.0  0.17943  0.52110  0.17537  1.0000
  C   C32       1.0  0.82058  0.47890  0.82463  1.0000
  C   C33       1.0  0.07442  0.39795  0.09155  1.0000
  C   C34       1.0  0.92559  0.60205  0.90845  1.0000
  C   C35       1.0  0.21765  0.35501  0.03877  1.0000
  C   C36       1.0  0.78236  0.64500  0.96122  1.0000
  C   C37       1.0  0.20575  0.28014  0.98889  1.0000
  C   C38       1.0  0.79426  0.71986  0.01110  1.0000
  C   C39       1.0  0.05292  0.25069  0.99245  1.0000
  C   C40       1.0  0.94708  0.74931  0.00755  1.0000
  C   C41       1.0  0.91566  0.29938  0.04377  1.0000
  C   C42       1.0  0.08434  0.70062  0.95623  1.0000
  C   C43       1.0  0.68518  0.40746  0.47727  1.0000
  C   C44       1.0  0.31482  0.59254  0.52273  1.0000
  C   C45       1.0  0.73336  0.25357  0.40849  1.0000
  C   C46       1.0  0.26662  0.74642  0.59152  1.0000
  C   C47       1.0  0.78763  0.08409  0.35952  1.0000
  C   C48       1.0  0.21237  0.91591  0.64048  1.0000
  C   C49       1.0  0.70764  0.11105  0.27296  1.0000
  C   C50       1.0  0.29236  0.88895  0.72704  1.0000
  C   C51       1.0  0.97038  0.10149  0.32297  1.0000
  C   C52       1.0  0.02962  0.89852  0.67704  1.0000
  C   C53       1.0  0.75313  0.97044  0.42458  1.0000
  C   C54       1.0  0.24688  0.02956  0.57542  1.0000
  S   S1        1.0  0.49692  0.89251  0.91563  1.0000
  S   S2        1.0  0.50309  0.10750  0.08437  1.0000
  N   N1        1.0  0.26910  0.03886  0.94326  1.0000
  N   N2        1.0  0.73090  0.96114  0.05674  1.0000
  N   N3        1.0  0.08761  0.58626  0.23043  1.0000
  N   N4        1.0  0.91239  0.41374  0.76957  1.0000
  N   N5        1.0  0.92781  0.58352  0.23820  1.0000
  N   N6        1.0  0.07219  0.41648  0.76180  1.0000
  N   N7        1.0  0.91698  0.51537  0.18887  1.0000
  N   N8        1.0  0.08302  0.48463  0.81113  1.0000
  N   N9        1.0  0.92588  0.37142  0.09209  1.0000
  N   N10       1.0  0.07412  0.62858  0.90791  1.0000
  N   N11       1.0  0.67374  0.29297  0.49197  1.0000
  N   N12       1.0  0.32625  0.70703  0.50804  1.0000
  Cl  Cl1       1.0  0.55131  0.37628  0.12401  1.0000
  Cl  Cl2       1.0  0.44871  0.62373  0.87596  1.0000
  Cl  Cl3       1.0  0.53829  0.54923  0.24978  1.0000
  Cl  Cl4       1.0  0.46170  0.45076  0.75021  1.0000
  O   O1        1.0  0.79985  0.30961  0.32439  1.0000
  O   O2        1.0  0.20013  0.69037  0.67562  1.0000
  O   O3        1.0  0.70705  0.14832  0.43138  1.0000
  O   O4        1.0  0.29294  0.85167  0.56864  1.0000
