data_image0
_chemical_formula_structural       Zn2H36C28N4O16
_chemical_formula_sum              "Zn2 H36 C28 N4 O16"
_cell_length_a       4.77454
_cell_length_b       11.8048
_cell_length_c       14.689
_cell_angle_alpha    91.0943
_cell_angle_beta     90.0003
_cell_angle_gamma    89.9996

_space_group_name_H-M_alt    "P 1"
_space_group_IT_number       1

loop_
  _space_group_symop_operation_xyz
  'x, y, z'

loop_
  _atom_site_type_symbol
  _atom_site_label
  _atom_site_symmetry_multiplicity
  _atom_site_fract_x
  _atom_site_fract_y
  _atom_site_fract_z
  _atom_site_occupancy
  Zn  Zn1       1.0  0.90230  0.03152  0.16700  1.0000
  Zn  Zn2       1.0  0.40230  0.96848  0.83300  1.0000
  H   H1        1.0  0.01360  0.61612  0.17418  1.0000
  H   H2        1.0  0.51360  0.38388  0.82582  1.0000
  H   H3        1.0  0.63544  0.51199  0.09649  1.0000
  H   H4        1.0  0.13545  0.48802  0.90351  1.0000
  H   H5        1.0  0.83350  0.58831  0.01533  1.0000
  H   H6        1.0  0.33350  0.41169  0.98467  1.0000
  H   H7        1.0  0.49776  0.63999  0.05111  1.0000
  H   H8        1.0  0.99776  0.36001  0.94889  1.0000
  H   H9        1.0  0.63322  0.54216  0.46296  1.0000
  H   H10       1.0  0.13321  0.45784  0.53704  1.0000
  H   H11       1.0  0.38148  0.60977  0.60057  1.0000
  H   H12       1.0  0.88149  0.39022  0.39943  1.0000
  H   H13       1.0  0.94755  0.85601  0.43900  1.0000
  H   H14       1.0  0.44756  0.14398  0.56100  1.0000
  H   H15       1.0  0.19617  0.78816  0.30219  1.0000
  H   H16       1.0  0.69617  0.21184  0.69781  1.0000
  H   H17       1.0  0.55892  0.77567  0.73127  1.0000
  H   H18       1.0  0.05891  0.22433  0.26873  1.0000
  H   H19       1.0  0.58185  0.57919  0.78573  1.0000
  H   H20       1.0  0.08185  0.42082  0.21427  1.0000
  H   H21       1.0  0.58691  0.67898  0.87760  1.0000
  H   H22       1.0  0.08690  0.32102  0.12239  1.0000
  H   H23       1.0  0.90483  0.61058  0.84332  1.0000
  H   H24       1.0  0.40482  0.38942  0.15668  1.0000
  H   H25       1.0  0.60494  0.77076  0.23699  1.0000
  H   H26       1.0  0.10493  0.22924  0.76302  1.0000
  H   H27       1.0  0.99802  0.62172  0.67296  1.0000
  H   H28       1.0  0.49802  0.37828  0.32704  1.0000
  H   H29       1.0  0.76951  0.12145  0.99741  1.0000
  H   H30       1.0  0.26951  0.87855  0.00259  1.0000
  H   H31       1.0  0.67682  0.99725  0.01031  1.0000
  H   H32       1.0  0.17682  0.00275  0.98969  1.0000
  H   H33       1.0  0.74821  0.04207  0.34944  1.0000
  H   H34       1.0  0.24820  0.95793  0.65057  1.0000
  H   H35       1.0  0.07944  0.05198  0.34514  1.0000
  H   H36       1.0  0.57944  0.94803  0.65486  1.0000
  C   C1        1.0  0.94282  0.77878  0.11675  1.0000
  C   C2        1.0  0.44282  0.22122  0.88325  1.0000
  C   C3        1.0  0.83099  0.66427  0.15016  1.0000
  C   C4        1.0  0.33098  0.33573  0.84984  1.0000
  C   C5        1.0  0.68927  0.59685  0.07304  1.0000
  C   C6        1.0  0.18928  0.40316  0.92696  1.0000
  C   C7        1.0  0.59416  0.61282  0.29368  1.0000
  C   C8        1.0  0.09415  0.38718  0.70632  1.0000
  C   C9        1.0  0.43167  0.65866  0.37326  1.0000
  C   C10       1.0  0.93167  0.34134  0.62674  1.0000
  C   C11       1.0  0.48057  0.61007  0.45800  1.0000
  C   C12       1.0  0.98058  0.38992  0.54200  1.0000
  C   C13       1.0  0.33857  0.64835  0.53520  1.0000
  C   C14       1.0  0.83857  0.35165  0.46480  1.0000
  C   C15       1.0  0.14182  0.73587  0.52845  1.0000
  C   C16       1.0  0.64182  0.26413  0.47155  1.0000
  C   C17       1.0  0.09717  0.78687  0.44423  1.0000
  C   C18       1.0  0.59717  0.21312  0.55577  1.0000
  C   C19       1.0  0.24025  0.74844  0.36710  1.0000
  C   C20       1.0  0.74025  0.25156  0.63290  1.0000
  C   C21       1.0  0.97612  0.77678  0.60823  1.0000
  C   C22       1.0  0.47612  0.22322  0.39177  1.0000
  C   C23       1.0  0.76073  0.74170  0.75332  1.0000
  C   C24       1.0  0.26073  0.25830  0.24668  1.0000
  C   C25       1.0  0.92462  0.83828  0.80007  1.0000
  C   C26       1.0  0.42462  0.16172  0.19993  1.0000
  C   C27       1.0  0.70672  0.64606  0.81921  1.0000
  C   C28       1.0  0.20671  0.35394  0.18079  1.0000
  N   N1        1.0  0.64586  0.68649  0.22713  1.0000
  N   N2        1.0  0.14586  0.31351  0.77287  1.0000
  N   N3        1.0  0.91381  0.70224  0.67306  1.0000
  N   N4        1.0  0.41381  0.29776  0.32694  1.0000
  O   O1        1.0  0.83868  0.04803  0.02457  1.0000
  O   O2        1.0  0.33868  0.95197  0.97543  1.0000
  O   O3        1.0  0.91586  0.01037  0.31936  1.0000
  O   O4        1.0  0.41585  0.98963  0.68064  1.0000
  O   O5        1.0  0.84028  0.86636  0.15825  1.0000
  O   O6        1.0  0.34027  0.13364  0.84176  1.0000
  O   O7        1.0  0.11971  0.77571  0.05379  1.0000
  O   O8        1.0  0.61973  0.22429  0.94621  1.0000
  O   O9        1.0  0.18840  0.82603  0.80396  1.0000
  O   O10       1.0  0.68840  0.17397  0.19604  1.0000
  O   O11       1.0  0.80332  0.92554  0.83327  1.0000
  O   O12       1.0  0.30332  0.07446  0.16673  1.0000
  O   O13       1.0  0.68027  0.51231  0.29097  1.0000
  O   O14       1.0  0.18026  0.48768  0.70903  1.0000
  O   O15       1.0  0.89656  0.87902  0.61372  1.0000
  O   O16       1.0  0.39656  0.12098  0.38628  1.0000
