data_image0
_chemical_formula_structural       Cd2H28C24N12O16
_chemical_formula_sum              "Cd2 H28 C24 N12 O16"
_cell_length_a       7.21411
_cell_length_b       8.82094
_cell_length_c       13.0761
_cell_angle_alpha    90.0001
_cell_angle_beta     89.9997
_cell_angle_gamma    93.3648

_space_group_name_H-M_alt    "P 1"
_space_group_IT_number       1

loop_
  _space_group_symop_operation_xyz
  'x, y, z'

loop_
  _atom_site_type_symbol
  _atom_site_label
  _atom_site_symmetry_multiplicity
  _atom_site_fract_x
  _atom_site_fract_y
  _atom_site_fract_z
  _atom_site_occupancy
  Cd  Cd1       1.0  0.99999  0.50000  0.49999  1.0000
  Cd  Cd2       1.0  0.50000  0.50000  0.00000  1.0000
  H   H1        1.0  0.36382  0.39152  0.58874  1.0000
  H   H2        1.0  0.13616  0.60848  0.08875  1.0000
  H   H3        1.0  0.63616  0.60849  0.41124  1.0000
  H   H4        1.0  0.86382  0.39151  0.91125  1.0000
  H   H5        1.0  0.19936  0.32727  0.66091  1.0000
  H   H6        1.0  0.30064  0.67273  0.16092  1.0000
  H   H7        1.0  0.80064  0.67273  0.33907  1.0000
  H   H8        1.0  0.69935  0.32727  0.83908  1.0000
  H   H9        1.0  0.98558  0.49929  0.26133  1.0000
  H   H10       1.0  0.51443  0.50071  0.76133  1.0000
  H   H11       1.0  0.01443  0.50071  0.73866  1.0000
  H   H12       1.0  0.48557  0.49929  0.23867  1.0000
  H   H13       1.0  0.00584  0.32438  0.11199  1.0000
  H   H14       1.0  0.49417  0.67561  0.61200  1.0000
  H   H15       1.0  0.99418  0.67561  0.88799  1.0000
  H   H16       1.0  0.50583  0.32440  0.38800  1.0000
  H   H17       1.0  0.11406  0.96586  0.32606  1.0000
  H   H18       1.0  0.38593  0.03413  0.82606  1.0000
  H   H19       1.0  0.88593  0.03413  0.67394  1.0000
  H   H20       1.0  0.61408  0.96587  0.17395  1.0000
  H   H21       1.0  0.09319  0.15783  0.46701  1.0000
  H   H22       1.0  0.40679  0.84216  0.96702  1.0000
  H   H23       1.0  0.90679  0.84217  0.53298  1.0000
  H   H24       1.0  0.59322  0.15783  0.03300  1.0000
  H   H25       1.0  0.12442  0.91281  0.13585  1.0000
  H   H26       1.0  0.37559  0.08719  0.63586  1.0000
  H   H27       1.0  0.87559  0.08719  0.86415  1.0000
  H   H28       1.0  0.62442  0.91282  0.36415  1.0000
  C   C1        1.0  0.01279  0.38017  0.27218  1.0000
  C   C2        1.0  0.48722  0.61983  0.77219  1.0000
  C   C3        1.0  0.98722  0.61982  0.72781  1.0000
  C   C4        1.0  0.51279  0.38018  0.22782  1.0000
  C   C5        1.0  0.02422  0.28315  0.18954  1.0000
  C   C6        1.0  0.47579  0.71684  0.68954  1.0000
  C   C7        1.0  0.97580  0.71684  0.81046  1.0000
  C   C8        1.0  0.52421  0.28317  0.31046  1.0000
  C   C9        1.0  0.05935  0.13056  0.20746  1.0000
  C   C10       1.0  0.44065  0.86944  0.70746  1.0000
  C   C11       1.0  0.94066  0.86944  0.79254  1.0000
  C   C12       1.0  0.55935  0.13056  0.29255  1.0000
  C   C13       1.0  0.08543  0.08322  0.30865  1.0000
  C   C14       1.0  0.41457  0.91678  0.80866  1.0000
  C   C15       1.0  0.91457  0.91678  0.69134  1.0000
  C   C16       1.0  0.58543  0.08322  0.19136  1.0000
  C   C17       1.0  0.07179  0.18822  0.38735  1.0000
  C   C18       1.0  0.42820  0.81177  0.88736  1.0000
  C   C19       1.0  0.92820  0.81178  0.61264  1.0000
  C   C20       1.0  0.57181  0.18822  0.11265  1.0000
  C   C21       1.0  0.06524  0.02297  0.12304  1.0000
  C   C22       1.0  0.43477  0.97703  0.62304  1.0000
  C   C23       1.0  0.93478  0.97702  0.87697  1.0000
  C   C24       1.0  0.56523  0.02298  0.37697  1.0000
  N   N1        1.0  0.03488  0.33379  0.36959  1.0000
  N   N2        1.0  0.46512  0.66620  0.86960  1.0000
  N   N3        1.0  0.96512  0.66621  0.63040  1.0000
  N   N4        1.0  0.53488  0.33379  0.13041  1.0000
  N   N5        1.0  0.99438  0.05761  0.03568  1.0000
  N   N6        1.0  0.50563  0.94239  0.53569  1.0000
  N   N7        1.0  0.00564  0.94238  0.96431  1.0000
  N   N8        1.0  0.49437  0.05762  0.46432  1.0000
  N   N9        1.0  0.30902  0.67803  0.37105  1.0000
  N   N10       1.0  0.19097  0.32198  0.87105  1.0000
  N   N11       1.0  0.69097  0.32198  0.62894  1.0000
  N   N12       1.0  0.80902  0.67803  0.12895  1.0000
  O   O1        1.0  0.14758  0.71326  0.39774  1.0000
  O   O2        1.0  0.35240  0.28674  0.89774  1.0000
  O   O3        1.0  0.85240  0.28674  0.60226  1.0000
  O   O4        1.0  0.64758  0.71326  0.10226  1.0000
  O   O5        1.0  0.38337  0.73436  0.29108  1.0000
  O   O6        1.0  0.11663  0.26565  0.79108  1.0000
  O   O7        1.0  0.61663  0.26566  0.70892  1.0000
  O   O8        1.0  0.88337  0.73435  0.20892  1.0000
  O   O9        1.0  0.39377  0.58496  0.42545  1.0000
  O   O10       1.0  0.10622  0.41506  0.92545  1.0000
  O   O11       1.0  0.60623  0.41506  0.57455  1.0000
  O   O12       1.0  0.89377  0.58495  0.07455  1.0000
  O   O13       1.0  0.22768  0.36923  0.59270  1.0000
  O   O14       1.0  0.27231  0.63075  0.09272  1.0000
  O   O15       1.0  0.77230  0.63076  0.40728  1.0000
  O   O16       1.0  0.72768  0.36923  0.90729  1.0000
