data_image0
_chemical_formula_structural       Cu2H24C20N14
_chemical_formula_sum              "Cu2 H24 C20 N14"
_cell_length_a       6.13837
_cell_length_b       8.11897
_cell_length_c       11.7781
_cell_angle_alpha    110.149
_cell_angle_beta     89.9997
_cell_angle_gamma    89.9995

_space_group_name_H-M_alt    "P 1"
_space_group_IT_number       1

loop_
  _space_group_symop_operation_xyz
  'x, y, z'

loop_
  _atom_site_type_symbol
  _atom_site_label
  _atom_site_symmetry_multiplicity
  _atom_site_fract_x
  _atom_site_fract_y
  _atom_site_fract_z
  _atom_site_occupancy
  Cu  Cu1       1.0  0.25000  0.08489  0.16905  1.0000
  Cu  Cu2       1.0  0.74999  0.91511  0.83094  1.0000
  H   H1        1.0  0.89594  0.28538  0.57007  1.0000
  H   H2        1.0  0.39595  0.71462  0.42993  1.0000
  H   H3        1.0  0.10406  0.71462  0.42993  1.0000
  H   H4        1.0  0.60405  0.28537  0.57007  1.0000
  H   H5        1.0  0.75000  0.18417  0.14771  1.0000
  H   H6        1.0  0.24999  0.81585  0.85229  1.0000
  H   H7        1.0  0.24999  0.03598  0.85224  1.0000
  H   H8        1.0  0.75000  0.96404  0.14776  1.0000
  H   H9        1.0  0.94446  0.41021  0.30274  1.0000
  H   H10       1.0  0.44446  0.58979  0.69727  1.0000
  H   H11       1.0  0.05567  0.10685  0.69711  1.0000
  H   H12       1.0  0.55567  0.89315  0.30288  1.0000
  H   H13       1.0  0.05553  0.58979  0.69727  1.0000
  H   H14       1.0  0.55553  0.41021  0.30274  1.0000
  H   H15       1.0  0.94433  0.89315  0.30289  1.0000
  H   H16       1.0  0.44433  0.10685  0.69711  1.0000
  H   H17       1.0  0.08874  0.35831  0.41831  1.0000
  H   H18       1.0  0.58875  0.64169  0.58170  1.0000
  H   H19       1.0  0.91124  0.93947  0.58163  1.0000
  H   H20       1.0  0.41124  0.06053  0.41837  1.0000
  H   H21       1.0  0.91125  0.64169  0.58170  1.0000
  H   H22       1.0  0.41124  0.35830  0.41831  1.0000
  H   H23       1.0  0.08876  0.06053  0.41837  1.0000
  H   H24       1.0  0.58876  0.93947  0.58163  1.0000
  C   C1        1.0  0.25001  0.50299  0.00523  1.0000
  C   C2        1.0  0.75001  0.49700  0.99476  1.0000
  C   C3        1.0  0.25000  0.38038  0.06410  1.0000
  C   C4        1.0  0.75000  0.61960  0.93588  1.0000
  C   C5        1.0  0.75000  0.31552  0.93598  1.0000
  C   C6        1.0  0.25000  0.68448  0.06401  1.0000
  C   C7        1.0  0.25003  0.43937  0.87818  1.0000
  C   C8        1.0  0.75002  0.56063  0.12181  1.0000
  C   C9        1.0  0.94399  0.32850  0.36006  1.0000
  C   C10       1.0  0.44399  0.67150  0.63996  1.0000
  C   C11       1.0  0.05601  0.96784  0.63986  1.0000
  C   C12       1.0  0.55602  0.03216  0.36014  1.0000
  C   C13       1.0  0.05601  0.67150  0.63995  1.0000
  C   C14       1.0  0.55600  0.32850  0.36006  1.0000
  C   C15       1.0  0.94397  0.03215  0.36014  1.0000
  C   C16       1.0  0.44398  0.96784  0.63986  1.0000
  C   C17       1.0  0.74999  0.25647  0.51227  1.0000
  C   C18       1.0  0.25000  0.74352  0.48774  1.0000
  C   C19       1.0  0.75000  0.10292  0.20533  1.0000
  C   C20       1.0  0.25000  0.89708  0.79467  1.0000
  N   N1        1.0  0.25000  0.26508  0.10312  1.0000
  N   N2        1.0  0.75000  0.73491  0.89686  1.0000
  N   N3        1.0  0.75000  0.16123  0.89704  1.0000
  N   N4        1.0  0.24999  0.83876  0.10297  1.0000
  N   N5        1.0  0.25002  0.38603  0.77181  1.0000
  N   N6        1.0  0.75003  0.61398  0.22818  1.0000
  N   N7        1.0  0.95112  0.14065  0.28079  1.0000
  N   N8        1.0  0.45112  0.85936  0.71922  1.0000
  N   N9        1.0  0.04887  0.85936  0.71922  1.0000
  N   N10       1.0  0.54887  0.14065  0.28079  1.0000
  N   N11       1.0  0.74999  0.36899  0.43716  1.0000
  N   N12       1.0  0.25000  0.63101  0.56285  1.0000
  N   N13       1.0  0.25000  0.93114  0.56273  1.0000
  N   N14       1.0  0.75000  0.06886  0.43727  1.0000
