data_image0
_chemical_formula_structural       Cd2H24C14N10Cl2O12
_chemical_formula_sum              "Cd2 H24 C14 N10 Cl2 O12"
_cell_length_a       6.72765
_cell_length_b       8.82386
_cell_length_c       11.2831
_cell_angle_alpha    87.7679
_cell_angle_beta     77.0689
_cell_angle_gamma    77.5991

_space_group_name_H-M_alt    "P 1"
_space_group_IT_number       1

loop_
  _space_group_symop_operation_xyz
  'x, y, z'

loop_
  _atom_site_type_symbol
  _atom_site_label
  _atom_site_symmetry_multiplicity
  _atom_site_fract_x
  _atom_site_fract_y
  _atom_site_fract_z
  _atom_site_occupancy
  Cd  Cd1       1.0  0.65855  0.72508  0.63607  1.0000
  Cd  Cd2       1.0  0.34145  0.27492  0.36393  1.0000
  H   H1        1.0  0.86880  0.40886  0.58998  1.0000
  H   H2        1.0  0.13120  0.59114  0.41002  1.0000
  H   H3        1.0  0.65475  0.39693  0.56377  1.0000
  H   H4        1.0  0.34525  0.60307  0.43623  1.0000
  H   H5        1.0  0.27175  0.50900  0.95686  1.0000
  H   H6        1.0  0.72825  0.49100  0.04314  1.0000
  H   H7        1.0  0.05913  0.57205  0.08398  1.0000
  H   H8        1.0  0.94087  0.42795  0.91602  1.0000
  H   H9        1.0  0.31904  0.51870  0.10670  1.0000
  H   H10       1.0  0.68097  0.48130  0.89331  1.0000
  H   H11       1.0  0.08685  0.69197  0.23916  1.0000
  H   H12       1.0  0.91314  0.30804  0.76084  1.0000
  H   H13       1.0  0.24066  0.71833  0.61731  1.0000
  H   H14       1.0  0.75934  0.28167  0.38269  1.0000
  H   H15       1.0  0.31530  0.85274  0.52995  1.0000
  H   H16       1.0  0.68470  0.14726  0.47005  1.0000
  H   H17       1.0  0.20945  0.25770  0.03589  1.0000
  H   H18       1.0  0.79056  0.74230  0.96410  1.0000
  H   H19       1.0  0.34381  0.21989  0.87618  1.0000
  H   H20       1.0  0.65620  0.78010  0.12382  1.0000
  H   H21       1.0  0.92793  0.02791  0.28172  1.0000
  H   H22       1.0  0.07206  0.97209  0.71828  1.0000
  H   H23       1.0  0.13955  0.94475  0.34706  1.0000
  H   H24       1.0  0.86044  0.05526  0.65294  1.0000
  C   C1        1.0  0.22288  0.57271  0.04327  1.0000
  C   C2        1.0  0.77713  0.42728  0.95674  1.0000
  C   C3        1.0  0.17109  0.84557  0.10486  1.0000
  C   C4        1.0  0.82890  0.15443  0.89514  1.0000
  C   C5        1.0  0.26764  0.03748  0.97515  1.0000
  C   C6        1.0  0.73236  0.96252  0.02485  1.0000
  C   C7        1.0  0.36226  0.92716  0.87713  1.0000
  C   C8        1.0  0.63774  0.07284  0.12287  1.0000
  C   C9        1.0  0.35155  0.76551  0.89963  1.0000
  C   C10       1.0  0.64846  0.23448  0.10037  1.0000
  C   C11       1.0  0.00728  0.91838  0.31487  1.0000
  C   C12       1.0  0.99271  0.08162  0.68513  1.0000
  C   C13       1.0  0.86784  0.85972  0.42315  1.0000
  C   C14       1.0  0.13216  0.14028  0.57685  1.0000
  N   N1        1.0  0.24727  0.73151  0.01591  1.0000
  N   N2        1.0  0.75273  0.26849  0.98409  1.0000
  N   N3        1.0  0.08309  0.80526  0.21620  1.0000
  N   N4        1.0  0.91690  0.19475  0.78380  1.0000
  N   N5        1.0  0.17773  0.99399  0.08510  1.0000
  N   N6        1.0  0.82227  0.00601  0.91490  1.0000
  N   N7        1.0  0.27163  0.18794  0.96047  1.0000
  N   N8        1.0  0.72838  0.81205  0.03953  1.0000
  N   N9        1.0  0.47150  0.95749  0.76612  1.0000
  N   N10       1.0  0.52850  0.04251  0.23388  1.0000
  Cl  Cl1       1.0  0.96756  0.66808  0.74371  1.0000
  Cl  Cl2       1.0  0.03245  0.33192  0.25629  1.0000
  O   O1        1.0  0.71671  0.45218  0.61612  1.0000
  O   O2        1.0  0.28329  0.54782  0.38388  1.0000
  O   O3        1.0  0.35888  0.74095  0.55365  1.0000
  O   O4        1.0  0.64111  0.25905  0.44635  1.0000
  O   O5        1.0  0.48512  0.09652  0.73926  1.0000
  O   O6        1.0  0.51489  0.90347  0.26074  1.0000
  O   O7        1.0  0.42988  0.65836  0.82366  1.0000
  O   O8        1.0  0.57012  0.34163  0.17635  1.0000
  O   O9        1.0  0.88121  0.71381  0.43642  1.0000
  O   O10       1.0  0.11879  0.28620  0.56358  1.0000
  O   O11       1.0  0.74991  0.95874  0.50055  1.0000
  O   O12       1.0  0.25009  0.04127  0.49946  1.0000
