data_image0
_chemical_formula_structural       Cd4H16C24Br4N4O8
_chemical_formula_sum              "Cd4 H16 C24 Br4 N4 O8"
_cell_length_a       3.90124
_cell_length_b       12.9221
_cell_length_c       15.0534
_cell_angle_alpha    89.9998
_cell_angle_beta     96.7618
_cell_angle_gamma    89.9999

_space_group_name_H-M_alt    "P 1"
_space_group_IT_number       1

loop_
  _space_group_symop_operation_xyz
  'x, y, z'

loop_
  _atom_site_type_symbol
  _atom_site_label
  _atom_site_symmetry_multiplicity
  _atom_site_fract_x
  _atom_site_fract_y
  _atom_site_fract_z
  _atom_site_occupancy
  Cd  Cd1       1.0  0.62021  0.57732  0.74986  1.0000
  Cd  Cd2       1.0  0.87978  0.07732  0.75014  1.0000
  Cd  Cd3       1.0  0.37978  0.42268  0.25014  1.0000
  Cd  Cd4       1.0  0.12020  0.92268  0.24986  1.0000
  H   H1        1.0  0.83330  0.92267  0.04748  1.0000
  H   H2        1.0  0.66670  0.42267  0.45252  1.0000
  H   H3        1.0  0.16671  0.07733  0.95252  1.0000
  H   H4        1.0  0.33329  0.57734  0.54748  1.0000
  H   H5        1.0  0.90317  0.82735  0.90555  1.0000
  H   H6        1.0  0.59683  0.32736  0.59445  1.0000
  H   H7        1.0  0.09685  0.17264  0.09445  1.0000
  H   H8        1.0  0.40315  0.67264  0.40555  1.0000
  H   H9        1.0  0.47412  0.59353  0.06556  1.0000
  H   H10       1.0  0.02588  0.09353  0.43444  1.0000
  H   H11       1.0  0.52588  0.40647  0.93444  1.0000
  H   H12       1.0  0.97412  0.90647  0.56556  1.0000
  H   H13       1.0  0.38791  0.69892  0.20135  1.0000
  H   H14       1.0  0.11209  0.19892  0.29865  1.0000
  H   H15       1.0  0.61208  0.30108  0.79866  1.0000
  H   H16       1.0  0.88792  0.80108  0.70135  1.0000
  C   C1        1.0  0.97457  0.84961  0.04835  1.0000
  C   C2        1.0  0.52545  0.34961  0.45165  1.0000
  C   C3        1.0  0.02544  0.15039  0.95165  1.0000
  C   C4        1.0  0.47454  0.65039  0.54835  1.0000
  C   C5        1.0  0.01226  0.79647  0.96997  1.0000
  C   C6        1.0  0.48773  0.29647  0.53003  1.0000
  C   C7        1.0  0.98775  0.20352  0.03003  1.0000
  C   C8        1.0  0.51225  0.70353  0.46997  1.0000
  C   C9        1.0  0.19954  0.70392  0.97500  1.0000
  C   C10       1.0  0.30046  0.20392  0.52500  1.0000
  C   C11       1.0  0.80047  0.29608  0.02500  1.0000
  C   C12       1.0  0.69953  0.79608  0.47500  1.0000
  C   C13       1.0  0.33106  0.66609  0.05912  1.0000
  C   C14       1.0  0.16894  0.16608  0.44088  1.0000
  C   C15       1.0  0.66895  0.33391  0.94088  1.0000
  C   C16       1.0  0.83106  0.83391  0.55912  1.0000
  C   C17       1.0  0.28132  0.72371  0.13463  1.0000
  C   C18       1.0  0.21869  0.22372  0.36537  1.0000
  C   C19       1.0  0.71869  0.27629  0.86537  1.0000
  C   C20       1.0  0.78132  0.77628  0.63463  1.0000
  C   C21       1.0  0.27845  0.65189  0.89061  1.0000
  C   C22       1.0  0.22154  0.15189  0.60938  1.0000
  C   C23       1.0  0.72156  0.34811  0.10939  1.0000
  C   C24       1.0  0.77845  0.84811  0.39062  1.0000
  Br  Br1       1.0  0.09002  0.44303  0.69946  1.0000
  Br  Br2       1.0  0.40998  0.94303  0.80054  1.0000
  Br  Br3       1.0  0.90998  0.55697  0.30054  1.0000
  Br  Br4       1.0  0.59001  0.05697  0.19946  1.0000
  N   N1        1.0  0.11091  0.81471  0.12922  1.0000
  N   N2        1.0  0.38909  0.31471  0.37078  1.0000
  N   N3        1.0  0.88909  0.18529  0.87078  1.0000
  N   N4        1.0  0.61091  0.68529  0.62923  1.0000
  O   O1        1.0  0.52336  0.58584  0.89704  1.0000
  O   O2        1.0  0.97664  0.08584  0.60296  1.0000
  O   O3        1.0  0.47667  0.41416  0.10296  1.0000
  O   O4        1.0  0.02333  0.91417  0.39704  1.0000
  O   O5        1.0  0.11596  0.68002  0.81597  1.0000
  O   O6        1.0  0.38405  0.18002  0.68403  1.0000
  O   O7        1.0  0.88406  0.31998  0.18403  1.0000
  O   O8        1.0  0.61595  0.81998  0.31597  1.0000
