data_image0
_chemical_formula_structural       Cd4H16C24I4N4O8
_chemical_formula_sum              "Cd4 H16 C24 I4 N4 O8"
_cell_length_a       4.14782
_cell_length_b       13.3059
_cell_length_c       14.8808
_cell_angle_alpha    90.0006
_cell_angle_beta     96.6756
_cell_angle_gamma    90.0002

_space_group_name_H-M_alt    "P 1"
_space_group_IT_number       1

loop_
  _space_group_symop_operation_xyz
  'x, y, z'

loop_
  _atom_site_type_symbol
  _atom_site_label
  _atom_site_symmetry_multiplicity
  _atom_site_fract_x
  _atom_site_fract_y
  _atom_site_fract_z
  _atom_site_occupancy
  Cd  Cd1       1.0  0.13297  0.92057  0.25420  1.0000
  Cd  Cd2       1.0  0.36702  0.42057  0.24580  1.0000
  Cd  Cd3       1.0  0.86702  0.07943  0.74580  1.0000
  Cd  Cd4       1.0  0.63298  0.57943  0.75420  1.0000
  H   H1        1.0  0.91678  0.79317  0.70688  1.0000
  H   H2        1.0  0.58321  0.29317  0.79312  1.0000
  H   H3        1.0  0.08323  0.20683  0.29312  1.0000
  H   H4        1.0  0.41679  0.70683  0.20688  1.0000
  H   H5        1.0  0.00148  0.89671  0.57042  1.0000
  H   H6        1.0  0.49854  0.39670  0.92957  1.0000
  H   H7        1.0  0.99853  0.10329  0.42957  1.0000
  H   H8        1.0  0.50146  0.60330  0.07042  1.0000
  H   H9        1.0  0.39478  0.68527  0.40925  1.0000
  H   H10       1.0  0.10523  0.18526  0.09075  1.0000
  H   H11       1.0  0.60521  0.31473  0.59075  1.0000
  H   H12       1.0  0.89476  0.81473  0.90925  1.0000
  H   H13       1.0  0.33032  0.59029  0.55173  1.0000
  H   H14       1.0  0.16970  0.09029  0.94827  1.0000
  H   H15       1.0  0.66969  0.40971  0.44827  1.0000
  H   H16       1.0  0.83030  0.90971  0.05173  1.0000
  C   C1        1.0  0.80122  0.77292  0.63987  1.0000
  C   C2        1.0  0.69879  0.27292  0.86013  1.0000
  C   C3        1.0  0.19880  0.22708  0.36013  1.0000
  C   C4        1.0  0.30121  0.72708  0.13987  1.0000
  C   C5        1.0  0.84941  0.82969  0.56401  1.0000
  C   C6        1.0  0.65061  0.32968  0.93599  1.0000
  C   C7        1.0  0.15059  0.17031  0.43599  1.0000
  C   C8        1.0  0.34939  0.67032  0.06401  1.0000
  C   C9        1.0  0.70718  0.79751  0.47914  1.0000
  C   C10       1.0  0.79282  0.29750  0.02086  1.0000
  C   C11       1.0  0.29282  0.20249  0.52086  1.0000
  C   C12       1.0  0.20715  0.70250  0.97914  1.0000
  C   C13       1.0  0.51202  0.71152  0.47422  1.0000
  C   C14       1.0  0.98800  0.21151  0.02578  1.0000
  C   C15       1.0  0.48799  0.28848  0.52578  1.0000
  C   C16       1.0  0.01198  0.78849  0.97423  1.0000
  C   C17       1.0  0.47655  0.65869  0.55286  1.0000
  C   C18       1.0  0.02347  0.15868  0.94714  1.0000
  C   C19       1.0  0.52347  0.34131  0.44714  1.0000
  C   C20       1.0  0.97652  0.84132  0.05286  1.0000
  C   C21       1.0  0.78351  0.84692  0.39331  1.0000
  C   C22       1.0  0.71648  0.34691  0.10669  1.0000
  C   C23       1.0  0.21648  0.15308  0.60669  1.0000
  C   C24       1.0  0.28351  0.65309  0.89331  1.0000
  I   I1        1.0  0.59513  0.05804  0.19643  1.0000
  I   I2        1.0  0.90486  0.55804  0.30357  1.0000
  I   I3        1.0  0.40487  0.94196  0.80357  1.0000
  I   I4        1.0  0.09517  0.44197  0.69642  1.0000
  N   N1        1.0  0.62216  0.68812  0.63430  1.0000
  N   N2        1.0  0.87788  0.18812  0.86569  1.0000
  N   N3        1.0  0.37788  0.31188  0.36570  1.0000
  N   N4        1.0  0.12212  0.81188  0.13431  1.0000
  O   O1        1.0  0.02822  0.90609  0.39935  1.0000
  O   O2        1.0  0.47176  0.40608  0.10065  1.0000
  O   O3        1.0  0.97177  0.09391  0.60065  1.0000
  O   O4        1.0  0.52824  0.59392  0.89935  1.0000
  O   O5        1.0  0.62004  0.82285  0.31878  1.0000
  O   O6        1.0  0.87995  0.32284  0.18121  1.0000
  O   O7        1.0  0.37994  0.17715  0.68122  1.0000
  O   O8        1.0  0.12006  0.67716  0.81878  1.0000
