data_image0
_chemical_formula_structural       Ag2H48C68N4O8F6
_chemical_formula_sum              "Ag2 H48 C68 N4 O8 F6"
_cell_length_a       10.3569
_cell_length_b       13.1941
_cell_length_c       14.4391
_cell_angle_alpha    71.0517
_cell_angle_beta     86.0008
_cell_angle_gamma    75.4961

_space_group_name_H-M_alt    "P 1"
_space_group_IT_number       1

loop_
  _space_group_symop_operation_xyz
  'x, y, z'

loop_
  _atom_site_type_symbol
  _atom_site_label
  _atom_site_symmetry_multiplicity
  _atom_site_fract_x
  _atom_site_fract_y
  _atom_site_fract_z
  _atom_site_occupancy
  Ag  Ag1       1.0  0.08292  0.09010  0.46520  1.0000
  Ag  Ag2       1.0  0.91708  0.90990  0.53479  1.0000
  H   H1        1.0  0.99882  0.06269  0.67800  1.0000
  H   H2        1.0  0.00118  0.93731  0.32199  1.0000
  H   H3        1.0  0.80085  0.13646  0.76950  1.0000
  H   H4        1.0  0.19915  0.86354  0.23050  1.0000
  H   H5        1.0  0.60184  0.27048  0.67269  1.0000
  H   H6        1.0  0.39817  0.72952  0.32731  1.0000
  H   H7        1.0  0.82176  0.25980  0.41042  1.0000
  H   H8        1.0  0.17824  0.74020  0.58957  1.0000
  H   H9        1.0  0.55972  0.32195  0.41455  1.0000
  H   H10       1.0  0.44028  0.67805  0.58545  1.0000
  H   H11       1.0  0.49219  0.37174  0.51370  1.0000
  H   H12       1.0  0.50781  0.62826  0.48630  1.0000
  H   H13       1.0  0.39834  0.44872  0.34247  1.0000
  H   H14       1.0  0.60166  0.55128  0.65753  1.0000
  H   H15       1.0  0.29134  0.58328  0.19070  1.0000
  H   H16       1.0  0.70866  0.41672  0.80930  1.0000
  H   H17       1.0  0.28732  0.75097  0.04775  1.0000
  H   H18       1.0  0.71269  0.24903  0.95225  1.0000
  H   H19       1.0  0.38803  0.90530  0.95473  1.0000
  H   H20       1.0  0.61197  0.09470  0.04527  1.0000
  H   H21       1.0  0.60130  0.92120  0.01389  1.0000
  H   H22       1.0  0.39870  0.07881  0.98612  1.0000
  H   H23       1.0  0.71067  0.78515  0.16632  1.0000
  H   H24       1.0  0.28933  0.21485  0.83368  1.0000
  H   H25       1.0  0.79344  0.45368  0.25091  1.0000
  H   H26       1.0  0.20656  0.54632  0.74909  1.0000
  H   H27       1.0  0.00768  0.32201  0.25268  1.0000
  H   H28       1.0  0.99232  0.67799  0.74733  1.0000
  H   H29       1.0  0.21246  0.33887  0.32438  1.0000
  H   H30       1.0  0.78754  0.66113  0.67562  1.0000
  H   H31       1.0  0.19474  0.48991  0.39704  1.0000
  H   H32       1.0  0.80526  0.51009  0.60296  1.0000
  H   H33       1.0  0.06145  0.64789  0.44057  1.0000
  H   H34       1.0  0.93855  0.35211  0.55943  1.0000
  H   H35       1.0  0.84645  0.77847  0.44395  1.0000
  H   H36       1.0  0.15355  0.22153  0.55605  1.0000
  H   H37       1.0  0.68577  0.90672  0.38043  1.0000
  H   H38       1.0  0.31423  0.09328  0.61957  1.0000
  H   H39       1.0  0.59684  0.84147  0.48403  1.0000
  H   H40       1.0  0.40316  0.15853  0.51597  1.0000
  H   H41       1.0  0.54395  0.97526  0.20990  1.0000
  H   H42       1.0  0.45605  0.02474  0.79010  1.0000
  H   H43       1.0  0.33184  0.11330  0.13703  1.0000
  H   H44       1.0  0.66816  0.88669  0.86297  1.0000
  H   H45       1.0  0.14532  0.15509  0.24987  1.0000
  H   H46       1.0  0.85468  0.84491  0.75013  1.0000
  H   H47       1.0  0.37147  0.94921  0.49532  1.0000
  H   H48       1.0  0.62853  0.05079  0.50468  1.0000
  C   C1        1.0  0.19070  0.87858  0.68499  1.0000
  C   C2        1.0  0.80929  0.12142  0.31501  1.0000
  C   C3        1.0  0.31275  0.79400  0.74818  1.0000
  C   C4        1.0  0.68724  0.20601  0.25183  1.0000
  C   C5        1.0  0.91195  0.12463  0.64020  1.0000
  C   C6        1.0  0.08805  0.87537  0.35980  1.0000
  C   C7        1.0  0.80156  0.16491  0.68975  1.0000
  C   C8        1.0  0.19844  0.83509  0.31025  1.0000
  C   C9        1.0  0.69157  0.24049  0.63612  1.0000
  C   C10       1.0  0.30843  0.75951  0.36387  1.0000
  C   C11       1.0  0.69620  0.27573  0.53404  1.0000
  C   C12       1.0  0.30381  0.72427  0.46595  1.0000
  C   C13       1.0  0.81170  0.23317  0.48981  1.0000
  C   C14       1.0  0.18830  0.76683  0.51019  1.0000
  C   C15       1.0  0.58199  0.35575  0.47037  1.0000
  C   C16       1.0  0.41801  0.64424  0.52963  1.0000
  C   C17       1.0  0.56163  0.52697  0.33726  1.0000
  C   C18       1.0  0.43837  0.47303  0.66274  1.0000
  C   C19       1.0  0.44361  0.51585  0.30175  1.0000
  C   C20       1.0  0.55639  0.48415  0.69825  1.0000
  C   C21       1.0  0.38385  0.59135  0.21628  1.0000
  C   C22       1.0  0.61615  0.40864  0.78372  1.0000
  C   C23       1.0  0.43943  0.68042  0.16184  1.0000
  C   C24       1.0  0.56058  0.31958  0.83815  1.0000
  C   C25       1.0  0.37884  0.75983  0.07413  1.0000
  C   C26       1.0  0.62117  0.24017  0.92587  1.0000
  C   C27       1.0  0.43528  0.84553  0.02231  1.0000
  C   C28       1.0  0.56472  0.15447  0.97769  1.0000
  C   C29       1.0  0.55609  0.85410  0.05583  1.0000
  C   C30       1.0  0.44392  0.14590  0.94417  1.0000
  C   C31       1.0  0.61724  0.77867  0.14092  1.0000
  C   C32       1.0  0.38276  0.22133  0.85908  1.0000
  C   C33       1.0  0.56043  0.69062  0.19723  1.0000
  C   C34       1.0  0.43957  0.30938  0.80277  1.0000
  C   C35       1.0  0.62033  0.61342  0.28669  1.0000
  C   C36       1.0  0.37967  0.38658  0.71331  1.0000
  C   C37       1.0  0.74317  0.62354  0.32661  1.0000
  C   C38       1.0  0.25683  0.37646  0.67339  1.0000
  C   C39       1.0  0.86791  0.54812  0.32408  1.0000
  C   C40       1.0  0.13209  0.45188  0.67592  1.0000
  C   C41       1.0  0.88107  0.46188  0.28278  1.0000
  C   C42       1.0  0.11894  0.53811  0.71722  1.0000
  C   C43       1.0  0.00234  0.38850  0.28314  1.0000
  C   C44       1.0  0.99767  0.61150  0.71686  1.0000
  C   C45       1.0  0.11743  0.39810  0.32398  1.0000
  C   C46       1.0  0.88257  0.60190  0.67602  1.0000
  C   C47       1.0  0.10825  0.48161  0.36366  1.0000
  C   C48       1.0  0.89175  0.51839  0.63634  1.0000
  C   C49       1.0  0.98489  0.55813  0.36470  1.0000
  C   C50       1.0  0.01510  0.44187  0.63531  1.0000
  C   C51       1.0  0.97329  0.64277  0.40694  1.0000
  C   C52       1.0  0.02671  0.35723  0.59306  1.0000
  C   C53       1.0  0.85273  0.71571  0.40887  1.0000
  C   C54       1.0  0.14727  0.28429  0.59113  1.0000
  C   C55       1.0  0.73751  0.70638  0.36828  1.0000
  C   C56       1.0  0.26249  0.29362  0.63172  1.0000
  C   C57       1.0  0.60089  0.86846  0.40331  1.0000
  C   C58       1.0  0.39911  0.13154  0.59669  1.0000
  C   C59       1.0  0.47519  0.95145  0.35833  1.0000
  C   C60       1.0  0.52482  0.04855  0.64167  1.0000
  C   C61       1.0  0.46245  0.99889  0.25651  1.0000
  C   C62       1.0  0.53756  0.00111  0.74349  1.0000
  C   C63       1.0  0.34472  0.07436  0.21592  1.0000
  C   C64       1.0  0.65527  0.92564  0.78408  1.0000
  C   C65       1.0  0.24159  0.10005  0.27785  1.0000
  C   C66       1.0  0.75841  0.89995  0.72215  1.0000
  C   C67       1.0  0.36831  0.98316  0.41543  1.0000
  C   C68       1.0  0.63170  0.01684  0.58456  1.0000
  N   N1        1.0  0.91644  0.15818  0.54143  1.0000
  N   N2        1.0  0.08356  0.84181  0.45857  1.0000
  N   N3        1.0  0.25350  0.05565  0.37604  1.0000
  N   N4        1.0  0.74651  0.94435  0.62396  1.0000
  O   O1        1.0  0.22069  0.96228  0.62405  1.0000
  O   O2        1.0  0.77933  0.03771  0.37594  1.0000
  O   O3        1.0  0.08032  0.85409  0.70380  1.0000
  O   O4        1.0  0.91968  0.14593  0.29619  1.0000
  O   O5        1.0  0.62375  0.45654  0.42304  1.0000
  O   O6        1.0  0.37624  0.54345  0.57696  1.0000
  O   O7        1.0  0.61375  0.77559  0.36854  1.0000
  O   O8        1.0  0.38625  0.22441  0.63146  1.0000
  F   F1        1.0  0.33179  0.82367  0.82794  1.0000
  F   F2        1.0  0.66820  0.17635  0.17206  1.0000
  F   F3        1.0  0.29787  0.68851  0.78262  1.0000
  F   F4        1.0  0.70210  0.31151  0.21740  1.0000
  F   F5        1.0  0.43009  0.78997  0.69708  1.0000
  F   F6        1.0  0.56990  0.21002  0.30294  1.0000
