data_image0
_chemical_formula_structural       CdP2H54C36S4N4O4
_chemical_formula_sum              "Cd1 P2 H54 C36 S4 N4 O4"
_cell_length_a       9.27904
_cell_length_b       11.5674
_cell_length_c       12.6901
_cell_angle_alpha    113.62
_cell_angle_beta     107.836
_cell_angle_gamma    90.2331

_space_group_name_H-M_alt    "P 1"
_space_group_IT_number       1

loop_
  _space_group_symop_operation_xyz
  'x, y, z'

loop_
  _atom_site_type_symbol
  _atom_site_label
  _atom_site_symmetry_multiplicity
  _atom_site_fract_x
  _atom_site_fract_y
  _atom_site_fract_z
  _atom_site_occupancy
  Cd  Cd1       1.0  0.50000  0.50000  0.50000  1.0000
  P   P1        1.0  0.50595  0.36499  0.23222  1.0000
  P   P2        1.0  0.49406  0.63501  0.76778  1.0000
  H   H1        1.0  0.19355  0.28769  0.13185  1.0000
  H   H2        1.0  0.80646  0.71231  0.86814  1.0000
  H   H3        1.0  0.12064  0.06825  0.09980  1.0000
  H   H4        1.0  0.87936  0.93175  0.90020  1.0000
  H   H5        1.0  0.30412  0.13091  0.21275  1.0000
  H   H6        1.0  0.69588  0.86909  0.78725  1.0000
  H   H7        1.0  0.42984  0.01374  0.06351  1.0000
  H   H8        1.0  0.57016  0.98626  0.93649  1.0000
  H   H9        1.0  0.29561  0.90536  0.06333  1.0000
  H   H10       1.0  0.70438  0.09463  0.93667  1.0000
  H   H11       1.0  0.10781  0.90104  0.87545  1.0000
  H   H12       1.0  0.89219  0.09897  0.12454  1.0000
  H   H13       1.0  0.28250  0.86695  0.84994  1.0000
  H   H14       1.0  0.71751  0.13305  0.15006  1.0000
  H   H15       1.0  0.16536  0.02365  0.76778  1.0000
  H   H16       1.0  0.83465  0.97635  0.23222  1.0000
  H   H17       1.0  0.34715  0.08927  0.88084  1.0000
  H   H18       1.0  0.65286  0.91073  0.11916  1.0000
  H   H19       1.0  0.16401  0.24627  0.91815  1.0000
  H   H20       1.0  0.83598  0.75373  0.08184  1.0000
  H   H21       1.0  0.03904  0.13401  0.92300  1.0000
  H   H22       1.0  0.96097  0.86598  0.07700  1.0000
  H   H23       1.0  0.50913  0.45849  0.07444  1.0000
  H   H24       1.0  0.49086  0.54151  0.92556  1.0000
  H   H25       1.0  0.66803  0.64480  0.26109  1.0000
  H   H26       1.0  0.33196  0.35520  0.73890  1.0000
  H   H27       1.0  0.68549  0.64347  0.12582  1.0000
  H   H28       1.0  0.31451  0.35653  0.87417  1.0000
  H   H29       1.0  0.94373  0.70148  0.28146  1.0000
  H   H30       1.0  0.05627  0.29851  0.71853  1.0000
  H   H31       1.0  0.91652  0.56766  0.30997  1.0000
  H   H32       1.0  0.08347  0.43233  0.69002  1.0000
  H   H33       1.0  0.93628  0.56441  0.07157  1.0000
  H   H34       1.0  0.06372  0.43558  0.92843  1.0000
  H   H35       1.0  0.07620  0.52348  0.17584  1.0000
  H   H36       1.0  0.92379  0.47651  0.82415  1.0000
  H   H37       1.0  0.89588  0.33540  0.12976  1.0000
  H   H38       1.0  0.10410  0.66459  0.87024  1.0000
  H   H39       1.0  0.91396  0.32984  0.99349  1.0000
  H   H40       1.0  0.08602  0.67015  0.00649  1.0000
  H   H41       1.0  0.67147  0.41678  0.94646  1.0000
  H   H42       1.0  0.32851  0.58321  0.05353  1.0000
  H   H43       1.0  0.63731  0.28052  0.97118  1.0000
  H   H44       1.0  0.36268  0.71948  0.02882  1.0000
  H   H45       1.0  0.63593  0.74524  0.48075  1.0000
  H   H46       1.0  0.36407  0.25476  0.51927  1.0000
  H   H47       1.0  0.13108  0.79832  0.61026  1.0000
  H   H48       1.0  0.86892  0.20170  0.38975  1.0000
  H   H49       1.0  0.11852  0.61537  0.66517  1.0000
  H   H50       1.0  0.88149  0.38466  0.33486  1.0000
  H   H51       1.0  0.85795  0.50347  0.62186  1.0000
  H   H52       1.0  0.14206  0.49655  0.37817  1.0000
  H   H53       1.0  0.77359  0.91961  0.46692  1.0000
  H   H54       1.0  0.22640  0.08039  0.53308  1.0000
  C   C1        1.0  0.24299  0.20825  0.07800  1.0000
  C   C2        1.0  0.75701  0.79175  0.92200  1.0000
  C   C3        1.0  0.24113  0.09772  0.11471  1.0000
  C   C4        1.0  0.75887  0.90228  0.88529  1.0000
  C   C5        1.0  0.30648  0.98540  0.03905  1.0000
  C   C6        1.0  0.69352  0.01460  0.96095  1.0000
  C   C7        1.0  0.22750  0.94295  0.90162  1.0000
  C   C8        1.0  0.77251  0.05705  0.09838  1.0000
  C   C9        1.0  0.22851  0.05463  0.86568  1.0000
  C   C10       1.0  0.77150  0.94537  0.13432  1.0000
  C   C11       1.0  0.16040  0.16477  0.94161  1.0000
  C   C12       1.0  0.83960  0.83523  0.05839  1.0000
  C   C13       1.0  0.63227  0.45866  0.11477  1.0000
  C   C14       1.0  0.36773  0.54133  0.88522  1.0000
  C   C15       1.0  0.71473  0.59535  0.18754  1.0000
  C   C16       1.0  0.28526  0.40464  0.81245  1.0000
  C   C17       1.0  0.88855  0.60166  0.23749  1.0000
  C   C18       1.0  0.11144  0.39833  0.76251  1.0000
  C   C19       1.0  0.95209  0.52147  0.13712  1.0000
  C   C20       1.0  0.04790  0.47852  0.86287  1.0000
  C   C21       1.0  0.87060  0.38357  0.06817  1.0000
  C   C22       1.0  0.12939  0.61642  0.93182  1.0000
  C   C23       1.0  0.69727  0.37884  0.01630  1.0000
  C   C24       1.0  0.30272  0.62116  0.98369  1.0000
  C   C25       1.0  0.74580  0.72029  0.52235  1.0000
  C   C26       1.0  0.25421  0.27972  0.47767  1.0000
  C   C27       1.0  0.88461  0.78794  0.54231  1.0000
  C   C28       1.0  0.11539  0.21208  0.45770  1.0000
  C   C29       1.0  0.02113  0.74883  0.59449  1.0000
  C   C30       1.0  0.97887  0.25118  0.40552  1.0000
  C   C31       1.0  0.01380  0.64667  0.62447  1.0000
  C   C32       1.0  0.98621  0.35335  0.37556  1.0000
  C   C33       1.0  0.87040  0.58482  0.60076  1.0000
  C   C34       1.0  0.12960  0.41520  0.39927  1.0000
  C   C35       1.0  0.88389  0.89255  0.50660  1.0000
  C   C36       1.0  0.11609  0.10745  0.49340  1.0000
  S   S1        1.0  0.58563  0.29238  0.35405  1.0000
  S   S2        1.0  0.41437  0.70762  0.64594  1.0000
  S   S3        1.0  0.39559  0.51626  0.28254  1.0000
  S   S4        1.0  0.60441  0.48374  0.71747  1.0000
  N   N1        1.0  0.73951  0.62098  0.55037  1.0000
  N   N2        1.0  0.26050  0.37903  0.44965  1.0000
  N   N3        1.0  0.01122  0.95226  0.52001  1.0000
  N   N4        1.0  0.98877  0.04774  0.47999  1.0000
  O   O1        1.0  0.40128  0.25812  0.10116  1.0000
  O   O2        1.0  0.59873  0.74188  0.89883  1.0000
  O   O3        1.0  0.65042  0.39715  0.19917  1.0000
  O   O4        1.0  0.34958  0.60285  0.80083  1.0000
