data_image0
_chemical_formula_structural       FeHg2H20C30S6N10
_chemical_formula_sum              "Fe1 Hg2 H20 C30 S6 N10"
_cell_length_a       8.53037
_cell_length_b       8.81805
_cell_length_c       13.3123
_cell_angle_alpha    75.2371
_cell_angle_beta     72.3846
_cell_angle_gamma    89.0057

_space_group_name_H-M_alt    "P 1"
_space_group_IT_number       1

loop_
  _space_group_symop_operation_xyz
  'x, y, z'

loop_
  _atom_site_type_symbol
  _atom_site_label
  _atom_site_symmetry_multiplicity
  _atom_site_fract_x
  _atom_site_fract_y
  _atom_site_fract_z
  _atom_site_occupancy
  Fe  Fe1       1.0  0.50000  1.00000  0.50000  1.0000
  Hg  Hg1       1.0  0.97547  0.57554  0.61545  1.0000
  Hg  Hg2       1.0  0.02453  0.42446  0.38455  1.0000
  H   H1        1.0  0.60302  0.80157  0.34702  1.0000
  H   H2        1.0  0.39698  0.19842  0.65298  1.0000
  H   H3        1.0  0.60059  0.81035  0.16185  1.0000
  H   H4        1.0  0.39941  0.18965  0.83815  1.0000
  H   H5        1.0  0.43537  0.28192  0.13566  1.0000
  H   H6        1.0  0.56463  0.71809  0.86434  1.0000
  H   H7        1.0  0.44177  0.25268  0.32414  1.0000
  H   H8        1.0  0.55823  0.74732  0.67586  1.0000
  H   H9        1.0  0.45582  0.17314  0.98718  1.0000
  H   H10       1.0  0.54418  0.82686  0.01282  1.0000
  H   H11       1.0  0.14468  0.53939  0.81085  1.0000
  H   H12       1.0  0.85532  0.46061  0.18915  1.0000
  H   H13       1.0  0.17005  0.66770  0.95310  1.0000
  H   H14       1.0  0.82995  0.33230  0.04689  1.0000
  H   H15       1.0  0.88578  0.03883  0.82607  1.0000
  H   H16       1.0  0.11422  0.96117  0.17393  1.0000
  H   H17       1.0  0.87260  0.89510  0.69209  1.0000
  H   H18       1.0  0.12741  0.10491  0.30791  1.0000
  H   H19       1.0  0.12144  0.88048  0.03407  1.0000
  H   H20       1.0  0.87856  0.11951  0.96593  1.0000
  C   C1        1.0  0.84301  0.87253  0.46228  1.0000
  C   C2        1.0  0.15699  0.12747  0.53772  1.0000
  C   C3        1.0  0.35318  0.66401  0.55446  1.0000
  C   C4        1.0  0.64682  0.33599  0.44554  1.0000
  C   C5        1.0  0.69410  0.42617  0.83215  1.0000
  C   C6        1.0  0.30590  0.57384  0.16786  1.0000
  C   C7        1.0  0.56519  0.90547  0.29796  1.0000
  C   C8        1.0  0.43481  0.09453  0.70204  1.0000
  C   C9        1.0  0.56264  0.91177  0.19373  1.0000
  C   C10       1.0  0.43735  0.08823  0.80627  1.0000
  C   C11       1.0  0.50932  0.04561  0.13197  1.0000
  C   C12       1.0  0.49068  0.95439  0.86803  1.0000
  C   C13       1.0  0.47077  0.17198  0.18027  1.0000
  C   C14       1.0  0.52923  0.82802  0.81973  1.0000
  C   C15       1.0  0.47511  0.15698  0.28547  1.0000
  C   C16       1.0  0.52489  0.84302  0.71453  1.0000
  C   C17       1.0  0.49009  0.05825  0.02593  1.0000
  C   C18       1.0  0.50991  0.94175  0.97407  1.0000
  C   C19       1.0  0.08768  0.64936  0.81856  1.0000
  C   C20       1.0  0.91232  0.35064  0.18144  1.0000
  C   C21       1.0  0.10159  0.72134  0.89716  1.0000
  C   C22       1.0  0.89841  0.27865  0.10283  1.0000
  C   C23       1.0  0.02693  0.86371  0.90406  1.0000
  C   C24       1.0  0.97307  0.13629  0.09594  1.0000
  C   C25       1.0  0.94342  0.92734  0.82799  1.0000
  C   C26       1.0  0.05658  0.07266  0.17201  1.0000
  C   C27       1.0  0.93568  0.84752  0.75219  1.0000
  C   C28       1.0  0.06432  0.15249  0.24781  1.0000
  C   C29       1.0  0.03990  0.93677  0.98809  1.0000
  C   C30       1.0  0.96010  0.06323  0.01191  1.0000
  S   S1        1.0  0.02768  0.80525  0.43864  1.0000
  S   S2        1.0  0.97232  0.19475  0.56136  1.0000
  S   S3        1.0  0.27177  0.48497  0.58062  1.0000
  S   S4        1.0  0.72823  0.51503  0.41938  1.0000
  S   S5        1.0  0.69031  0.44969  0.70485  1.0000
  S   S6        1.0  0.30969  0.55031  0.29516  1.0000
  N   N1        1.0  0.71216  0.92361  0.47582  1.0000
  N   N2        1.0  0.28784  0.07638  0.52418  1.0000
  N   N3        1.0  0.40889  0.79300  0.53513  1.0000
  N   N4        1.0  0.59111  0.20700  0.46487  1.0000
  N   N5        1.0  0.69349  0.40911  0.92307  1.0000
  N   N6        1.0  0.30651  0.59091  0.07694  1.0000
  N   N7        1.0  0.51767  0.02422  0.34594  1.0000
  N   N8        1.0  0.48233  0.97578  0.65406  1.0000
  N   N9        1.0  0.00565  0.71062  0.74741  1.0000
  N   N10       1.0  0.99435  0.28938  0.25258  1.0000
