data_image0
_chemical_formula_structural       FeHg2H28C34S6N14
_chemical_formula_sum              "Fe1 Hg2 H28 C34 S6 N14"
_cell_length_a       8.39087
_cell_length_b       9.32479
_cell_length_c       15.0358
_cell_angle_alpha    101.291
_cell_angle_beta     101.827
_cell_angle_gamma    91.8635

_space_group_name_H-M_alt    "P 1"
_space_group_IT_number       1

loop_
  _space_group_symop_operation_xyz
  'x, y, z'

loop_
  _atom_site_type_symbol
  _atom_site_label
  _atom_site_symmetry_multiplicity
  _atom_site_fract_x
  _atom_site_fract_y
  _atom_site_fract_z
  _atom_site_occupancy
  Fe  Fe1       1.0  0.00745  0.49690  0.51243  1.0000
  Hg  Hg1       1.0  0.58424  0.92122  0.60773  1.0000
  Hg  Hg2       1.0  0.41781  0.08074  0.39262  1.0000
  H   H1        1.0  0.20379  0.68999  0.68463  1.0000
  H   H2        1.0  0.79774  0.30787  0.30931  1.0000
  H   H3        1.0  0.34261  0.66330  0.84129  1.0000
  H   H4        1.0  0.65617  0.33694  0.15237  1.0000
  H   H5        1.0  0.99491  0.26250  0.61938  1.0000
  H   H6        1.0  0.99827  0.73693  0.37894  1.0000
  H   H7        1.0  0.12048  0.21892  0.77368  1.0000
  H   H8        1.0  0.87293  0.78342  0.22382  1.0000
  H   H9        1.0  0.89701  0.89493  0.77081  1.0000
  H   H10       1.0  0.10428  0.10670  0.23028  1.0000
  H   H11       1.0  0.00978  0.73673  0.88114  1.0000
  H   H12       1.0  0.99220  0.26375  0.11895  1.0000
  H   H13       1.0  0.59178  0.42741  0.75256  1.0000
  H   H14       1.0  0.40908  0.57419  0.24781  1.0000
  H   H15       1.0  0.49585  0.59805  0.64936  1.0000
  H   H16       1.0  0.50498  0.40413  0.35158  1.0000
  H   H17       1.0  0.33266  0.17650  0.89570  1.0000
  H   H18       1.0  0.66467  0.82523  0.10078  1.0000
  H   H19       1.0  0.17222  0.25977  0.94135  1.0000
  H   H20       1.0  0.82593  0.74267  0.05582  1.0000
  H   H21       1.0  0.37327  0.27707  0.01274  1.0000
  H   H22       1.0  0.62536  0.72516  0.98364  1.0000
  H   H23       1.0  0.86218  0.26285  0.92715  1.0000
  H   H24       1.0  0.13793  0.73751  0.07268  1.0000
  H   H25       1.0  0.80205  0.26445  0.80540  1.0000
  H   H26       1.0  0.19732  0.73631  0.19447  1.0000
  H   H27       1.0  0.66717  0.31774  0.87971  1.0000
  H   H28       1.0  0.33321  0.68368  0.12068  1.0000
  C   C1        1.0  0.32620  0.63565  0.48469  1.0000
  C   C2        1.0  0.67687  0.36159  0.52502  1.0000
  C   C3        1.0  0.91910  0.81609  0.56329  1.0000
  C   C4        1.0  0.08626  0.17946  0.44390  1.0000
  C   C5        1.0  0.19148  0.58640  0.70625  1.0000
  C   C6        1.0  0.80820  0.41243  0.28832  1.0000
  C   C7        1.0  0.26817  0.57057  0.79415  1.0000
  C   C8        1.0  0.73026  0.42892  0.20045  1.0000
  C   C9        1.0  0.25019  0.43615  0.82155  1.0000
  C   C10       1.0  0.74739  0.56474  0.17465  1.0000
  C   C11       1.0  0.07209  0.34873  0.67062  1.0000
  C   C12       1.0  0.92289  0.65081  0.32620  1.0000
  C   C13       1.0  0.14437  0.32561  0.75779  1.0000
  C   C14       1.0  0.85104  0.67600  0.23911  1.0000
  C   C15       1.0  0.34150  0.41112  0.91135  1.0000
  C   C16       1.0  0.65626  0.59067  0.08470  1.0000
  C   C17       1.0  0.83123  0.79210  0.77096  1.0000
  C   C18       1.0  0.17003  0.20935  0.22983  1.0000
  C   C19       1.0  0.89432  0.70360  0.83165  1.0000
  C   C20       1.0  0.10734  0.29725  0.16868  1.0000
  C   C21       1.0  0.80818  0.56989  0.82812  1.0000
  C   C22       1.0  0.19326  0.43102  0.17211  1.0000
  C   C23       1.0  0.66351  0.53026  0.76031  1.0000
  C   C24       1.0  0.33759  0.47124  0.24015  1.0000
  C   C25       1.0  0.60823  0.62593  0.70243  1.0000
  C   C26       1.0  0.39274  0.37602  0.29838  1.0000
  C   C27       1.0  0.86665  0.47644  0.89495  1.0000
  C   C28       1.0  0.13449  0.52406  0.10509  1.0000
  C   C29       1.0  0.30326  0.27349  0.94247  1.0000
  C   C30       1.0  0.69472  0.72855  0.05403  1.0000
  C   C31       1.0  0.79682  0.32095  0.87603  1.0000
  C   C32       1.0  0.20338  0.67983  0.12398  1.0000
  C   C33       1.0  0.32732  0.99121  0.74249  1.0000
  C   C34       1.0  0.67182  0.00589  0.25753  1.0000
  S   S1        1.0  0.48882  0.71042  0.46169  1.0000
  S   S2        1.0  0.50492  0.28982  0.53914  1.0000
  S   S3        1.0  0.86968  0.98680  0.58220  1.0000
  S   S4        1.0  0.13063  0.00884  0.41423  1.0000
  S   S5        1.0  0.41156  0.09483  0.68347  1.0000
  S   S6        1.0  0.58530  0.90316  0.31610  1.0000
  N   N1        1.0  0.21050  0.57640  0.49873  1.0000
  N   N2        1.0  0.79926  0.41943  0.51803  1.0000
  N   N3        1.0  0.95209  0.69311  0.54921  1.0000
  N   N4        1.0  0.05706  0.30236  0.46600  1.0000
  N   N5        1.0  0.09773  0.47584  0.64331  1.0000
  N   N6        1.0  0.89979  0.52259  0.35080  1.0000
  N   N7        1.0  0.68908  0.75500  0.70833  1.0000
  N   N8        1.0  0.31186  0.24707  0.29271  1.0000
  N   N9        1.0  0.45540  0.51394  0.95663  1.0000
  N   N10       1.0  0.54232  0.48819  0.03927  1.0000
  N   N11       1.0  0.97503  0.54248  0.96805  1.0000
  N   N12       1.0  0.02637  0.45767  0.03194  1.0000
  N   N13       1.0  0.26189  0.92709  0.78698  1.0000
  N   N14       1.0  0.73819  0.06939  0.21314  1.0000
