data_image0
_chemical_formula_structural       CuH14C8N2O6
_chemical_formula_sum              "Cu1 H14 C8 N2 O6"
_cell_length_a       5.16315
_cell_length_b       7.27016
_cell_length_c       7.50056
_cell_angle_alpha    105.826
_cell_angle_beta     99.4591
_cell_angle_gamma    100.723

_space_group_name_H-M_alt    "P 1"
_space_group_IT_number       1

loop_
  _space_group_symop_operation_xyz
  'x, y, z'

loop_
  _atom_site_type_symbol
  _atom_site_label
  _atom_site_symmetry_multiplicity
  _atom_site_fract_x
  _atom_site_fract_y
  _atom_site_fract_z
  _atom_site_occupancy
  Cu  Cu1       1.0  0.50002  0.50000  0.50000  1.0000
  H   H1        1.0  0.39422  0.12899  0.96053  1.0000
  H   H2        1.0  0.60575  0.87100  0.03946  1.0000
  H   H3        1.0  0.58151  0.37887  0.05456  1.0000
  H   H4        1.0  0.41846  0.62112  0.94541  1.0000
  H   H5        1.0  0.08097  0.34487  0.98128  1.0000
  H   H6        1.0  0.91899  0.65513  0.01872  1.0000
  H   H7        1.0  0.04128  0.20519  0.13811  1.0000
  H   H8        1.0  0.95870  0.79480  0.86190  1.0000
  H   H9        1.0  0.05298  0.51599  0.32035  1.0000
  H   H10       1.0  0.94704  0.48401  0.67966  1.0000
  H   H11       1.0  0.29986  0.62915  0.24823  1.0000
  H   H12       1.0  0.70015  0.37085  0.75178  1.0000
  H   H13       1.0  0.47690  0.11270  0.26931  1.0000
  H   H14       1.0  0.52311  0.88730  0.73068  1.0000
  C   C1        1.0  0.44266  0.26279  0.08463  1.0000
  C   C2        1.0  0.55732  0.73722  0.91536  1.0000
  C   C3        1.0  0.18182  0.32366  0.11300  1.0000
  C   C4        1.0  0.81817  0.67633  0.88700  1.0000
  C   C5        1.0  0.90735  0.85061  0.46360  1.0000
  C   C6        1.0  0.09270  0.14944  0.53642  1.0000
  C   C7        1.0  0.12977  0.96644  0.40828  1.0000
  C   C8        1.0  0.87025  0.03357  0.59175  1.0000
  N   N1        1.0  0.23094  0.50167  0.27898  1.0000
  N   N2        1.0  0.76907  0.49832  0.72103  1.0000
  O   O1        1.0  0.58623  0.23340  0.25080  1.0000
  O   O2        1.0  0.41378  0.76660  0.74919  1.0000
  O   O3        1.0  0.80095  0.66784  0.41327  1.0000
  O   O4        1.0  0.19904  0.33213  0.58674  1.0000
  O   O5        1.0  0.28179  0.92298  0.29665  1.0000
  O   O6        1.0  0.71825  0.07702  0.70334  1.0000
