data_image0
_chemical_formula_structural       Cd2H56C52N8O12
_chemical_formula_sum              "Cd2 H56 C52 N8 O12"
_cell_length_a       10.3487
_cell_length_b       10.4746
_cell_length_c       13.6982
_cell_angle_alpha    98.1314
_cell_angle_beta     105.925
_cell_angle_gamma    106.274

_space_group_name_H-M_alt    "P 1"
_space_group_IT_number       1

loop_
  _space_group_symop_operation_xyz
  'x, y, z'

loop_
  _atom_site_type_symbol
  _atom_site_label
  _atom_site_symmetry_multiplicity
  _atom_site_fract_x
  _atom_site_fract_y
  _atom_site_fract_z
  _atom_site_occupancy
  Cd  Cd1       1.0  0.60534  0.88684  0.93154  1.0000
  Cd  Cd2       1.0  0.39466  0.11316  0.06846  1.0000
  H   H1        1.0  0.70868  0.20360  0.51840  1.0000
  H   H2        1.0  0.29132  0.79641  0.48160  1.0000
  H   H3        1.0  0.52577  0.44343  0.27878  1.0000
  H   H4        1.0  0.47424  0.55657  0.72122  1.0000
  H   H5        1.0  0.10432  0.77063  0.69743  1.0000
  H   H6        1.0  0.89569  0.22937  0.30257  1.0000
  H   H7        1.0  0.16175  0.62620  0.70627  1.0000
  H   H8        1.0  0.83826  0.37380  0.29373  1.0000
  H   H9        1.0  0.91063  0.55795  0.59244  1.0000
  H   H10       1.0  0.08938  0.44205  0.40756  1.0000
  H   H11       1.0  0.98362  0.39576  0.69413  1.0000
  H   H12       1.0  0.01638  0.60424  0.30587  1.0000
  H   H13       1.0  0.80439  0.38306  0.68271  1.0000
  H   H14       1.0  0.19561  0.61694  0.31729  1.0000
  H   H15       1.0  0.94250  0.39237  0.86648  1.0000
  H   H16       1.0  0.05750  0.60763  0.13352  1.0000
  H   H17       1.0  0.18340  0.53184  0.86721  1.0000
  H   H18       1.0  0.81660  0.46816  0.13279  1.0000
  H   H19       1.0  0.14008  0.60744  0.97272  1.0000
  H   H20       1.0  0.85992  0.39256  0.02729  1.0000
  H   H21       1.0  0.04199  0.88048  0.84781  1.0000
  H   H22       1.0  0.95801  0.11952  0.15219  1.0000
  H   H23       1.0  0.05607  0.81704  0.96082  1.0000
  H   H24       1.0  0.94393  0.18296  0.03918  1.0000
  H   H25       1.0  0.72288  0.58474  0.67068  1.0000
  H   H26       1.0  0.27712  0.41525  0.32932  1.0000
  H   H27       1.0  0.84257  0.74504  0.67497  1.0000
  H   H28       1.0  0.15743  0.25496  0.32503  1.0000
  H   H29       1.0  0.88104  0.58410  0.95203  1.0000
  H   H30       1.0  0.11895  0.41590  0.04797  1.0000
  H   H31       1.0  0.74412  0.48995  0.83255  1.0000
  H   H32       1.0  0.25588  0.51005  0.16745  1.0000
  H   H33       1.0  0.38474  0.01965  0.80256  1.0000
  H   H34       1.0  0.61526  0.98035  0.19744  1.0000
  H   H35       1.0  0.34168  0.11863  0.64274  1.0000
  H   H36       1.0  0.65832  0.88137  0.35726  1.0000
  H   H37       1.0  0.76319  0.13087  0.64520  1.0000
  H   H38       1.0  0.23681  0.86913  0.35480  1.0000
  H   H39       1.0  0.78695  0.03263  0.80110  1.0000
  H   H40       1.0  0.21305  0.96737  0.19890  1.0000
  H   H41       1.0  0.47892  0.23046  0.34810  1.0000
  H   H42       1.0  0.52108  0.76954  0.65190  1.0000
  H   H43       1.0  0.65391  0.24156  0.34822  1.0000
  H   H44       1.0  0.34609  0.75844  0.65178  1.0000
  H   H45       1.0  0.57743  0.45703  0.47634  1.0000
  H   H46       1.0  0.42257  0.54297  0.52366  1.0000
  H   H47       1.0  0.75242  0.47105  0.47547  1.0000
  H   H48       1.0  0.24758  0.52895  0.52453  1.0000
  H   H49       1.0  0.44492  0.63225  0.00990  1.0000
  H   H50       1.0  0.55509  0.36775  0.99010  1.0000
  H   H51       1.0  0.47601  0.51250  0.15530  1.0000
  H   H52       1.0  0.52399  0.48750  0.84470  1.0000
  H   H53       1.0  0.90938  0.79173  0.28880  1.0000
  H   H54       1.0  0.09062  0.20827  0.71120  1.0000
  H   H55       1.0  0.86125  0.89551  0.13129  1.0000
  H   H56       1.0  0.13874  0.10450  0.86871  1.0000
  C   C1        1.0  0.28500  0.80710  0.89028  1.0000
  C   C2        1.0  0.71501  0.19290  0.10972  1.0000
  C   C3        1.0  0.08987  0.67673  0.72706  1.0000
  C   C4        1.0  0.91014  0.32327  0.27294  1.0000
  C   C5        1.0  0.93489  0.58174  0.67756  1.0000
  C   C6        1.0  0.06511  0.41826  0.32243  1.0000
  C   C7        1.0  0.91637  0.45043  0.71780  1.0000
  C   C8        1.0  0.08363  0.54957  0.28220  1.0000
  C   C9        1.0  0.95517  0.48652  0.83728  1.0000
  C   C10       1.0  0.04483  0.51348  0.16273  1.0000
  C   C11       1.0  0.11055  0.58189  0.88687  1.0000
  C   C12       1.0  0.88945  0.41811  0.11313  1.0000
  C   C13       1.0  0.12920  0.71457  0.84743  1.0000
  C   C14       1.0  0.87080  0.28543  0.15257  1.0000
  C   C15       1.0  0.02875  0.78577  0.87555  1.0000
  C   C16       1.0  0.97125  0.21423  0.12445  1.0000
  C   C17       1.0  0.87272  0.69055  0.82609  1.0000
  C   C18       1.0  0.12728  0.30945  0.17391  1.0000
  C   C19       1.0  0.83467  0.65266  0.70594  1.0000
  C   C20       1.0  0.16533  0.34734  0.29406  1.0000
  C   C21       1.0  0.85586  0.55821  0.86656  1.0000
  C   C22       1.0  0.14414  0.44179  0.13343  1.0000
  C   C23       1.0  0.77017  0.75800  0.85343  1.0000
  C   C24       1.0  0.22983  0.24200  0.14657  1.0000
  C   C25       1.0  0.46485  0.04677  0.76441  1.0000
  C   C26       1.0  0.53515  0.95323  0.23559  1.0000
  C   C27       1.0  0.44154  0.10112  0.67692  1.0000
  C   C28       1.0  0.55846  0.89888  0.32308  1.0000
  C   C29       1.0  0.54760  0.13284  0.63059  1.0000
  C   C30       1.0  0.45240  0.86716  0.36941  1.0000
  C   C31       1.0  0.67511  0.10954  0.67620  1.0000
  C   C32       1.0  0.32489  0.89046  0.32380  1.0000
  C   C33       1.0  0.69065  0.05500  0.76410  1.0000
  C   C34       1.0  0.30935  0.94500  0.23590  1.0000
  C   C35       1.0  0.51292  0.18796  0.53418  1.0000
  C   C36       1.0  0.48708  0.81204  0.46582  1.0000
  C   C37       1.0  0.59233  0.27209  0.39520  1.0000
  C   C38       1.0  0.40767  0.72790  0.60480  1.0000
  C   C39       1.0  0.63924  0.42841  0.42830  1.0000
  C   C40       1.0  0.36076  0.57159  0.57170  1.0000
  C   C41       1.0  0.72935  0.59027  0.33157  1.0000
  C   C42       1.0  0.27065  0.40973  0.66843  1.0000
  C   C43       1.0  0.54655  0.66319  0.07305  1.0000
  C   C44       1.0  0.45345  0.33681  0.92695  1.0000
  C   C45       1.0  0.56485  0.59846  0.15541  1.0000
  C   C46       1.0  0.43515  0.40154  0.84459  1.0000
  C   C47       1.0  0.69692  0.64578  0.23535  1.0000
  C   C48       1.0  0.30308  0.35422  0.76465  1.0000
  C   C49       1.0  0.80613  0.75385  0.22699  1.0000
  C   C50       1.0  0.19387  0.24615  0.77301  1.0000
  C   C51       1.0  0.77960  0.81132  0.14130  1.0000
  C   C52       1.0  0.22040  0.18869  0.85869  1.0000
  N   N1        1.0  0.58718  0.02330  0.80728  1.0000
  N   N2        1.0  0.41281  0.97670  0.19272  1.0000
  N   N3        1.0  0.61256  0.21351  0.48590  1.0000
  N   N4        1.0  0.38744  0.78649  0.51410  1.0000
  N   N5        1.0  0.62115  0.48807  0.33878  1.0000
  N   N6        1.0  0.37885  0.51193  0.66122  1.0000
  N   N7        1.0  0.65119  0.76783  0.06613  1.0000
  N   N8        1.0  0.34881  0.23217  0.93387  1.0000
  O   O1        1.0  0.37681  0.74973  0.88283  1.0000
  O   O2        1.0  0.62319  0.25027  0.11717  1.0000
  O   O3        1.0  0.31615  0.93512  0.92390  1.0000
  O   O4        1.0  0.68385  0.06488  0.07610  1.0000
  O   O5        1.0  0.63661  0.69010  0.81920  1.0000
  O   O6        1.0  0.36339  0.30990  0.18080  1.0000
  O   O7        1.0  0.82001  0.87976  0.91044  1.0000
  O   O8        1.0  0.17999  0.12024  0.08956  1.0000
  O   O9        1.0  0.39680  0.20597  0.50095  1.0000
  O   O10       1.0  0.60320  0.79403  0.49905  1.0000
  O   O11       1.0  0.84992  0.63958  0.39918  1.0000
  O   O12       1.0  0.15008  0.36043  0.60082  1.0000
