data_image0
_chemical_formula_structural       Cu4H40C32Br4N8
_chemical_formula_sum              "Cu4 H40 C32 Br4 N8"
_cell_length_a       10.803
_cell_length_b       10.8034
_cell_length_c       11.2654
_cell_angle_alpha    111.435
_cell_angle_beta     111.431
_cell_angle_gamma    104.229

_space_group_name_H-M_alt    "P 1"
_space_group_IT_number       1

loop_
  _space_group_symop_operation_xyz
  'x, y, z'

loop_
  _atom_site_type_symbol
  _atom_site_label
  _atom_site_symmetry_multiplicity
  _atom_site_fract_x
  _atom_site_fract_y
  _atom_site_fract_z
  _atom_site_occupancy
  Cu  Cu1       1.0  0.60699  0.57736  0.94513  1.0000
  Cu  Cu2       1.0  0.42257  0.39296  0.05484  1.0000
  Cu  Cu3       1.0  0.88783  0.81669  0.96192  1.0000
  Cu  Cu4       1.0  0.18330  0.11214  0.03815  1.0000
  H   H1        1.0  0.92718  0.69185  0.64651  1.0000
  H   H2        1.0  0.30826  0.07285  0.35356  1.0000
  H   H3        1.0  0.89743  0.83925  0.74841  1.0000
  H   H4        1.0  0.16084  0.10254  0.25162  1.0000
  H   H5        1.0  0.38549  0.35399  0.73012  1.0000
  H   H6        1.0  0.64604  0.61453  0.26989  1.0000
  H   H7        1.0  0.44274  0.22473  0.65075  1.0000
  H   H8        1.0  0.77528  0.55728  0.34927  1.0000
  H   H9        1.0  0.64023  0.84600  0.42299  1.0000
  H   H10       1.0  0.15403  0.35980  0.57698  1.0000
  H   H11       1.0  0.74346  0.93883  0.61996  1.0000
  H   H12       1.0  0.06123  0.25655  0.38001  1.0000
  H   H13       1.0  0.58629  0.76550  0.51878  1.0000
  H   H14       1.0  0.23457  0.41370  0.48120  1.0000
  H   H15       1.0  0.87375  0.86480  0.41498  1.0000
  H   H16       1.0  0.13521  0.12627  0.58502  1.0000
  H   H17       1.0  0.98518  0.79262  0.49959  1.0000
  H   H18       1.0  0.20739  0.01483  0.50041  1.0000
  H   H19       1.0  0.97980  0.95514  0.61155  1.0000
  H   H20       1.0  0.04488  0.02022  0.38845  1.0000
  H   H21       1.0  0.47115  0.05680  0.01457  1.0000
  H   H22       1.0  0.94317  0.52883  0.98542  1.0000
  H   H23       1.0  0.30493  0.01872  0.86770  1.0000
  H   H24       1.0  0.98125  0.69506  0.13229  1.0000
  H   H25       1.0  0.50319  0.71273  0.80257  1.0000
  H   H26       1.0  0.28724  0.49681  0.19739  1.0000
  H   H27       1.0  0.59896  0.87903  0.97116  1.0000
  H   H28       1.0  0.12092  0.40102  0.02880  1.0000
  H   H29       1.0  0.19331  0.79244  0.61147  1.0000
  H   H30       1.0  0.20756  0.80671  0.38851  1.0000
  H   H31       1.0  0.18209  0.67264  0.68485  1.0000
  H   H32       1.0  0.32735  0.81789  0.31510  1.0000
  H   H33       1.0  0.27753  0.67034  0.58613  1.0000
  H   H34       1.0  0.32965  0.72247  0.41382  1.0000
  H   H35       1.0  0.60066  0.04294  0.86754  1.0000
  H   H36       1.0  0.95702  0.39937  0.13246  1.0000
  H   H37       1.0  0.43629  0.01084  0.72019  1.0000
  H   H38       1.0  0.98915  0.56376  0.27983  1.0000
  H   H39       1.0  0.51790  0.88611  0.68968  1.0000
  H   H40       1.0  0.11386  0.48212  0.31031  1.0000
  C   C1        1.0  0.51023  0.41570  0.63447  1.0000
  C   C2        1.0  0.58431  0.48981  0.36555  1.0000
  C   C3        1.0  0.49739  0.39537  0.49832  1.0000
  C   C4        1.0  0.60465  0.50265  0.50171  1.0000
  C   C5        1.0  0.72312  0.62278  0.64106  1.0000
  C   C6        1.0  0.37728  0.27688  0.35897  1.0000
  C   C7        1.0  0.84243  0.73236  0.64535  1.0000
  C   C8        1.0  0.26772  0.15756  0.35468  1.0000
  C   C9        1.0  0.78322  0.75296  0.50998  1.0000
  C   C10       1.0  0.24708  0.21679  0.49003  1.0000
  C   C11       1.0  0.39818  0.30240  0.63377  1.0000
  C   C12       1.0  0.69761  0.60186  0.36625  1.0000
  C   C13       1.0  0.68225  0.83014  0.51848  1.0000
  C   C14       1.0  0.16991  0.31776  0.48150  1.0000
  C   C15       1.0  0.91315  0.84742  0.50940  1.0000
  C   C16       1.0  0.15260  0.08687  0.49061  1.0000
  C   C17       1.0  0.41302  0.72195  0.94322  1.0000
  C   C18       1.0  0.27801  0.58694  0.05672  1.0000
  C   C19       1.0  0.31038  0.76477  0.97545  1.0000
  C   C20       1.0  0.23519  0.68959  0.02451  1.0000
  C   C21       1.0  0.28004  0.88037  0.96078  1.0000
  C   C22       1.0  0.11960  0.71994  0.03920  1.0000
  C   C23       1.0  0.36598  0.96584  0.91602  1.0000
  C   C24       1.0  0.03412  0.63400  0.08396  1.0000
  C   C25       1.0  0.39994  0.86414  0.80684  1.0000
  C   C26       1.0  0.13584  0.60006  0.19314  1.0000
  C   C27       1.0  0.48639  0.79396  0.88070  1.0000
  C   C28       1.0  0.20600  0.51360  0.11926  1.0000
  C   C29       1.0  0.25488  0.74301  0.66474  1.0000
  C   C30       1.0  0.25697  0.74513  0.33523  1.0000
  C   C31       1.0  0.49434  0.95645  0.76915  1.0000
  C   C32       1.0  0.04353  0.50568  0.23085  1.0000
  Br  Br1       1.0  0.62157  0.37833  0.99996  1.0000
  Br  Br2       1.0  0.80859  0.82263  0.14406  1.0000
  Br  Br3       1.0  0.17720  0.19133  0.85598  1.0000
  Br  Br4       1.0  0.93134  0.06880  0.00028  1.0000
  N   N1        1.0  0.61769  0.53684  0.76282  1.0000
  N   N2        1.0  0.46317  0.38233  0.23720  1.0000
  N   N3        1.0  0.72712  0.64061  0.76667  1.0000
  N   N4        1.0  0.35943  0.27287  0.23336  1.0000
  N   N5        1.0  0.44418  0.61828  0.96818  1.0000
  N   N6        1.0  0.38165  0.55575  0.03174  1.0000
  N   N7        1.0  0.17667  0.91165  0.98567  1.0000
  N   N8        1.0  0.08833  0.82331  0.01433  1.0000
