data_image0
_chemical_formula_structural       Mn2H36C36N4O10
_chemical_formula_sum              "Mn2 H36 C36 N4 O10"
_cell_length_a       6.85924
_cell_length_b       8.52114
_cell_length_c       15.6441
_cell_angle_alpha    89.997
_cell_angle_beta     90.0004
_cell_angle_gamma    101.498

_space_group_name_H-M_alt    "P 1"
_space_group_IT_number       1

loop_
  _space_group_symop_operation_xyz
  'x, y, z'

loop_
  _atom_site_type_symbol
  _atom_site_label
  _atom_site_symmetry_multiplicity
  _atom_site_fract_x
  _atom_site_fract_y
  _atom_site_fract_z
  _atom_site_occupancy
  Mn  Mn1       1.0  0.61177  0.30297  0.35063  1.0000
  Mn  Mn2       1.0  0.38828  0.69703  0.85065  1.0000
  H   H1        1.0  0.17941  0.20620  0.33838  1.0000
  H   H2        1.0  0.82064  0.79378  0.83840  1.0000
  H   H3        1.0  0.29739  0.15483  0.42321  1.0000
  H   H4        1.0  0.70265  0.84517  0.92322  1.0000
  H   H5        1.0  0.27715  0.41409  0.23894  1.0000
  H   H6        1.0  0.72285  0.58588  0.73897  1.0000
  H   H7        1.0  0.32617  0.91998  0.28166  1.0000
  H   H8        1.0  0.67379  0.07999  0.78171  1.0000
  H   H9        1.0  0.63355  0.91897  0.36270  1.0000
  H   H10       1.0  0.36641  0.08101  0.86274  1.0000
  H   H11       1.0  0.92738  0.90387  0.40642  1.0000
  H   H12       1.0  0.07256  0.09613  0.90648  1.0000
  H   H13       1.0  0.21337  0.85767  0.49155  1.0000
  H   H14       1.0  0.78658  0.14237  0.99160  1.0000
  H   H15       1.0  0.98284  0.34949  0.46795  1.0000
  H   H16       1.0  0.01722  0.65055  0.96796  1.0000
  H   H17       1.0  0.01382  0.75500  0.21604  1.0000
  H   H18       1.0  0.98612  0.24497  0.71606  1.0000
  H   H19       1.0  0.98295  0.54207  0.21719  1.0000
  H   H20       1.0  0.01700  0.45791  0.71721  1.0000
  H   H21       1.0  0.11375  0.65501  0.13249  1.0000
  H   H22       1.0  0.88619  0.34496  0.63250  1.0000
  H   H23       1.0  0.43635  0.63489  0.51750  1.0000
  H   H24       1.0  0.56364  0.36520  0.01752  1.0000
  H   H25       1.0  0.30256  0.43608  0.53686  1.0000
  H   H26       1.0  0.69747  0.56400  0.03687  1.0000
  H   H27       1.0  0.28114  0.59538  0.60785  1.0000
  H   H28       1.0  0.71885  0.40468  0.10787  1.0000
  H   H29       1.0  0.49953  0.94302  0.62875  1.0000
  H   H30       1.0  0.50050  0.05697  0.12875  1.0000
  H   H31       1.0  0.91098  0.06191  0.54594  1.0000
  H   H32       1.0  0.08905  0.93808  0.04594  1.0000
  H   H33       1.0  0.76262  0.84565  0.70334  1.0000
  H   H34       1.0  0.23740  0.15434  0.20333  1.0000
  H   H35       1.0  0.18083  0.97781  0.62895  1.0000
  H   H36       1.0  0.81920  0.02218  0.12895  1.0000
  C   C1        1.0  0.35496  0.52895  0.26410  1.0000
  C   C2        1.0  0.64504  0.47102  0.76413  1.0000
  C   C3        1.0  0.27651  0.66639  0.25069  1.0000
  C   C4        1.0  0.72346  0.33358  0.75070  1.0000
  C   C5        1.0  0.38125  0.80880  0.28687  1.0000
  C   C6        1.0  0.61871  0.19118  0.78690  1.0000
  C   C7        1.0  0.55518  0.80875  0.33291  1.0000
  C   C8        1.0  0.44477  0.19124  0.83295  1.0000
  C   C9        1.0  0.62179  0.66525  0.34361  1.0000
  C   C10       1.0  0.37818  0.33472  0.84364  1.0000
  C   C11       1.0  0.79924  0.65099  0.39410  1.0000
  C   C12       1.0  0.20073  0.34900  0.89414  1.0000
  C   C13       1.0  0.94126  0.78209  0.42229  1.0000
  C   C14       1.0  0.05868  0.21791  0.92234  1.0000
  C   C15       1.0  0.10287  0.75522  0.46979  1.0000
  C   C16       1.0  0.89710  0.24482  0.96984  1.0000
  C   C17       1.0  0.12340  0.59848  0.48897  1.0000
  C   C18       1.0  0.87657  0.40157  0.98900  1.0000
  C   C19       1.0  0.97613  0.47485  0.45730  1.0000
  C   C20       1.0  0.02389  0.52517  0.95733  1.0000
  C   C21       1.0  0.08622  0.65440  0.20179  1.0000
  C   C22       1.0  0.91374  0.34558  0.70180  1.0000
  C   C23       1.0  0.29455  0.56337  0.54024  1.0000
  C   C24       1.0  0.70546  0.43671  0.04027  1.0000
  C   C25       1.0  0.53431  0.09734  0.51433  1.0000
  C   C26       1.0  0.46572  0.90267  0.01433  1.0000
  C   C27       1.0  0.60852  0.00451  0.58273  1.0000
  C   C28       1.0  0.39151  0.99550  0.08272  1.0000
  C   C29       1.0  0.80264  0.99716  0.59120  1.0000
  C   C30       1.0  0.19740  0.00283  0.09120  1.0000
  C   C31       1.0  0.87411  0.91141  0.65970  1.0000
  C   C32       1.0  0.12591  0.08858  0.15969  1.0000
  C   C33       1.0  0.06929  0.91146  0.67245  1.0000
  C   C34       1.0  0.93073  0.08852  0.17245  1.0000
  C   C35       1.0  0.14120  0.82174  0.74230  1.0000
  C   C36       1.0  0.85883  0.17823  0.24229  1.0000
  N   N1        1.0  0.51994  0.52683  0.30935  1.0000
  N   N2        1.0  0.48005  0.47315  0.80939  1.0000
  N   N3        1.0  0.81938  0.49970  0.41169  1.0000
  N   N4        1.0  0.18062  0.50030  0.91172  1.0000
  O   O1        1.0  0.65568  0.15615  0.45451  1.0000
  O   O2        1.0  0.34434  0.84386  0.95451  1.0000
  O   O3        1.0  0.35266  0.11115  0.51832  1.0000
  O   O4        1.0  0.64735  0.88885  0.01832  1.0000
  O   O5        1.0  0.32576  0.80803  0.73888  1.0000
  O   O6        1.0  0.67427  0.19195  0.23888  1.0000
  O   O7        1.0  0.02918  0.75910  0.80302  1.0000
  O   O8        1.0  0.97086  0.24087  0.30300  1.0000
  O   O9        1.0  0.30807  0.18152  0.35998  1.0000
  O   O10       1.0  0.69198  0.81847  0.85999  1.0000
