data_image0
_chemical_formula_structural       Cd2H44C44N8O12
_chemical_formula_sum              "Cd2 H44 C44 N8 O12"
_cell_length_a       9.15262
_cell_length_b       9.1525
_cell_length_c       14.7735
_cell_angle_alpha    106.171
_cell_angle_beta     106.17
_cell_angle_gamma    93.4563

_space_group_name_H-M_alt    "P 1"
_space_group_IT_number       1

loop_
  _space_group_symop_operation_xyz
  'x, y, z'

loop_
  _atom_site_type_symbol
  _atom_site_label
  _atom_site_symmetry_multiplicity
  _atom_site_fract_x
  _atom_site_fract_y
  _atom_site_fract_z
  _atom_site_occupancy
  Cd  Cd1       1.0  0.33496  0.66505  0.75000  1.0000
  Cd  Cd2       1.0  0.66505  0.33495  0.24999  1.0000
  H   H1        1.0  0.75500  0.99319  0.69628  1.0000
  H   H2        1.0  0.00684  0.24499  0.80373  1.0000
  H   H3        1.0  0.24502  0.00683  0.30373  1.0000
  H   H4        1.0  0.99319  0.75499  0.19627  1.0000
  H   H5        1.0  0.65574  0.74067  0.81893  1.0000
  H   H6        1.0  0.25930  0.34428  0.68107  1.0000
  H   H7        1.0  0.34427  0.25931  0.18107  1.0000
  H   H8        1.0  0.74067  0.65573  0.31892  1.0000
  H   H9        1.0  0.27401  0.82938  0.49411  1.0000
  H   H10       1.0  0.17064  0.72600  0.00589  1.0000
  H   H11       1.0  0.72600  0.17064  0.50589  1.0000
  H   H12       1.0  0.82937  0.27400  0.99411  1.0000
  H   H13       1.0  0.73636  0.46984  0.79859  1.0000
  H   H14       1.0  0.53012  0.26361  0.70140  1.0000
  H   H15       1.0  0.26362  0.53014  0.20141  1.0000
  H   H16       1.0  0.46986  0.73637  0.29860  1.0000
  H   H17       1.0  0.63615  0.52779  0.69594  1.0000
  H   H18       1.0  0.47218  0.36384  0.80405  1.0000
  H   H19       1.0  0.36385  0.47219  0.30406  1.0000
  H   H20       1.0  0.52779  0.63616  0.19594  1.0000
  H   H21       1.0  0.76127  0.61423  0.95201  1.0000
  H   H22       1.0  0.38573  0.23871  0.54799  1.0000
  H   H23       1.0  0.23872  0.38576  0.04800  1.0000
  H   H24       1.0  0.61425  0.76128  0.45201  1.0000
  H   H25       1.0  0.56501  0.56159  0.93949  1.0000
  H   H26       1.0  0.43838  0.43499  0.56050  1.0000
  H   H27       1.0  0.43500  0.43840  0.06051  1.0000
  H   H28       1.0  0.56161  0.56501  0.43949  1.0000
  H   H29       1.0  0.87027  0.90279  0.00714  1.0000
  H   H30       1.0  0.09718  0.12972  0.49286  1.0000
  H   H31       1.0  0.12973  0.09719  0.99287  1.0000
  H   H32       1.0  0.90279  0.87028  0.50713  1.0000
  H   H33       1.0  0.43188  0.73946  0.02715  1.0000
  H   H34       1.0  0.26054  0.56814  0.47285  1.0000
  H   H35       1.0  0.56812  0.26055  0.97284  1.0000
  H   H36       1.0  0.73946  0.43188  0.52715  1.0000
  H   H37       1.0  0.45397  0.99107  0.15712  1.0000
  H   H38       1.0  0.00893  0.54602  0.34286  1.0000
  H   H39       1.0  0.54600  0.00894  0.84285  1.0000
  H   H40       1.0  0.99107  0.45400  0.65713  1.0000
  H   H41       1.0  0.87185  0.14934  0.13432  1.0000
  H   H42       1.0  0.85066  0.12815  0.36567  1.0000
  H   H43       1.0  0.12815  0.85067  0.86568  1.0000
  H   H44       1.0  0.14933  0.87187  0.63432  1.0000
  C   C1        1.0  0.52244  0.84280  0.64777  1.0000
  C   C2        1.0  0.15721  0.47755  0.85223  1.0000
  C   C3        1.0  0.47758  0.15721  0.35225  1.0000
  C   C4        1.0  0.84280  0.52245  0.14777  1.0000
  C   C5        1.0  0.51024  0.92787  0.57364  1.0000
  C   C6        1.0  0.07213  0.48976  0.92636  1.0000
  C   C7        1.0  0.48977  0.07214  0.42637  1.0000
  C   C8        1.0  0.92788  0.51023  0.07364  1.0000
  C   C9        1.0  0.64006  0.02579  0.57786  1.0000
  C   C10       1.0  0.97425  0.35994  0.92215  1.0000
  C   C11       1.0  0.35995  0.97423  0.42214  1.0000
  C   C12       1.0  0.02578  0.64005  0.07785  1.0000
  C   C13       1.0  0.37273  0.90467  0.49649  1.0000
  C   C14       1.0  0.09534  0.62728  0.00351  1.0000
  C   C15       1.0  0.62728  0.09535  0.50351  1.0000
  C   C16       1.0  0.90467  0.37272  0.99650  1.0000
  C   C17       1.0  0.62672  0.50455  0.76334  1.0000
  C   C18       1.0  0.49544  0.37328  0.73666  1.0000
  C   C19       1.0  0.37328  0.49546  0.23666  1.0000
  C   C20       1.0  0.50456  0.62673  0.26335  1.0000
  C   C21       1.0  0.64602  0.64842  0.93259  1.0000
  C   C22       1.0  0.35156  0.35398  0.56742  1.0000
  C   C23       1.0  0.35398  0.35156  0.06741  1.0000
  C   C24       1.0  0.64843  0.64603  0.43259  1.0000
  C   C25       1.0  0.64927  0.80084  0.00618  1.0000
  C   C26       1.0  0.19915  0.35074  0.49381  1.0000
  C   C27       1.0  0.35073  0.19915  0.99381  1.0000
  C   C28       1.0  0.80084  0.64927  0.50619  1.0000
  C   C29       1.0  0.77390  0.91855  0.03693  1.0000
  C   C30       1.0  0.08143  0.22609  0.46306  1.0000
  C   C31       1.0  0.22608  0.08143  0.96306  1.0000
  C   C32       1.0  0.91856  0.77391  0.53694  1.0000
  C   C33       1.0  0.53240  0.82707  0.05021  1.0000
  C   C34       1.0  0.17292  0.46760  0.44978  1.0000
  C   C35       1.0  0.46759  0.17292  0.94978  1.0000
  C   C36       1.0  0.82708  0.53240  0.55021  1.0000
  C   C37       1.0  0.54350  0.96707  0.12157  1.0000
  C   C38       1.0  0.03291  0.45651  0.37843  1.0000
  C   C39       1.0  0.45649  0.03292  0.87842  1.0000
  C   C40       1.0  0.96709  0.54352  0.62158  1.0000
  C   C41       1.0  0.77658  0.05527  0.10865  1.0000
  C   C42       1.0  0.94471  0.22343  0.39135  1.0000
  C   C43       1.0  0.22342  0.94471  0.89134  1.0000
  C   C44       1.0  0.05527  0.77659  0.60866  1.0000
  N   N1        1.0  0.66355  0.07994  0.15052  1.0000
  N   N2        1.0  0.92005  0.33644  0.34947  1.0000
  N   N3        1.0  0.33643  0.92005  0.84947  1.0000
  N   N4        1.0  0.07996  0.66357  0.65053  1.0000
  N   N5        1.0  0.59969  0.64791  0.82847  1.0000
  N   N6        1.0  0.35207  0.40031  0.67154  1.0000
  N   N7        1.0  0.40032  0.35208  0.17154  1.0000
  N   N8        1.0  0.64792  0.59969  0.32847  1.0000
  O   O1        1.0  0.40816  0.74136  0.63119  1.0000
  O   O2        1.0  0.25863  0.59184  0.86880  1.0000
  O   O3        1.0  0.59185  0.25865  0.36881  1.0000
  O   O4        1.0  0.74138  0.40815  0.13118  1.0000
  O   O5        1.0  0.64513  0.87506  0.72181  1.0000
  O   O6        1.0  0.12494  0.35486  0.77818  1.0000
  O   O7        1.0  0.35489  0.12494  0.27819  1.0000
  O   O8        1.0  0.87507  0.64513  0.22181  1.0000
  O   O9        1.0  0.77543  0.05127  0.65055  1.0000
  O   O10       1.0  0.94878  0.22454  0.84948  1.0000
  O   O11       1.0  0.22457  0.94877  0.34947  1.0000
  O   O12       1.0  0.05126  0.77543  0.15053  1.0000
