data_image0
_chemical_formula_structural       Cd2H32C36N4O8
_chemical_formula_sum              "Cd2 H32 C36 N4 O8"
_cell_length_a       8.6361
_cell_length_b       10.3234
_cell_length_c       11.1298
_cell_angle_alpha    84.0326
_cell_angle_beta     68.0869
_cell_angle_gamma    77.4816

_space_group_name_H-M_alt    "P 1"
_space_group_IT_number       1

loop_
  _space_group_symop_operation_xyz
  'x, y, z'

loop_
  _atom_site_type_symbol
  _atom_site_label
  _atom_site_symmetry_multiplicity
  _atom_site_fract_x
  _atom_site_fract_y
  _atom_site_fract_z
  _atom_site_occupancy
  Cd  Cd1       1.0  0.42878  0.56836  0.16271  1.0000
  Cd  Cd2       1.0  0.57123  0.43164  0.83729  1.0000
  H   H1        1.0  0.44144  0.87333  0.22761  1.0000
  H   H2        1.0  0.55855  0.12667  0.77240  1.0000
  H   H3        1.0  0.54161  0.98672  0.36694  1.0000
  H   H4        1.0  0.45839  0.01329  0.63306  1.0000
  H   H5        1.0  0.70995  0.84577  0.49235  1.0000
  H   H6        1.0  0.29006  0.15424  0.50764  1.0000
  H   H7        1.0  0.82386  0.61836  0.56343  1.0000
  H   H8        1.0  0.17614  0.38165  0.43657  1.0000
  H   H9        1.0  0.87652  0.37548  0.54485  1.0000
  H   H10       1.0  0.12348  0.62452  0.45515  1.0000
  H   H11       1.0  0.86104  0.17933  0.43809  1.0000
  H   H12       1.0  0.13898  0.82067  0.56190  1.0000
  H   H13       1.0  0.75614  0.09072  0.28693  1.0000
  H   H14       1.0  0.24386  0.90928  0.71307  1.0000
  H   H15       1.0  0.57710  0.24908  0.18087  1.0000
  H   H16       1.0  0.42289  0.75092  0.81914  1.0000
  H   H17       1.0  0.02164  0.30898  0.14386  1.0000
  H   H18       1.0  0.97837  0.69103  0.85613  1.0000
  H   H19       1.0  0.20559  0.25028  0.00945  1.0000
  H   H20       1.0  0.79440  0.74972  0.99054  1.0000
  H   H21       1.0  0.16301  0.45779  0.88427  1.0000
  H   H22       1.0  0.83700  0.54222  0.11572  1.0000
  H   H23       1.0  0.98200  0.38386  0.93352  1.0000
  H   H24       1.0  0.01801  0.61615  0.06647  1.0000
  H   H25       1.0  0.94141  0.89814  0.21009  1.0000
  H   H26       1.0  0.05859  0.10185  0.78995  1.0000
  H   H27       1.0  0.08783  0.00558  0.17905  1.0000
  H   H28       1.0  0.91216  0.99441  0.82096  1.0000
  H   H29       1.0  0.05859  0.85182  0.96931  1.0000
  H   H30       1.0  0.94135  0.14816  0.03074  1.0000
  H   H31       1.0  0.19595  0.96392  0.94385  1.0000
  H   H32       1.0  0.80400  0.03606  0.05617  1.0000
  C   C1        1.0  0.65342  0.46507  0.33912  1.0000
  C   C2        1.0  0.34659  0.53493  0.66087  1.0000
  C   C3        1.0  0.62402  0.60769  0.34898  1.0000
  C   C4        1.0  0.37599  0.39232  0.65101  1.0000
  C   C5        1.0  0.51042  0.81648  0.28670  1.0000
  C   C6        1.0  0.48958  0.18352  0.71330  1.0000
  C   C7        1.0  0.56906  0.87884  0.36336  1.0000
  C   C8        1.0  0.43095  0.12117  0.63663  1.0000
  C   C9        1.0  0.66028  0.80136  0.43296  1.0000
  C   C10       1.0  0.33972  0.19865  0.56703  1.0000
  C   C11       1.0  0.69074  0.66171  0.42750  1.0000
  C   C12       1.0  0.30927  0.33829  0.57249  1.0000
  C   C13       1.0  0.78171  0.57553  0.49830  1.0000
  C   C14       1.0  0.21829  0.42447  0.50170  1.0000
  C   C15       1.0  0.81052  0.44103  0.48835  1.0000
  C   C16       1.0  0.18949  0.55897  0.51164  1.0000
  C   C17       1.0  0.75055  0.38305  0.40691  1.0000
  C   C18       1.0  0.24945  0.61696  0.59308  1.0000
  C   C19       1.0  0.78537  0.24498  0.38845  1.0000
  C   C20       1.0  0.21463  0.75502  0.61154  1.0000
  C   C21       1.0  0.72575  0.19604  0.30662  1.0000
  C   C22       1.0  0.27425  0.80396  0.69338  1.0000
  C   C23       1.0  0.62663  0.28409  0.24605  1.0000
  C   C24       1.0  0.37337  0.71591  0.75395  1.0000
  C   C25       1.0  0.23358  0.39945  0.11297  1.0000
  C   C26       1.0  0.76644  0.60054  0.88701  1.0000
  C   C27       1.0  0.12482  0.34084  0.06082  1.0000
  C   C28       1.0  0.87518  0.65917  0.93916  1.0000
  C   C29       1.0  0.05558  0.43501  0.96892  1.0000
  C   C30       1.0  0.94443  0.56500  0.03107  1.0000
  C   C31       1.0  0.20132  0.79942  0.15538  1.0000
  C   C32       1.0  0.79866  0.20059  0.84463  1.0000
  C   C33       1.0  0.06620  0.91714  0.14431  1.0000
  C   C34       1.0  0.93378  0.08286  0.85572  1.0000
  C   C35       1.0  0.07004  0.94326  0.00564  1.0000
  C   C36       1.0  0.92992  0.05672  0.99440  1.0000
  N   N1        1.0  0.53739  0.68523  0.28014  1.0000
  N   N2        1.0  0.46261  0.31477  0.71986  1.0000
  N   N3        1.0  0.59105  0.41435  0.26299  1.0000
  N   N4        1.0  0.40896  0.58565  0.73701  1.0000
  O   O1        1.0  0.22723  0.37682  0.22732  1.0000
  O   O2        1.0  0.77283  0.62316  0.77264  1.0000
  O   O3        1.0  0.33090  0.47544  0.03336  1.0000
  O   O4        1.0  0.66910  0.52457  0.96664  1.0000
  O   O5        1.0  0.34869  0.78449  0.06690  1.0000
  O   O6        1.0  0.65129  0.21551  0.93311  1.0000
  O   O7        1.0  0.16133  0.71933  0.25283  1.0000
  O   O8        1.0  0.83869  0.28066  0.74717  1.0000
