data_image0
_chemical_formula_structural       Co2H12C28N8Cl4O8
_chemical_formula_sum              "Co2 H12 C28 N8 Cl4 O8"
_cell_length_a       9.73727
_cell_length_b       9.7376
_cell_length_c       9.9262
_cell_angle_alpha    68.8677
_cell_angle_beta     68.8405
_cell_angle_gamma    67.1054

_space_group_name_H-M_alt    "P 1"
_space_group_IT_number       1

loop_
  _space_group_symop_operation_xyz
  'x, y, z'

loop_
  _atom_site_type_symbol
  _atom_site_label
  _atom_site_symmetry_multiplicity
  _atom_site_fract_x
  _atom_site_fract_y
  _atom_site_fract_z
  _atom_site_occupancy
  Co  Co1       1.0  0.40093  0.59927  0.74983  1.0000
  Co  Co2       1.0  0.60709  0.39283  0.24994  1.0000
  H   H1        1.0  0.74685  0.63325  0.64761  1.0000
  H   H2        1.0  0.36680  0.25264  0.85281  1.0000
  H   H3        1.0  0.27577  0.37041  0.36491  1.0000
  H   H4        1.0  0.62958  0.72406  0.13520  1.0000
  H   H5        1.0  0.95731  0.60586  0.41314  1.0000
  H   H6        1.0  0.39423  0.04242  0.08738  1.0000
  H   H7        1.0  0.07278  0.40496  0.60331  1.0000
  H   H8        1.0  0.59509  0.92707  0.89693  1.0000
  H   H9        1.0  0.12050  0.51742  0.77283  1.0000
  H   H10       1.0  0.48278  0.87936  0.72729  1.0000
  H   H11       1.0  0.92072  0.49928  0.23205  1.0000
  H   H12       1.0  0.50067  0.07948  0.26825  1.0000
  C   C1        1.0  0.73471  0.59607  0.56266  1.0000
  C   C2        1.0  0.40399  0.26489  0.93770  1.0000
  C   C3        1.0  0.29034  0.41473  0.44321  1.0000
  C   C4        1.0  0.58533  0.70951  0.05684  1.0000
  C   C5        1.0  0.85235  0.57796  0.43340  1.0000
  C   C6        1.0  0.42210  0.14742  0.06698  1.0000
  C   C7        1.0  0.17827  0.43490  0.57531  1.0000
  C   C8        1.0  0.56520  0.82159  0.92483  1.0000
  C   C9        1.0  0.83151  0.52286  0.33254  1.0000
  C   C10       1.0  0.47717  0.16852  0.16769  1.0000
  C   C11       1.0  0.20364  0.49432  0.66937  1.0000
  C   C12       1.0  0.50588  0.79622  0.83069  1.0000
  C   C13       1.0  0.58875  0.52402  0.47981  1.0000
  C   C14       1.0  0.47606  0.41110  0.02019  1.0000
  C   C15       1.0  0.44318  0.49870  0.50673  1.0000
  C   C16       1.0  0.50144  0.55670  0.99313  1.0000
  C   C17       1.0  0.10121  0.81959  0.82715  1.0000
  C   C18       1.0  0.18061  0.89943  0.67201  1.0000
  C   C19       1.0  0.88449  0.18644  0.17121  1.0000
  C   C20       1.0  0.81348  0.11556  0.32874  1.0000
  C   C21       1.0  0.95837  0.90178  0.90124  1.0000
  C   C22       1.0  0.09785  0.04215  0.59835  1.0000
  C   C23       1.0  0.02723  0.10783  0.09521  1.0000
  C   C24       1.0  0.89204  0.97287  0.40471  1.0000
  C   C25       1.0  0.87207  0.05034  0.83111  1.0000
  C   C26       1.0  0.94928  0.12806  0.66894  1.0000
  C   C27       1.0  0.11437  0.96025  0.16728  1.0000
  C   C28       1.0  0.03967  0.88566  0.33264  1.0000
  N   N1        1.0  0.60105  0.56915  0.58722  1.0000
  N   N2        1.0  0.43085  0.39854  0.91305  1.0000
  N   N3        1.0  0.42423  0.44567  0.40890  1.0000
  N   N4        1.0  0.55439  0.57566  0.09103  1.0000
  N   N5        1.0  0.69748  0.49880  0.35518  1.0000
  N   N6        1.0  0.50129  0.30256  0.14487  1.0000
  N   N7        1.0  0.33753  0.52546  0.63498  1.0000
  N   N8        1.0  0.47483  0.66234  0.86490  1.0000
  Cl  Cl1       1.0  0.87578  0.81816  0.08459  1.0000
  Cl  Cl2       1.0  0.18108  0.12509  0.41497  1.0000
  Cl  Cl3       1.0  0.10190  0.18977  0.90942  1.0000
  Cl  Cl4       1.0  0.80997  0.89827  0.59050  1.0000
  O   O1        1.0  0.17242  0.67845  0.88043  1.0000
  O   O2        1.0  0.32180  0.82875  0.61841  1.0000
  O   O3        1.0  0.80225  0.32415  0.11550  1.0000
  O   O4        1.0  0.67573  0.19785  0.38445  1.0000
  O   O5        1.0  0.73863  0.12025  0.89034  1.0000
  O   O6        1.0  0.87900  0.26146  0.61021  1.0000
  O   O7        1.0  0.24617  0.88795  0.10699  1.0000
  O   O8        1.0  0.11191  0.75390  0.39291  1.0000
