data_image0
_chemical_formula_structural       Cd2H20C24N12O12
_chemical_formula_sum              "Cd2 H20 C24 N12 O12"
_cell_length_a       6.9745
_cell_length_b       10.4159
_cell_length_c       10.7587
_cell_angle_alpha    96.9194
_cell_angle_beta     108.926
_cell_angle_gamma    89.9868

_space_group_name_H-M_alt    "P 1"
_space_group_IT_number       1

loop_
  _space_group_symop_operation_xyz
  'x, y, z'

loop_
  _atom_site_type_symbol
  _atom_site_label
  _atom_site_symmetry_multiplicity
  _atom_site_fract_x
  _atom_site_fract_y
  _atom_site_fract_z
  _atom_site_occupancy
  Cd  Cd1       1.0  0.13361  0.24994  0.99997  1.0000
  Cd  Cd2       1.0  0.86639  0.75006  0.00003  1.0000
  H   H1        1.0  0.95704  0.44764  0.14814  1.0000
  H   H2        1.0  0.80916  0.05243  0.85184  1.0000
  H   H3        1.0  0.04295  0.55236  0.85186  1.0000
  H   H4        1.0  0.19083  0.94757  0.14816  1.0000
  H   H5        1.0  0.06856  0.32991  0.22190  1.0000
  H   H6        1.0  0.84691  0.17001  0.77792  1.0000
  H   H7        1.0  0.93144  0.67009  0.77810  1.0000
  H   H8        1.0  0.15309  0.82999  0.22208  1.0000
  H   H9        1.0  0.23420  0.14779  0.52770  1.0000
  H   H10       1.0  0.70674  0.35219  0.47246  1.0000
  H   H11       1.0  0.76580  0.85221  0.47230  1.0000
  H   H12       1.0  0.29326  0.64781  0.52754  1.0000
  H   H13       1.0  0.60172  0.77874  0.21868  1.0000
  H   H14       1.0  0.38320  0.72117  0.78122  1.0000
  H   H15       1.0  0.39829  0.22126  0.78131  1.0000
  H   H16       1.0  0.61680  0.27883  0.21878  1.0000
  H   H17       1.0  0.79849  0.09403  0.07149  1.0000
  H   H18       1.0  0.72787  0.40609  0.92850  1.0000
  H   H19       1.0  0.20151  0.90598  0.92851  1.0000
  H   H20       1.0  0.27212  0.59391  0.07150  1.0000
  C   C1        1.0  0.55608  0.99522  0.38762  1.0000
  C   C2        1.0  0.16884  0.50466  0.61228  1.0000
  C   C3        1.0  0.44392  0.00477  0.61238  1.0000
  C   C4        1.0  0.83116  0.49534  0.38772  1.0000
  C   C5        1.0  0.40623  0.08062  0.40122  1.0000
  C   C6        1.0  0.00547  0.41922  0.59871  1.0000
  C   C7        1.0  0.59377  0.91938  0.59878  1.0000
  C   C8        1.0  0.99453  0.58078  0.40129  1.0000
  C   C9        1.0  0.35297  0.08419  0.51595  1.0000
  C   C10       1.0  0.83718  0.41582  0.48412  1.0000
  C   C11       1.0  0.64703  0.91581  0.48405  1.0000
  C   C12       1.0  0.16283  0.58418  0.51589  1.0000
  C   C13       1.0  0.28867  0.16319  0.29786  1.0000
  C   C14       1.0  0.99140  0.33663  0.70205  1.0000
  C   C15       1.0  0.71133  0.83681  0.70213  1.0000
  C   C16       1.0  0.00860  0.66337  0.29796  1.0000
  C   C17       1.0  0.64130  0.87487  0.20167  1.0000
  C   C18       1.0  0.43990  0.62506  0.79822  1.0000
  C   C19       1.0  0.35870  0.12514  0.79833  1.0000
  C   C20       1.0  0.56009  0.37494  0.20178  1.0000
  C   C21       1.0  0.74035  0.03637  0.12981  1.0000
  C   C22       1.0  0.61124  0.46366  0.87012  1.0000
  C   C23       1.0  0.25965  0.96363  0.87018  1.0000
  C   C24       1.0  0.38876  0.53634  0.12988  1.0000
  N   N1        1.0  0.62234  0.98513  0.27518  1.0000
  N   N2        1.0  0.34770  0.51475  0.72465  1.0000
  N   N3        1.0  0.37767  0.01487  0.72481  1.0000
  N   N4        1.0  0.65230  0.48525  0.27535  1.0000
  N   N5        1.0  0.68538  0.08944  0.23058  1.0000
  N   N6        1.0  0.45562  0.41050  0.76928  1.0000
  N   N7        1.0  0.31462  0.91056  0.76942  1.0000
  N   N8        1.0  0.54438  0.58950  0.23073  1.0000
  N   N9        1.0  0.71530  0.90417  0.10831  1.0000
  N   N10       1.0  0.60736  0.59585  0.89163  1.0000
  N   N11       1.0  0.28470  0.09583  0.89168  1.0000
  N   N12       1.0  0.39264  0.40415  0.10837  1.0000
  O   O1        1.0  0.23092  0.11174  0.17591  1.0000
  O   O2        1.0  0.05562  0.38810  0.82397  1.0000
  O   O3        1.0  0.76908  0.88826  0.82408  1.0000
  O   O4        1.0  0.94438  0.61190  0.17603  1.0000
  O   O5        1.0  0.25005  0.27520  0.33918  1.0000
  O   O6        1.0  0.91142  0.22462  0.66071  1.0000
  O   O7        1.0  0.74995  0.72480  0.66082  1.0000
  O   O8        1.0  0.08858  0.77538  0.33929  1.0000
  O   O9        1.0  0.96410  0.35120  0.13722  1.0000
  O   O10       1.0  0.82692  0.14888  0.86256  1.0000
  O   O11       1.0  0.03590  0.64880  0.86278  1.0000
  O   O12       1.0  0.17309  0.85112  0.13744  1.0000
