data_image0
_chemical_formula_structural       Cu2H28C40S2N8Cl2
_chemical_formula_sum              "Cu2 H28 C40 S2 N8 Cl2"
_cell_length_a       9.44181
_cell_length_b       10.2324
_cell_length_c       11.8729
_cell_angle_alpha    86.2805
_cell_angle_beta     67.5418
_cell_angle_gamma    69.2899

_space_group_name_H-M_alt    "P 1"
_space_group_IT_number       1

loop_
  _space_group_symop_operation_xyz
  'x, y, z'

loop_
  _atom_site_type_symbol
  _atom_site_label
  _atom_site_symmetry_multiplicity
  _atom_site_fract_x
  _atom_site_fract_y
  _atom_site_fract_z
  _atom_site_occupancy
  Cu  Cu1       1.0  0.26197  0.02873  0.23126  1.0000
  Cu  Cu2       1.0  0.73803  0.97127  0.76874  1.0000
  H   H1        1.0  0.70919  0.86287  0.42184  1.0000
  H   H2        1.0  0.29080  0.13713  0.57816  1.0000
  H   H3        1.0  0.79783  0.70970  0.48129  1.0000
  H   H4        1.0  0.20217  0.29029  0.51871  1.0000
  H   H5        1.0  0.38431  0.83375  0.45832  1.0000
  H   H6        1.0  0.61568  0.16625  0.54169  1.0000
  H   H7        1.0  0.63376  0.76124  0.28285  1.0000
  H   H8        1.0  0.36625  0.23876  0.71714  1.0000
  H   H9        1.0  0.12073  0.20360  0.05273  1.0000
  H   H10       1.0  0.87927  0.79639  0.94727  1.0000
  H   H11       1.0  0.93837  0.62658  0.59542  1.0000
  H   H12       1.0  0.06163  0.37341  0.40458  1.0000
  H   H13       1.0  0.37142  0.65884  0.61686  1.0000
  H   H14       1.0  0.62857  0.34117  0.38315  1.0000
  H   H15       1.0  0.71426  0.62711  0.09383  1.0000
  H   H16       1.0  0.28574  0.37289  0.90616  1.0000
  H   H17       1.0  0.67517  0.12558  0.11939  1.0000
  H   H18       1.0  0.32483  0.87442  0.88061  1.0000
  H   H19       1.0  0.73410  0.96673  0.27213  1.0000
  H   H20       1.0  0.26589  0.03327  0.72787  1.0000
  H   H21       1.0  0.87005  0.24923  0.00454  1.0000
  H   H22       1.0  0.12995  0.75077  0.99546  1.0000
  H   H23       1.0  0.13521  0.60037  0.25564  1.0000
  H   H24       1.0  0.86479  0.39963  0.74436  1.0000
  H   H25       1.0  0.21902  0.46796  0.06393  1.0000
  H   H26       1.0  0.78098  0.53204  0.93607  1.0000
  H   H27       1.0  0.15079  0.56038  0.68467  1.0000
  H   H28       1.0  0.84921  0.43961  0.31533  1.0000
  C   C1        1.0  0.44888  0.17765  0.03011  1.0000
  C   C2        1.0  0.55113  0.82233  0.96989  1.0000
  C   C3        1.0  0.01481  0.91192  0.33234  1.0000
  C   C4        1.0  0.98519  0.08808  0.66766  1.0000
  C   C5        1.0  0.17155  0.82436  0.43577  1.0000
  C   C6        1.0  0.82845  0.17565  0.56423  1.0000
  C   C7        1.0  0.87797  0.69039  0.28430  1.0000
  C   C8        1.0  0.12204  0.30960  0.71569  1.0000
  C   C9        1.0  0.82408  0.77344  0.40323  1.0000
  C   C10       1.0  0.17592  0.22656  0.59677  1.0000
  C   C11       1.0  0.96112  0.99843  0.24382  1.0000
  C   C12       1.0  0.03887  0.00157  0.75619  1.0000
  C   C13       1.0  0.97474  0.53704  0.05994  1.0000
  C   C14       1.0  0.02526  0.46296  0.94005  1.0000
  C   C15       1.0  0.29085  0.78629  0.48665  1.0000
  C   C16       1.0  0.70914  0.21372  0.51335  1.0000
  C   C17       1.0  0.04704  0.76496  0.47400  1.0000
  C   C18       1.0  0.95296  0.23504  0.52600  1.0000
  C   C19       1.0  0.76221  0.69489  0.23642  1.0000
  C   C20       1.0  0.23780  0.30511  0.76358  1.0000
  C   C21       1.0  0.03176  0.15343  0.09886  1.0000
  C   C22       1.0  0.96824  0.84657  0.90114  1.0000
  C   C23       1.0  0.03632  0.66939  0.56378  1.0000
  C   C24       1.0  0.96367  0.33062  0.43622  1.0000
  C   C25       1.0  0.28118  0.68994  0.57485  1.0000
  C   C26       1.0  0.71881  0.31007  0.42516  1.0000
  C   C27       1.0  0.80967  0.61888  0.12696  1.0000
  C   C28       1.0  0.19034  0.38112  0.87304  1.0000
  C   C29       1.0  0.78562  0.10909  0.13613  1.0000
  C   C30       1.0  0.21438  0.89091  0.86388  1.0000
  C   C31       1.0  0.82003  0.01789  0.22235  1.0000
  C   C32       1.0  0.17997  0.98211  0.77765  1.0000
  C   C33       1.0  0.89269  0.17786  0.07300  1.0000
  C   C34       1.0  0.10731  0.82214  0.92700  1.0000
  C   C35       1.0  0.04208  0.60631  0.22045  1.0000
  C   C36       1.0  0.95793  0.39369  0.77955  1.0000
  C   C37       1.0  0.08967  0.53083  0.11058  1.0000
  C   C38       1.0  0.91033  0.46917  0.88941  1.0000
  C   C39       1.0  0.15566  0.63316  0.61348  1.0000
  C   C40       1.0  0.84434  0.36684  0.38652  1.0000
  S   S1        1.0  0.57575  0.23448  0.92333  1.0000
  S   S2        1.0  0.42426  0.76552  0.07667  1.0000
  N   N1        1.0  0.14674  0.91573  0.34815  1.0000
  N   N2        1.0  0.85325  0.08428  0.65186  1.0000
  N   N3        1.0  0.95027  0.82228  0.40694  1.0000
  N   N4        1.0  0.04973  0.17772  0.59307  1.0000
  N   N5        1.0  0.35074  0.13930  0.10687  1.0000
  N   N6        1.0  0.64927  0.86069  0.89312  1.0000
  N   N7        1.0  0.06459  0.06637  0.18182  1.0000
  N   N8        1.0  0.93541  0.93363  0.81818  1.0000
  Cl  Cl1       1.0  0.42087  0.03887  0.33090  1.0000
  Cl  Cl2       1.0  0.57913  0.96113  0.66910  1.0000
