data_image0
_chemical_formula_structural       KLiSb2H4C8O12
_chemical_formula_sum              "K1 Li1 Sb2 H4 C8 O12"
_cell_length_a       6.32782
_cell_length_b       8.15932
_cell_length_c       8.85441
_cell_angle_alpha    119.861
_cell_angle_beta     89.9941
_cell_angle_gamma    112.864

_space_group_name_H-M_alt    "P 1"
_space_group_IT_number       1

loop_
  _space_group_symop_operation_xyz
  'x, y, z'

loop_
  _atom_site_type_symbol
  _atom_site_label
  _atom_site_symmetry_multiplicity
  _atom_site_fract_x
  _atom_site_fract_y
  _atom_site_fract_z
  _atom_site_occupancy
  K   K1        1.0  0.52644  0.99991  0.50017  1.0000
  Li  Li1       1.0  0.52227  0.99991  0.99992  1.0000
  Sb  Sb1       1.0  0.83439  0.59521  0.31277  1.0000
  Sb  Sb2       1.0  0.24008  0.40490  0.68717  1.0000
  H   H1        1.0  0.83766  0.83242  0.79366  1.0000
  H   H2        1.0  0.00517  0.16777  0.20642  1.0000
  H   H3        1.0  0.01926  0.83631  0.05099  1.0000
  H   H4        1.0  0.18391  0.16369  0.94900  1.0000
  C   C1        1.0  0.94177  0.87572  0.70786  1.0000
  C   C2        1.0  0.06572  0.12434  0.29214  1.0000
  C   C3        1.0  0.12216  0.78776  0.67594  1.0000
  C   C4        1.0  0.33428  0.21193  0.32374  1.0000
  C   C5        1.0  0.96832  0.87992  0.18021  1.0000
  C   C6        1.0  0.08930  0.12033  0.81989  1.0000
  C   C7        1.0  0.69816  0.78211  0.13886  1.0000
  C   C8        1.0  0.91702  0.21801  0.86137  1.0000
  O   O1        1.0  0.79062  0.80401  0.54857  1.0000
  O   O2        1.0  0.98692  0.19619  0.45156  1.0000
  O   O3        1.0  0.14063  0.68709  0.51203  1.0000
  O   O4        1.0  0.45391  0.31257  0.48756  1.0000
  O   O5        1.0  0.06652  0.81423  0.27035  1.0000
  O   O6        1.0  0.25334  0.18613  0.72978  1.0000
  O   O7        1.0  0.59343  0.66146  0.19814  1.0000
  O   O8        1.0  0.93307  0.33857  0.80207  1.0000
  O   O9        1.0  0.24573  0.81877  0.80588  1.0000
  O   O10       1.0  0.42645  0.18067  0.19363  1.0000
  O   O11       1.0  0.58901  0.82170  0.05434  1.0000
  O   O12       1.0  0.76838  0.17837  0.94599  1.0000
