data_image0
_chemical_formula_structural       H48Rh4C64N8O24
_chemical_formula_sum              "H48 Rh4 C64 N8 O24"
_cell_length_a       9.54955
_cell_length_b       10.1203
_cell_length_c       20.1601
_cell_angle_alpha    100.78
_cell_angle_beta     90.0046
_cell_angle_gamma    118.152

_space_group_name_H-M_alt    "P 1"
_space_group_IT_number       1

loop_
  _space_group_symop_operation_xyz
  'x, y, z'

loop_
  _atom_site_type_symbol
  _atom_site_label
  _atom_site_symmetry_multiplicity
  _atom_site_fract_x
  _atom_site_fract_y
  _atom_site_fract_z
  _atom_site_occupancy
  H   H1        1.0  0.42141  0.69239  0.05057  1.0000
  H   H2        1.0  0.72924  0.30756  0.44946  1.0000
  H   H3        1.0  0.57859  0.30761  0.94943  1.0000
  H   H4        1.0  0.27076  0.69245  0.55054  1.0000
  H   H5        1.0  0.35879  0.56720  0.92806  1.0000
  H   H6        1.0  0.79186  0.43271  0.57197  1.0000
  H   H7        1.0  0.64121  0.43280  0.07194  1.0000
  H   H8        1.0  0.20814  0.56729  0.42803  1.0000
  H   H9        1.0  0.57893  0.59140  0.85637  1.0000
  H   H10       1.0  0.98777  0.40850  0.64365  1.0000
  H   H11       1.0  0.42106  0.40860  0.14362  1.0000
  H   H12       1.0  0.01224  0.59150  0.35636  1.0000
  H   H13       1.0  0.86145  0.73924  0.90801  1.0000
  H   H14       1.0  0.12239  0.26058  0.59202  1.0000
  H   H15       1.0  0.13855  0.26076  0.09199  1.0000
  H   H16       1.0  0.87761  0.73942  0.40798  1.0000
  H   H17       1.0  0.92283  0.86167  0.03139  1.0000
  H   H18       1.0  0.06138  0.13827  0.46861  1.0000
  H   H19       1.0  0.07717  0.13833  0.96861  1.0000
  H   H20       1.0  0.93862  0.86173  0.53139  1.0000
  H   H21       1.0  0.75920  0.40557  0.17121  1.0000
  H   H22       1.0  0.35398  0.59431  0.32877  1.0000
  H   H23       1.0  0.24080  0.59443  0.82879  1.0000
  H   H24       1.0  0.64602  0.40569  0.67123  1.0000
  H   H25       1.0  0.88062  0.64817  0.12662  1.0000
  H   H26       1.0  0.23280  0.35172  0.37331  1.0000
  H   H27       1.0  0.11938  0.35183  0.87338  1.0000
  H   H28       1.0  0.76720  0.64828  0.62669  1.0000
  H   H29       1.0  0.17171  0.78346  0.11841  1.0000
  H   H30       1.0  0.38854  0.21645  0.38153  1.0000
  H   H31       1.0  0.82829  0.21654  0.88159  1.0000
  H   H32       1.0  0.61146  0.78355  0.61847  1.0000
  H   H33       1.0  0.34675  0.69238  0.16241  1.0000
  H   H34       1.0  0.65476  0.30754  0.33758  1.0000
  H   H35       1.0  0.65325  0.30762  0.83758  1.0000
  H   H36       1.0  0.34524  0.69246  0.66242  1.0000
  H   H37       1.0  0.22523  0.45324  0.20812  1.0000
  H   H38       1.0  0.77240  0.54680  0.29187  1.0000
  H   H39       1.0  0.77477  0.54676  0.79188  1.0000
  H   H40       1.0  0.22760  0.45320  0.70813  1.0000
  H   H41       1.0  0.35141  0.87700  0.32685  1.0000
  H   H42       1.0  0.47443  0.12299  0.17319  1.0000
  H   H43       1.0  0.64859  0.12300  0.67315  1.0000
  H   H44       1.0  0.52557  0.87701  0.82681  1.0000
  H   H45       1.0  0.08671  0.87723  0.32686  1.0000
  H   H46       1.0  0.20951  0.12275  0.17316  1.0000
  H   H47       1.0  0.91329  0.12277  0.67314  1.0000
  H   H48       1.0  0.79049  0.87725  0.82684  1.0000
  Rh  Rh1       1.0  0.65425  0.99998  0.25002  1.0000
  Rh  Rh2       1.0  0.34576  0.00002  0.74998  1.0000
  Rh  Rh3       1.0  0.90788  0.00001  0.25000  1.0000
  Rh  Rh4       1.0  0.09212  0.99999  0.75000  1.0000
  C   C1        1.0  0.71346  0.86191  0.12132  1.0000
  C   C2        1.0  0.85182  0.13815  0.37870  1.0000
  C   C3        1.0  0.28654  0.13809  0.87868  1.0000
  C   C4        1.0  0.14818  0.86185  0.62130  1.0000
  C   C5        1.0  0.67590  0.78541  0.04820  1.0000
  C   C6        1.0  0.89080  0.21464  0.45182  1.0000
  C   C7        1.0  0.32411  0.21459  0.95180  1.0000
  C   C8        1.0  0.10920  0.78536  0.54818  1.0000
  C   C9        1.0  0.51699  0.70274  0.01887  1.0000
  C   C10       1.0  0.81455  0.29728  0.48115  1.0000
  C   C11       1.0  0.48301  0.29726  0.98113  1.0000
  C   C12       1.0  0.18545  0.70273  0.51885  1.0000
  C   C13       1.0  0.48261  0.63258  0.95019  1.0000
  C   C14       1.0  0.85035  0.36738  0.54984  1.0000
  C   C15       1.0  0.51739  0.36742  0.04981  1.0000
  C   C16       1.0  0.14965  0.63262  0.45016  1.0000
  C   C17       1.0  0.60627  0.64603  0.91021  1.0000
  C   C18       1.0  0.96053  0.35387  0.58981  1.0000
  C   C19       1.0  0.39373  0.35397  0.08979  1.0000
  C   C20       1.0  0.03947  0.64613  0.41019  1.0000
  C   C21       1.0  0.76491  0.72879  0.93919  1.0000
  C   C22       1.0  0.03637  0.27109  0.56083  1.0000
  C   C23       1.0  0.23509  0.27120  0.06081  1.0000
  C   C24       1.0  0.96363  0.72891  0.43917  1.0000
  C   C25       1.0  0.79981  0.79733  0.00810  1.0000
  C   C26       1.0  0.00279  0.20268  0.49191  1.0000
  C   C27       1.0  0.20019  0.20267  0.99190  1.0000
  C   C28       1.0  0.99721  0.79733  0.50809  1.0000
  C   C29       1.0  0.91246  0.26637  0.21400  1.0000
  C   C30       1.0  0.64631  0.73357  0.28599  1.0000
  C   C31       1.0  0.08754  0.73363  0.78600  1.0000
  C   C32       1.0  0.35369  0.26644  0.71401  1.0000
  C   C33       1.0  0.98494  0.41372  0.19080  1.0000
  C   C34       1.0  0.57160  0.58621  0.30918  1.0000
  C   C35       1.0  0.01506  0.58628  0.80920  1.0000
  C   C36       1.0  0.42841  0.41379  0.69082  1.0000
  C   C37       1.0  0.88742  0.46929  0.16855  1.0000
  C   C38       1.0  0.41851  0.53061  0.33141  1.0000
  C   C39       1.0  0.11258  0.53071  0.83144  1.0000
  C   C40       1.0  0.58149  0.46938  0.66859  1.0000
  C   C41       1.0  0.95483  0.60257  0.14297  1.0000
  C   C42       1.0  0.35262  0.39729  0.35696  1.0000
  C   C43       1.0  0.04517  0.39743  0.85703  1.0000
  C   C44       1.0  0.64738  0.60271  0.64304  1.0000
  C   C45       1.0  0.11952  0.68029  0.13916  1.0000
  C   C46       1.0  0.43961  0.31961  0.36077  1.0000
  C   C47       1.0  0.88048  0.31971  0.86084  1.0000
  C   C48       1.0  0.56039  0.68039  0.63923  1.0000
  C   C49       1.0  0.21778  0.62825  0.16311  1.0000
  C   C50       1.0  0.58996  0.37169  0.33686  1.0000
  C   C51       1.0  0.78222  0.37175  0.83689  1.0000
  C   C52       1.0  0.41004  0.62831  0.66314  1.0000
  C   C53       1.0  0.15068  0.49545  0.18903  1.0000
  C   C54       1.0  0.65565  0.50451  0.31096  1.0000
  C   C55       1.0  0.84932  0.50455  0.81097  1.0000
  C   C56       1.0  0.34435  0.49549  0.68904  1.0000
  C   C57       1.0  0.31901  0.93175  0.29249  1.0000
  C   C58       1.0  0.38729  0.06823  0.20754  1.0000
  C   C59       1.0  0.68098  0.06825  0.70751  1.0000
  C   C60       1.0  0.61270  0.93177  0.79246  1.0000
  C   C61       1.0  0.17391  0.93208  0.29255  1.0000
  C   C62       1.0  0.24186  0.06790  0.20748  1.0000
  C   C63       1.0  0.82608  0.06792  0.70745  1.0000
  C   C64       1.0  0.75813  0.93209  0.79252  1.0000
  N   N1        1.0  0.42641  0.99998  0.25002  1.0000
  N   N2        1.0  0.57359  0.00002  0.74998  1.0000
  N   N3        1.0  0.13460  0.99999  0.25000  1.0000
  N   N4        1.0  0.86540  0.00001  0.75000  1.0000
  N   N5        1.0  0.61112  0.05612  0.00707  1.0000
  N   N6        1.0  0.55502  0.94390  0.49293  1.0000
  N   N7        1.0  0.38888  0.94388  0.99293  1.0000
  N   N8        1.0  0.44499  0.05611  0.50707  1.0000
  O   O1        1.0  0.60568  0.88555  0.15069  1.0000
  O   O2        1.0  0.72039  0.11457  0.34933  1.0000
  O   O3        1.0  0.39432  0.11445  0.84931  1.0000
  O   O4        1.0  0.27961  0.88543  0.65067  1.0000
  O   O5        1.0  0.85125  0.89913  0.14927  1.0000
  O   O6        1.0  0.95228  0.10080  0.35074  1.0000
  O   O7        1.0  0.14875  0.10087  0.85073  1.0000
  O   O8        1.0  0.04772  0.89919  0.64926  1.0000
  O   O9        1.0  0.76279  0.20523  0.22117  1.0000
  O   O10       1.0  0.55769  0.79462  0.27882  1.0000
  O   O11       1.0  0.23721  0.79477  0.77882  1.0000
  O   O12       1.0  0.44231  0.20538  0.72118  1.0000
  O   O13       1.0  0.00425  0.20998  0.22416  1.0000
  O   O14       1.0  0.79451  0.79010  0.27587  1.0000
  O   O15       1.0  0.99575  0.79002  0.77584  1.0000
  O   O16       1.0  0.20549  0.20990  0.72413  1.0000
  O   O17       1.0  0.65953  0.12678  0.06465  1.0000
  O   O18       1.0  0.53274  0.87322  0.43536  1.0000
  O   O19       1.0  0.34048  0.87322  0.93535  1.0000
  O   O20       1.0  0.46726  0.12678  0.56464  1.0000
  O   O21       1.0  0.67424  0.04171  0.95639  1.0000
  O   O22       1.0  0.63260  0.95837  0.54361  1.0000
  O   O23       1.0  0.32576  0.95828  0.04360  1.0000
  O   O24       1.0  0.36740  0.04163  0.45639  1.0000
