data_image0
_chemical_formula_structural       H24Rh2C32N6O8
_chemical_formula_sum              "H24 Rh2 C32 N6 O8"
_cell_length_a       9.55532
_cell_length_b       10.1902
_cell_length_c       10.635
_cell_angle_alpha    72.4323
_cell_angle_beta     64.8918
_cell_angle_gamma    63.1415

_space_group_name_H-M_alt    "P 1"
_space_group_IT_number       1

loop_
  _space_group_symop_operation_xyz
  'x, y, z'

loop_
  _atom_site_type_symbol
  _atom_site_label
  _atom_site_symmetry_multiplicity
  _atom_site_fract_x
  _atom_site_fract_y
  _atom_site_fract_z
  _atom_site_occupancy
  H   H1        1.0  0.75540  0.78190  0.09164  1.0000
  H   H2        1.0  0.24461  0.21810  0.90836  1.0000
  H   H3        1.0  0.78949  0.91932  0.85112  1.0000
  H   H4        1.0  0.21052  0.08066  0.14888  1.0000
  H   H5        1.0  0.62654  0.92506  0.71686  1.0000
  H   H6        1.0  0.37346  0.07494  0.28315  1.0000
  H   H7        1.0  0.42679  0.79452  0.82686  1.0000
  H   H8        1.0  0.57320  0.20548  0.17314  1.0000
  H   H9        1.0  0.39073  0.66056  0.06906  1.0000
  H   H10       1.0  0.60926  0.33944  0.93094  1.0000
  H   H11       1.0  0.00451  0.08434  0.36797  1.0000
  H   H12       1.0  0.99549  0.91565  0.63204  1.0000
  H   H13       1.0  0.17628  0.83390  0.28625  1.0000
  H   H14       1.0  0.82372  0.16610  0.71376  1.0000
  H   H15       1.0  0.04042  0.69846  0.24967  1.0000
  H   H16       1.0  0.95958  0.30155  0.75032  1.0000
  H   H17       1.0  0.73203  0.80121  0.30869  1.0000
  H   H18       1.0  0.26797  0.19880  0.69128  1.0000
  H   H19       1.0  0.56296  0.05090  0.38870  1.0000
  H   H20       1.0  0.43704  0.94911  0.61129  1.0000
  H   H21       1.0  0.00454  0.38198  0.32979  1.0000
  H   H22       1.0  0.99546  0.61803  0.67022  1.0000
  H   H23       1.0  0.27053  0.36865  0.33849  1.0000
  H   H24       1.0  0.72948  0.63135  0.66151  1.0000
  Rh  Rh1       1.0  0.62490  0.50658  0.49702  1.0000
  Rh  Rh2       1.0  0.37510  0.49342  0.50299  1.0000
  C   C1        1.0  0.54915  0.63221  0.23982  1.0000
  C   C2        1.0  0.45086  0.36779  0.76018  1.0000
  C   C3        1.0  0.57107  0.71293  0.09510  1.0000
  C   C4        1.0  0.42893  0.28707  0.90490  1.0000
  C   C5        1.0  0.68390  0.78539  0.03294  1.0000
  C   C6        1.0  0.31610  0.21460  0.96706  1.0000
  C   C7        1.0  0.70299  0.86189  0.89767  1.0000
  C   C8        1.0  0.29701  0.13811  0.10233  1.0000
  C   C9        1.0  0.61091  0.86527  0.82306  1.0000
  C   C10       1.0  0.38908  0.13473  0.17694  1.0000
  C   C11       1.0  0.49879  0.79240  0.88452  1.0000
  C   C12       1.0  0.50121  0.20760  0.11549  1.0000
  C   C13       1.0  0.47806  0.71715  0.02029  1.0000
  C   C14       1.0  0.52194  0.28285  0.97971  1.0000
  C   C15       1.0  0.67480  0.23511  0.42048  1.0000
  C   C16       1.0  0.32521  0.76489  0.57952  1.0000
  C   C17       1.0  0.77470  0.08394  0.37881  1.0000
  C   C18       1.0  0.22531  0.91606  0.62119  1.0000
  C   C19       1.0  0.94735  0.02217  0.35193  1.0000
  C   C20       1.0  0.05264  0.97782  0.64808  1.0000
  C   C21       1.0  0.04240  0.88358  0.30596  1.0000
  C   C22       1.0  0.95760  0.11642  0.69404  1.0000
  C   C23       1.0  0.96525  0.80621  0.28696  1.0000
  C   C24       1.0  0.03474  0.19380  0.71303  1.0000
  C   C25       1.0  0.79259  0.86458  0.31820  1.0000
  C   C26       1.0  0.20742  0.13543  0.68178  1.0000
  C   C27       1.0  0.69754  0.00331  0.36395  1.0000
  C   C28       1.0  0.30246  0.99669  0.63605  1.0000
  C   C29       1.0  0.00285  0.43512  0.40567  1.0000
  C   C30       1.0  0.99714  0.56490  0.59434  1.0000
  C   C31       1.0  0.14913  0.42738  0.41079  1.0000
  C   C32       1.0  0.85087  0.57262  0.58923  1.0000
  N   N1        1.0  0.85252  0.50790  0.49491  1.0000
  N   N2        1.0  0.14749  0.49210  0.50510  1.0000
  N   N3        1.0  0.90175  0.36590  0.07792  1.0000
  N   N4        1.0  0.09826  0.63410  0.92207  1.0000
  N   N5        1.0  0.82191  0.34180  0.04334  1.0000
  N   N6        1.0  0.17810  0.65820  0.95666  1.0000
  O   O1        1.0  0.65690  0.60798  0.29435  1.0000
  O   O2        1.0  0.34309  0.39201  0.70566  1.0000
  O   O3        1.0  0.42315  0.59278  0.29987  1.0000
  O   O4        1.0  0.57684  0.40721  0.70013  1.0000
  O   O5        1.0  0.75310  0.30177  0.43366  1.0000
  O   O6        1.0  0.24690  0.69823  0.56634  1.0000
  O   O7        1.0  0.51841  0.28848  0.43862  1.0000
  O   O8        1.0  0.48159  0.71152  0.56138  1.0000
