data_image0
_chemical_formula_structural       K2Li2Sb4H8C16O24
_chemical_formula_sum              "K2 Li2 Sb4 H8 C16 O24"
_cell_length_a       6.37093
_cell_length_b       8.86846
_cell_length_c       12.5147
_cell_angle_alpha    90
_cell_angle_beta     90
_cell_angle_gamma    90

_space_group_name_H-M_alt    "P 1"
_space_group_IT_number       1

loop_
  _space_group_symop_operation_xyz
  'x, y, z'

loop_
  _atom_site_type_symbol
  _atom_site_label
  _atom_site_symmetry_multiplicity
  _atom_site_fract_x
  _atom_site_fract_y
  _atom_site_fract_z
  _atom_site_occupancy
  K   K1        1.0  0.50000  0.24077  0.50000  1.0000
  K   K2        1.0  1.00000  0.75923  0.00000  1.0000
  Li  Li1       1.0  0.50000  0.71154  0.50000  1.0000
  Li  Li2       1.0  1.00000  0.28845  0.00000  1.0000
  Sb  Sb1       1.0  0.02778  0.22704  0.29525  1.0000
  Sb  Sb2       1.0  0.97221  0.22704  0.70475  1.0000
  Sb  Sb3       1.0  0.52778  0.77296  0.20475  1.0000
  Sb  Sb4       1.0  0.47222  0.77296  0.79525  1.0000
  H   H1        1.0  0.08628  0.85715  0.58516  1.0000
  H   H2        1.0  0.91372  0.85715  0.41484  1.0000
  H   H3        1.0  0.58628  0.14285  0.91484  1.0000
  H   H4        1.0  0.41372  0.14285  0.08516  1.0000
  H   H5        1.0  0.08776  0.60070  0.41660  1.0000
  H   H6        1.0  0.91224  0.60070  0.58340  1.0000
  H   H7        1.0  0.58776  0.39930  0.08340  1.0000
  H   H8        1.0  0.41224  0.39930  0.91660  1.0000
  C   C1        1.0  0.21808  0.95532  0.39714  1.0000
  C   C2        1.0  0.78192  0.95532  0.60286  1.0000
  C   C3        1.0  0.71808  0.04468  0.10286  1.0000
  C   C4        1.0  0.28192  0.04468  0.89714  1.0000
  C   C5        1.0  0.00723  0.96325  0.56208  1.0000
  C   C6        1.0  0.99277  0.96325  0.43792  1.0000
  C   C7        1.0  0.50723  0.03675  0.93792  1.0000
  C   C8        1.0  0.49277  0.03675  0.06208  1.0000
  C   C9        1.0  0.20328  0.48655  0.61259  1.0000
  C   C10       1.0  0.79672  0.48655  0.38741  1.0000
  C   C11       1.0  0.70328  0.51345  0.88741  1.0000
  C   C12       1.0  0.29672  0.51345  0.11259  1.0000
  C   C13       1.0  0.01538  0.49168  0.43849  1.0000
  C   C14       1.0  0.98462  0.49168  0.56151  1.0000
  C   C15       1.0  0.51538  0.50832  0.06151  1.0000
  C   C16       1.0  0.48462  0.50832  0.93849  1.0000
  O   O1        1.0  0.66590  0.58771  0.40621  1.0000
  O   O2        1.0  0.33410  0.58770  0.59379  1.0000
  O   O3        1.0  0.16590  0.41229  0.09379  1.0000
  O   O4        1.0  0.83410  0.41229  0.90621  1.0000
  O   O5        1.0  0.28793  0.07192  0.34567  1.0000
  O   O6        1.0  0.71207  0.07192  0.65433  1.0000
  O   O7        1.0  0.78793  0.92808  0.15433  1.0000
  O   O8        1.0  0.21207  0.92808  0.84567  1.0000
  O   O9        1.0  0.12125  0.08863  0.59959  1.0000
  O   O10       1.0  0.87875  0.08863  0.40041  1.0000
  O   O11       1.0  0.62125  0.91137  0.90041  1.0000
  O   O12       1.0  0.37875  0.91137  0.09959  1.0000
  O   O13       1.0  0.24416  0.37142  0.67344  1.0000
  O   O14       1.0  0.75584  0.37142  0.32656  1.0000
  O   O15       1.0  0.74416  0.62858  0.82656  1.0000
  O   O16       1.0  0.25584  0.62858  0.17344  1.0000
  O   O17       1.0  0.14660  0.37166  0.40597  1.0000
  O   O18       1.0  0.85339  0.37166  0.59403  1.0000
  O   O19       1.0  0.64660  0.62834  0.09403  1.0000
  O   O20       1.0  0.35340  0.62834  0.90597  1.0000
  O   O21       1.0  0.67494  0.84040  0.58425  1.0000
  O   O22       1.0  0.32507  0.84040  0.41575  1.0000
  O   O23       1.0  0.17493  0.15960  0.91575  1.0000
  O   O24       1.0  0.82507  0.15960  0.08425  1.0000
