data_image0
_chemical_formula_structural       V4P4H36C8N8O16F4
_chemical_formula_sum              "V4 P4 H36 C8 N8 O16 F4"
_cell_length_a       7.4308
_cell_length_b       9.14144
_cell_length_c       9.90144
_cell_angle_alpha    100.833
_cell_angle_beta     89.9417
_cell_angle_gamma    90.0767

_space_group_name_H-M_alt    "P 1"
_space_group_IT_number       1

loop_
  _space_group_symop_operation_xyz
  'x, y, z'

loop_
  _atom_site_type_symbol
  _atom_site_label
  _atom_site_symmetry_multiplicity
  _atom_site_fract_x
  _atom_site_fract_y
  _atom_site_fract_z
  _atom_site_occupancy
  V   V1        1.0  0.87933  0.00960  0.26314  1.0000
  V   V2        1.0  0.37963  0.99083  0.23692  1.0000
  V   V3        1.0  0.11794  0.98864  0.73607  1.0000
  V   V4        1.0  0.61816  0.01078  0.76369  1.0000
  P   P1        1.0  0.86529  0.20869  0.58606  1.0000
  P   P2        1.0  0.36484  0.79117  0.91477  1.0000
  P   P3        1.0  0.13236  0.79252  0.41369  1.0000
  P   P4        1.0  0.63286  0.20742  0.08586  1.0000
  H   H1        1.0  0.74600  0.43144  0.78116  1.0000
  H   H2        1.0  0.24697  0.56876  0.71964  1.0000
  H   H3        1.0  0.25387  0.56921  0.21550  1.0000
  H   H4        1.0  0.75379  0.43044  0.28401  1.0000
  H   H5        1.0  0.69834  0.42894  0.95078  1.0000
  H   H6        1.0  0.19892  0.57149  0.54985  1.0000
  H   H7        1.0  0.30433  0.56723  0.04469  1.0000
  H   H8        1.0  0.80476  0.43323  0.45504  1.0000
  H   H9        1.0  0.88572  0.89864  0.99570  1.0000
  H   H10       1.0  0.38421  0.10144  0.50322  1.0000
  H   H11       1.0  0.11977  0.09906  0.00524  1.0000
  H   H12       1.0  0.61936  0.90069  0.49519  1.0000
  H   H13       1.0  0.57829  0.54256  0.86962  1.0000
  H   H14       1.0  0.07859  0.45810  0.63097  1.0000
  H   H15       1.0  0.42188  0.45645  0.13040  1.0000
  H   H16       1.0  0.92213  0.54350  0.36868  1.0000
  H   H17       1.0  0.05212  0.82668  0.06850  1.0000
  H   H18       1.0  0.55201  0.17428  0.43237  1.0000
  H   H19       1.0  0.95055  0.17016  0.93495  1.0000
  H   H20       1.0  0.45018  0.82891  0.56506  1.0000
  H   H21       1.0  0.97888  0.56516  0.90304  1.0000
  H   H22       1.0  0.47883  0.43515  0.59746  1.0000
  H   H23       1.0  0.02202  0.43350  0.09563  1.0000
  H   H24       1.0  0.52225  0.56585  0.40343  1.0000
  H   H25       1.0  0.83426  0.68886  0.83780  1.0000
  H   H26       1.0  0.33356  0.31112  0.66217  1.0000
  H   H27       1.0  0.16658  0.31023  0.16160  1.0000
  H   H28       1.0  0.66711  0.68971  0.33795  1.0000
  H   H29       1.0  0.85506  0.64519  0.13710  1.0000
  H   H30       1.0  0.35507  0.35628  0.36330  1.0000
  H   H31       1.0  0.14402  0.35132  0.86171  1.0000
  H   H32       1.0  0.64383  0.64743  0.63758  1.0000
  H   H33       1.0  0.67114  0.73418  0.07312  1.0000
  H   H34       1.0  0.17121  0.26642  0.42686  1.0000
  H   H35       1.0  0.32976  0.26469  0.92581  1.0000
  H   H36       1.0  0.82948  0.73504  0.57383  1.0000
  C   C1        1.0  0.81414  0.70671  0.05713  1.0000
  C   C2        1.0  0.31418  0.29415  0.44295  1.0000
  C   C3        1.0  0.18656  0.29104  0.94216  1.0000
  C   C4        1.0  0.68633  0.70831  0.55741  1.0000
  C   C5        1.0  0.84445  0.61571  0.91337  1.0000
  C   C6        1.0  0.34425  0.38463  0.58691  1.0000
  C   C7        1.0  0.15643  0.38289  0.08559  1.0000
  C   C8        1.0  0.65661  0.61682  0.41376  1.0000
  N   N1        1.0  0.91593  0.84707  0.07640  1.0000
  N   N2        1.0  0.41589  0.15391  0.42330  1.0000
  N   N3        1.0  0.08652  0.14992  0.92457  1.0000
  N   N4        1.0  0.58610  0.84924  0.57562  1.0000
  N   N5        1.0  0.70816  0.49544  0.87659  1.0000
  N   N6        1.0  0.20843  0.50497  0.62407  1.0000
  N   N7        1.0  0.29274  0.50327  0.12118  1.0000
  N   N8        1.0  0.79303  0.49667  0.37811  1.0000
  O   O1        1.0  0.84742  0.16697  0.42755  1.0000
  O   O2        1.0  0.34552  0.82967  0.07335  1.0000
  O   O3        1.0  0.14624  0.83004  0.57268  1.0000
  O   O4        1.0  0.64964  0.17089  0.92711  1.0000
  O   O5        1.0  0.04078  0.14370  0.63469  1.0000
  O   O6        1.0  0.54064  0.85887  0.86801  1.0000
  O   O7        1.0  0.95641  0.85679  0.36468  1.0000
  O   O8        1.0  0.45636  0.14016  0.13223  1.0000
  O   O9        1.0  0.86908  0.38130  0.62520  1.0000
  O   O10       1.0  0.37127  0.61862  0.87325  1.0000
  O   O11       1.0  0.13256  0.62069  0.37039  1.0000
  O   O12       1.0  0.62963  0.37917  0.13029  1.0000
  O   O13       1.0  0.69490  0.15230  0.65047  1.0000
  O   O14       1.0  0.19493  0.84655  0.84989  1.0000
  O   O15       1.0  0.30269  0.85576  0.35510  1.0000
  O   O16       1.0  0.80269  0.14700  0.14679  1.0000
  F   F1        1.0  0.13029  0.07074  0.22126  1.0000
  F   F2        1.0  0.63082  0.92917  0.27859  1.0000
  F   F3        1.0  0.86714  0.93315  0.77949  1.0000
  F   F4        1.0  0.36600  0.06662  0.72073  1.0000
