data_image0
_chemical_formula_structural       Cd2H32C26N8O14
_chemical_formula_sum              "Cd2 H32 C26 N8 O14"
_cell_length_a       7.75433
_cell_length_b       10.3728
_cell_length_c       11.8871
_cell_angle_alpha    100.694
_cell_angle_beta     102.532
_cell_angle_gamma    105.303

_space_group_name_H-M_alt    "P 1"
_space_group_IT_number       1

loop_
  _space_group_symop_operation_xyz
  'x, y, z'

loop_
  _atom_site_type_symbol
  _atom_site_label
  _atom_site_symmetry_multiplicity
  _atom_site_fract_x
  _atom_site_fract_y
  _atom_site_fract_z
  _atom_site_occupancy
  Cd  Cd1       1.0  0.86978  0.77538  0.10369  1.0000
  Cd  Cd2       1.0  0.13021  0.22462  0.89631  1.0000
  H   H1        1.0  0.93745  0.81904  0.37903  1.0000
  H   H2        1.0  0.06255  0.18096  0.62097  1.0000
  H   H3        1.0  0.77204  0.82768  0.53812  1.0000
  H   H4        1.0  0.22796  0.17231  0.46188  1.0000
  H   H5        1.0  0.28016  0.79440  0.26674  1.0000
  H   H6        1.0  0.71985  0.20560  0.73326  1.0000
  H   H7        1.0  0.45842  0.77814  0.11862  1.0000
  H   H8        1.0  0.54158  0.22186  0.88138  1.0000
  H   H9        1.0  0.30480  0.86652  0.49015  1.0000
  H   H10       1.0  0.69519  0.13348  0.50985  1.0000
  H   H11       1.0  0.50124  0.85989  0.59594  1.0000
  H   H12       1.0  0.49876  0.14011  0.40406  1.0000
  H   H13       1.0  0.39162  0.59650  0.50301  1.0000
  H   H14       1.0  0.60838  0.40350  0.49699  1.0000
  H   H15       1.0  0.18819  0.61335  0.41480  1.0000
  H   H16       1.0  0.81181  0.38665  0.58520  1.0000
  H   H17       1.0  0.60393  0.92649  0.97740  1.0000
  H   H18       1.0  0.39606  0.07351  0.02260  1.0000
  H   H19       1.0  0.39800  0.47932  0.68083  1.0000
  H   H20       1.0  0.60200  0.52068  0.31917  1.0000
  H   H21       1.0  0.64696  0.53512  0.87085  1.0000
  H   H22       1.0  0.35304  0.46488  0.12916  1.0000
  H   H23       1.0  0.34828  0.88526  0.79333  1.0000
  H   H24       1.0  0.65172  0.11474  0.20667  1.0000
  H   H25       1.0  0.12332  0.71841  0.61061  1.0000
  H   H26       1.0  0.87668  0.28159  0.38939  1.0000
  H   H27       1.0  0.11178  0.54261  0.58570  1.0000
  H   H28       1.0  0.88822  0.45739  0.41430  1.0000
  H   H29       1.0  0.07896  0.70645  0.95172  1.0000
  H   H30       1.0  0.92104  0.29355  0.04828  1.0000
  H   H31       1.0  0.09467  0.86163  0.96448  1.0000
  H   H32       1.0  0.90532  0.13837  0.03552  1.0000
  C   C1        1.0  0.79106  0.81265  0.35813  1.0000
  C   C2        1.0  0.20894  0.18735  0.64187  1.0000
  C   C3        1.0  0.69907  0.81835  0.44609  1.0000
  C   C4        1.0  0.30093  0.18165  0.55392  1.0000
  C   C5        1.0  0.51097  0.81108  0.41547  1.0000
  C   C6        1.0  0.48903  0.18892  0.58453  1.0000
  C   C7        1.0  0.42527  0.79960  0.29592  1.0000
  C   C8        1.0  0.57474  0.20040  0.70408  1.0000
  C   C9        1.0  0.52545  0.79149  0.21262  1.0000
  C   C10       1.0  0.47455  0.20851  0.78738  1.0000
  C   C11       1.0  0.40402  0.80855  0.50659  1.0000
  C   C12       1.0  0.59598  0.19145  0.49340  1.0000
  C   C13       1.0  0.29611  0.65863  0.50078  1.0000
  C   C14       1.0  0.70390  0.34137  0.49922  1.0000
  C   C15       1.0  0.55243  0.82805  0.90972  1.0000
  C   C16       1.0  0.44757  0.17195  0.09028  1.0000
  C   C17       1.0  0.35174  0.67823  0.72041  1.0000
  C   C18       1.0  0.64825  0.32177  0.27959  1.0000
  C   C19       1.0  0.43850  0.57982  0.74452  1.0000
  C   C20       1.0  0.56149  0.42018  0.25548  1.0000
  C   C21       1.0  0.57725  0.60977  0.85018  1.0000
  C   C22       1.0  0.42275  0.39024  0.14983  1.0000
  C   C23       1.0  0.41187  0.80508  0.80623  1.0000
  C   C24       1.0  0.58812  0.19492  0.19377  1.0000
  C   C25       1.0  0.20717  0.64819  0.60403  1.0000
  C   C26       1.0  0.79283  0.35181  0.39597  1.0000
  N   N1        1.0  0.06013  0.07053  0.22066  1.0000
  N   N2        1.0  0.93988  0.92947  0.77934  1.0000
  N   N3        1.0  0.93720  0.52571  0.14822  1.0000
  N   N4        1.0  0.06280  0.47429  0.85178  1.0000
  N   N5        1.0  0.70579  0.79770  0.24265  1.0000
  N   N6        1.0  0.29421  0.20230  0.75735  1.0000
  N   N7        1.0  0.63371  0.73212  0.93218  1.0000
  N   N8        1.0  0.36629  0.26789  0.06782  1.0000
  O   O1        1.0  0.11641  0.98123  0.26445  1.0000
  O   O2        1.0  0.88359  0.01877  0.73555  1.0000
  O   O3        1.0  0.92574  0.02448  0.12128  1.0000
  O   O4        1.0  0.07426  0.97552  0.87872  1.0000
  O   O5        1.0  0.99213  0.64093  0.22761  1.0000
  O   O6        1.0  0.00787  0.35907  0.77239  1.0000
  O   O7        1.0  0.82899  0.51401  0.04723  1.0000
  O   O8        1.0  0.17101  0.48599  0.95277  1.0000
  O   O9        1.0  0.12651  0.19645  0.26884  1.0000
  O   O10       1.0  0.87349  0.80355  0.73116  1.0000
  O   O11       1.0  0.99082  0.42721  0.17162  1.0000
  O   O12       1.0  0.00918  0.57279  0.82837  1.0000
  O   O13       1.0  0.10619  0.79452  0.01361  1.0000
  O   O14       1.0  0.89381  0.20548  0.98639  1.0000
