data_image0
_chemical_formula_structural       Zn8H44C64N8Cl4O20
_chemical_formula_sum              "Zn8 H44 C64 N8 Cl4 O20"
_cell_length_a       10.1823
_cell_length_b       12.7704
_cell_length_c       13.0468
_cell_angle_alpha    89.9998
_cell_angle_beta     106.059
_cell_angle_gamma    89.9998

_space_group_name_H-M_alt    "P 1"
_space_group_IT_number       1

loop_
  _space_group_symop_operation_xyz
  'x, y, z'

loop_
  _atom_site_type_symbol
  _atom_site_label
  _atom_site_symmetry_multiplicity
  _atom_site_fract_x
  _atom_site_fract_y
  _atom_site_fract_z
  _atom_site_occupancy
  Zn  Zn1       1.0  0.90491  0.16137  0.24659  1.0000
  Zn  Zn2       1.0  0.59509  0.66137  0.25341  1.0000
  Zn  Zn3       1.0  0.09509  0.83863  0.75341  1.0000
  Zn  Zn4       1.0  0.40491  0.33863  0.74659  1.0000
  Zn  Zn5       1.0  0.65814  0.31465  0.06431  1.0000
  Zn  Zn6       1.0  0.84186  0.81465  0.43569  1.0000
  Zn  Zn7       1.0  0.34186  0.68535  0.93569  1.0000
  Zn  Zn8       1.0  0.15814  0.18535  0.56431  1.0000
  H   H1        1.0  0.90019  0.40235  0.28939  1.0000
  H   H2        1.0  0.59980  0.90236  0.21061  1.0000
  H   H3        1.0  0.09981  0.59765  0.71061  1.0000
  H   H4        1.0  0.40020  0.09764  0.78939  1.0000
  H   H5        1.0  0.94144  0.06564  0.79876  1.0000
  H   H6        1.0  0.55856  0.56564  0.70124  1.0000
  H   H7        1.0  0.05856  0.93436  0.20124  1.0000
  H   H8        1.0  0.44144  0.43435  0.29876  1.0000
  H   H9        1.0  0.92938  0.60212  0.82241  1.0000
  H   H10       1.0  0.57062  0.10212  0.67758  1.0000
  H   H11       1.0  0.07062  0.39788  0.17758  1.0000
  H   H12       1.0  0.42938  0.89788  0.32241  1.0000
  H   H13       1.0  0.00760  0.24269  0.73507  1.0000
  H   H14       1.0  0.49240  0.74269  0.76493  1.0000
  H   H15       1.0  0.99240  0.75731  0.26493  1.0000
  H   H16       1.0  0.50760  0.25731  0.23507  1.0000
  H   H17       1.0  0.67736  0.56199  0.03636  1.0000
  H   H18       1.0  0.82264  0.06199  0.46364  1.0000
  H   H19       1.0  0.32264  0.43801  0.96364  1.0000
  H   H20       1.0  0.17736  0.93801  0.53636  1.0000
  H   H21       1.0  0.79607  0.68066  0.93446  1.0000
  H   H22       1.0  0.70393  0.18067  0.56554  1.0000
  H   H23       1.0  0.20393  0.31934  0.06554  1.0000
  H   H24       1.0  0.29607  0.81933  0.43446  1.0000
  H   H25       1.0  0.81339  0.96905  0.90476  1.0000
  H   H26       1.0  0.68661  0.46905  0.59524  1.0000
  H   H27       1.0  0.18661  0.03095  0.09524  1.0000
  H   H28       1.0  0.31339  0.53095  0.40476  1.0000
  H   H29       1.0  0.00538  0.43454  0.74461  1.0000
  H   H30       1.0  0.49462  0.93454  0.75539  1.0000
  H   H31       1.0  0.99462  0.56546  0.25539  1.0000
  H   H32       1.0  0.50538  0.06546  0.24461  1.0000
  H   H33       1.0  0.68879  0.07170  0.01538  1.0000
  H   H34       1.0  0.81121  0.57170  0.48462  1.0000
  H   H35       1.0  0.31121  0.92830  0.98462  1.0000
  H   H36       1.0  0.18879  0.42830  0.51538  1.0000
  H   H37       1.0  0.70610  0.28253  0.38900  1.0000
  H   H38       1.0  0.79389  0.78253  0.11100  1.0000
  H   H39       1.0  0.29390  0.71747  0.61100  1.0000
  H   H40       1.0  0.20611  0.21747  0.88900  1.0000
  H   H41       1.0  0.79319  0.39900  0.44561  1.0000
  H   H42       1.0  0.70681  0.89900  0.05439  1.0000
  H   H43       1.0  0.20682  0.60100  0.55439  1.0000
  H   H44       1.0  0.29319  0.10100  0.94561  1.0000
  C   C1        1.0  0.89141  0.21879  0.85056  1.0000
  C   C2        1.0  0.60859  0.71879  0.64944  1.0000
  C   C3        1.0  0.10859  0.78121  0.14944  1.0000
  C   C4        1.0  0.39141  0.28121  0.35056  1.0000
  C   C5        1.0  0.69308  0.45126  0.24185  1.0000
  C   C6        1.0  0.80691  0.95126  0.25815  1.0000
  C   C7        1.0  0.30692  0.54874  0.75815  1.0000
  C   C8        1.0  0.19309  0.04874  0.74186  1.0000
  C   C9        1.0  0.82080  0.26896  0.91654  1.0000
  C   C10       1.0  0.67920  0.76896  0.58346  1.0000
  C   C11       1.0  0.17920  0.73104  0.08346  1.0000
  C   C12       1.0  0.32080  0.23104  0.41654  1.0000
  C   C13       1.0  0.88651  0.44146  0.86017  1.0000
  C   C14       1.0  0.61349  0.94146  0.63983  1.0000
  C   C15       1.0  0.11349  0.55854  0.13983  1.0000
  C   C16       1.0  0.38651  0.05854  0.36017  1.0000
  C   C17       1.0  0.81835  0.38158  0.92150  1.0000
  C   C18       1.0  0.68166  0.88158  0.57850  1.0000
  C   C19       1.0  0.18166  0.61842  0.07849  1.0000
  C   C20       1.0  0.31834  0.11842  0.42150  1.0000
  C   C21       1.0  0.79983  0.36452  0.28302  1.0000
  C   C22       1.0  0.70016  0.86452  0.21698  1.0000
  C   C23       1.0  0.20017  0.63548  0.71698  1.0000
  C   C24       1.0  0.29984  0.13548  0.78302  1.0000
  C   C25       1.0  0.88863  0.10823  0.84804  1.0000
  C   C26       1.0  0.61137  0.60823  0.65196  1.0000
  C   C27       1.0  0.11137  0.89177  0.15196  1.0000
  C   C28       1.0  0.38863  0.39177  0.34805  1.0000
  C   C29       1.0  0.92152  0.26584  0.45204  1.0000
  C   C30       1.0  0.57848  0.76584  0.04796  1.0000
  C   C31       1.0  0.07848  0.73416  0.54796  1.0000
  C   C32       1.0  0.42152  0.23416  0.95204  1.0000
  C   C33       1.0  0.87871  0.55150  0.86712  1.0000
  C   C34       1.0  0.62129  0.05151  0.63288  1.0000
  C   C35       1.0  0.12129  0.44850  0.13288  1.0000
  C   C36       1.0  0.37871  0.94850  0.36712  1.0000
  C   C37       1.0  0.95774  0.28143  0.78860  1.0000
  C   C38       1.0  0.54227  0.78143  0.71140  1.0000
  C   C39       1.0  0.04227  0.71857  0.21140  1.0000
  C   C40       1.0  0.45773  0.21857  0.28860  1.0000
  C   C41       1.0  0.73883  0.53042  0.98722  1.0000
  C   C42       1.0  0.76117  0.03042  0.51278  1.0000
  C   C43       1.0  0.26117  0.46958  0.01278  1.0000
  C   C44       1.0  0.23883  0.96958  0.48722  1.0000
  C   C45       1.0  0.80430  0.59582  0.93008  1.0000
  C   C46       1.0  0.69570  0.09582  0.56991  1.0000
  C   C47       1.0  0.19570  0.40418  0.06991  1.0000
  C   C48       1.0  0.30430  0.90418  0.43009  1.0000
  C   C49       1.0  0.81638  0.05430  0.90675  1.0000
  C   C50       1.0  0.68362  0.55430  0.59325  1.0000
  C   C51       1.0  0.18362  0.94570  0.09325  1.0000
  C   C52       1.0  0.31638  0.44570  0.40675  1.0000
  C   C53       1.0  0.95568  0.38833  0.79352  1.0000
  C   C54       1.0  0.54432  0.88833  0.70648  1.0000
  C   C55       1.0  0.04432  0.61167  0.20648  1.0000
  C   C56       1.0  0.45568  0.11167  0.29352  1.0000
  C   C57       1.0  0.74719  0.11082  0.96803  1.0000
  C   C58       1.0  0.75281  0.61082  0.53197  1.0000
  C   C59       1.0  0.25281  0.88918  0.03197  1.0000
  C   C60       1.0  0.24719  0.38918  0.46803  1.0000
  C   C61       1.0  0.79819  0.33047  0.39647  1.0000
  C   C62       1.0  0.70180  0.83048  0.10353  1.0000
  C   C63       1.0  0.20181  0.66953  0.60353  1.0000
  C   C64       1.0  0.29820  0.16952  0.89647  1.0000
  N   N1        1.0  0.74706  0.42631  0.98379  1.0000
  N   N2        1.0  0.75294  0.92631  0.51621  1.0000
  N   N3        1.0  0.25294  0.57369  0.01621  1.0000
  N   N4        1.0  0.24706  0.07369  0.48379  1.0000
  N   N5        1.0  0.75072  0.21499  0.97359  1.0000
  N   N6        1.0  0.74928  0.71499  0.52641  1.0000
  N   N7        1.0  0.24928  0.78501  0.02641  1.0000
  N   N8        1.0  0.25072  0.28501  0.47359  1.0000
  Cl  Cl1       1.0  0.07953  0.17850  0.17863  1.0000
  Cl  Cl2       1.0  0.42047  0.67850  0.32136  1.0000
  Cl  Cl3       1.0  0.92047  0.82150  0.82137  1.0000
  Cl  Cl4       1.0  0.57953  0.32150  0.67863  1.0000
  O   O1        1.0  0.59997  0.43693  0.15618  1.0000
  O   O2        1.0  0.90002  0.93693  0.34382  1.0000
  O   O3        1.0  0.40003  0.56307  0.84382  1.0000
  O   O4        1.0  0.09998  0.06307  0.65618  1.0000
  O   O5        1.0  0.77682  0.28042  0.21138  1.0000
  O   O6        1.0  0.72318  0.78042  0.28862  1.0000
  O   O7        1.0  0.22318  0.71958  0.78862  1.0000
  O   O8        1.0  0.27682  0.21958  0.71138  1.0000
  O   O9        1.0  0.70884  0.53472  0.29820  1.0000
  O   O10       1.0  0.79116  0.03472  0.20180  1.0000
  O   O11       1.0  0.29116  0.46528  0.70180  1.0000
  O   O12       1.0  0.20884  0.96527  0.79820  1.0000
  O   O13       1.0  0.99156  0.28993  0.54535  1.0000
  O   O14       1.0  0.50844  0.78994  0.95465  1.0000
  O   O15       1.0  0.00844  0.71007  0.45465  1.0000
  O   O16       1.0  0.49156  0.21006  0.04535  1.0000
  O   O17       1.0  0.95619  0.18559  0.40532  1.0000
  O   O18       1.0  0.54381  0.68559  0.09468  1.0000
  O   O19       1.0  0.04381  0.81441  0.59468  1.0000
  O   O20       1.0  0.45619  0.31441  0.90532  1.0000
