data_image0
_chemical_formula_structural       Cd2H12C12I4N4O2
_chemical_formula_sum              "Cd2 H12 C12 I4 N4 O2"
_cell_length_a       7.88175
_cell_length_b       8.03127
_cell_length_c       9.08576
_cell_angle_alpha    105.994
_cell_angle_beta     97.6325
_cell_angle_gamma    102.137

_space_group_name_H-M_alt    "P 1"
_space_group_IT_number       1

loop_
  _space_group_symop_operation_xyz
  'x, y, z'

loop_
  _atom_site_type_symbol
  _atom_site_label
  _atom_site_symmetry_multiplicity
  _atom_site_fract_x
  _atom_site_fract_y
  _atom_site_fract_z
  _atom_site_occupancy
  Cd  Cd1       1.0  0.20969  0.42988  0.41813  1.0000
  Cd  Cd2       1.0  0.79031  0.57012  0.58186  1.0000
  H   H1        1.0  0.19779  0.02091  0.83531  1.0000
  H   H2        1.0  0.80220  0.97909  0.16468  1.0000
  H   H3        1.0  0.31721  0.78661  0.90478  1.0000
  H   H4        1.0  0.68279  0.21339  0.09521  1.0000
  H   H5        1.0  0.38901  0.80598  0.19033  1.0000
  H   H6        1.0  0.61099  0.19402  0.80967  1.0000
  H   H7        1.0  0.34008  0.06658  0.39077  1.0000
  H   H8        1.0  0.65992  0.93342  0.60923  1.0000
  H   H9        1.0  0.14389  0.24927  0.81455  1.0000
  H   H10       1.0  0.85611  0.75073  0.18545  1.0000
  H   H11       1.0  0.03335  0.41516  0.87712  1.0000
  H   H12       1.0  0.96665  0.58484  0.12288  1.0000
  C   C1        1.0  0.20393  0.16851  0.07676  1.0000
  C   C2        1.0  0.79607  0.83149  0.92324  1.0000
  C   C3        1.0  0.23111  0.03034  0.95812  1.0000
  C   C4        1.0  0.76889  0.96966  0.04188  1.0000
  C   C5        1.0  0.29812  0.89700  0.99704  1.0000
  C   C6        1.0  0.70187  0.10299  0.00296  1.0000
  C   C7        1.0  0.33729  0.90703  0.15360  1.0000
  C   C8        1.0  0.66271  0.09298  0.84640  1.0000
  C   C9        1.0  0.30943  0.05115  0.26619  1.0000
  C   C10       1.0  0.69057  0.94885  0.73381  1.0000
  C   C11       1.0  0.12233  0.31182  0.04591  1.0000
  C   C12       1.0  0.87768  0.68818  0.95410  1.0000
  I   I1        1.0  0.13173  0.77176  0.52564  1.0000
  I   I2        1.0  0.86827  0.22824  0.47436  1.0000
  I   I3        1.0  0.42939  0.40212  0.68346  1.0000
  I   I4        1.0  0.57061  0.59788  0.31654  1.0000
  N   N1        1.0  0.24333  0.17767  0.22823  1.0000
  N   N2        1.0  0.75667  0.82232  0.77177  1.0000
  N   N3        1.0  0.09388  0.32053  0.90118  1.0000
  N   N4        1.0  0.90612  0.67947  0.09882  1.0000
  O   O1        1.0  0.07673  0.41677  0.15607  1.0000
  O   O2        1.0  0.92328  0.58323  0.84393  1.0000
