data_image0
_chemical_formula_structural       Cd2H12C12Br4N4O2
_chemical_formula_sum              "Cd2 H12 C12 Br4 N4 O2"
_cell_length_a       7.49123
_cell_length_b       7.30087
_cell_length_c       9.13086
_cell_angle_alpha    110.355
_cell_angle_beta     91.7355
_cell_angle_gamma    99.0385

_space_group_name_H-M_alt    "P 1"
_space_group_IT_number       1

loop_
  _space_group_symop_operation_xyz
  'x, y, z'

loop_
  _atom_site_type_symbol
  _atom_site_label
  _atom_site_symmetry_multiplicity
  _atom_site_fract_x
  _atom_site_fract_y
  _atom_site_fract_z
  _atom_site_occupancy
  Cd  Cd1       1.0  0.23153  0.43991  0.40778  1.0000
  Cd  Cd2       1.0  0.76845  0.56011  0.59224  1.0000
  H   H1        1.0  0.20685  0.93666  0.80623  1.0000
  H   H2        1.0  0.79315  0.06333  0.19377  1.0000
  H   H3        1.0  0.32739  0.67119  0.86274  1.0000
  H   H4        1.0  0.67258  0.32880  0.13727  1.0000
  H   H5        1.0  0.40596  0.71391  0.14580  1.0000
  H   H6        1.0  0.59404  0.28609  0.85421  1.0000
  H   H7        1.0  0.36510  0.02761  0.35661  1.0000
  H   H8        1.0  0.63492  0.97240  0.64339  1.0000
  H   H9        1.0  0.13018  0.17370  0.78781  1.0000
  H   H10       1.0  0.86983  0.82631  0.21220  1.0000
  H   H11       1.0  0.03309  0.38610  0.86632  1.0000
  H   H12       1.0  0.96693  0.61391  0.13369  1.0000
  C   C1        1.0  0.22196  0.12559  0.05263  1.0000
  C   C2        1.0  0.77803  0.87442  0.94737  1.0000
  C   C3        1.0  0.24394  0.95647  0.92793  1.0000
  C   C4        1.0  0.75607  0.04353  0.07207  1.0000
  C   C5        1.0  0.31023  0.80471  0.95925  1.0000
  C   C6        1.0  0.68977  0.19527  0.04073  1.0000
  C   C7        1.0  0.35407  0.82774  0.11437  1.0000
  C   C8        1.0  0.64593  0.17227  0.88564  1.0000
  C   C9        1.0  0.33136  0.00233  0.23322  1.0000
  C   C10       1.0  0.66864  0.99767  0.76678  1.0000
  C   C11       1.0  0.14048  0.29057  0.03003  1.0000
  C   C12       1.0  0.85952  0.70942  0.96997  1.0000
  Br  Br1       1.0  0.08686  0.77109  0.51773  1.0000
  Br  Br2       1.0  0.91313  0.22896  0.48227  1.0000
  Br  Br3       1.0  0.42636  0.36495  0.63370  1.0000
  Br  Br4       1.0  0.57363  0.63496  0.36621  1.0000
  N   N1        1.0  0.26642  0.14742  0.20278  1.0000
  N   N2        1.0  0.73358  0.85258  0.79723  1.0000
  N   N3        1.0  0.10073  0.28187  0.88427  1.0000
  N   N4        1.0  0.89929  0.71814  0.11574  1.0000
  O   O1        1.0  0.10733  0.43013  0.14813  1.0000
  O   O2        1.0  0.89267  0.56987  0.85188  1.0000
