data_image0
_chemical_formula_structural       Cd2H12C12N4Cl4O2
_chemical_formula_sum              "Cd2 H12 C12 N4 Cl4 O2"
_cell_length_a       7.10121
_cell_length_b       7.97036
_cell_length_c       9.22808
_cell_angle_alpha    110.75
_cell_angle_beta     95.6373
_cell_angle_gamma    112.849

_space_group_name_H-M_alt    "P 1"
_space_group_IT_number       1

loop_
  _space_group_symop_operation_xyz
  'x, y, z'

loop_
  _atom_site_type_symbol
  _atom_site_label
  _atom_site_symmetry_multiplicity
  _atom_site_fract_x
  _atom_site_fract_y
  _atom_site_fract_z
  _atom_site_occupancy
  Cd  Cd1       1.0  0.72640  0.97187  0.90173  1.0000
  Cd  Cd2       1.0  0.27361  0.02812  0.09827  1.0000
  H   H1        1.0  0.73352  0.00329  0.33038  1.0000
  H   H2        1.0  0.26648  0.99671  0.66962  1.0000
  H   H3        1.0  0.03179  0.34081  0.42957  1.0000
  H   H4        1.0  0.96821  0.65919  0.57042  1.0000
  H   H5        1.0  0.22333  0.53478  0.72671  1.0000
  H   H6        1.0  0.77668  0.46522  0.27328  1.0000
  H   H7        1.0  0.09829  0.37209  0.91022  1.0000
  H   H8        1.0  0.90172  0.62791  0.08977  1.0000
  H   H9        1.0  0.51877  0.72865  0.27761  1.0000
  H   H10       1.0  0.48123  0.27134  0.72239  1.0000
  H   H11       1.0  0.35834  0.54234  0.32864  1.0000
  H   H12       1.0  0.64166  0.45766  0.67137  1.0000
  C   C1        1.0  0.75534  0.00632  0.56881  1.0000
  C   C2        1.0  0.24466  0.99368  0.43119  1.0000
  C   C3        1.0  0.81536  0.08583  0.45872  1.0000
  C   C4        1.0  0.18464  0.91417  0.54128  1.0000
  C   C5        1.0  0.98391  0.27841  0.51510  1.0000
  C   C6        1.0  0.01608  0.72159  0.48490  1.0000
  C   C7        1.0  0.08953  0.38527  0.67837  1.0000
  C   C8        1.0  0.91047  0.61473  0.32162  1.0000
  C   C9        1.0  0.02077  0.29581  0.78116  1.0000
  C   C10       1.0  0.97923  0.70420  0.21884  1.0000
  C   C11       1.0  0.57527  0.80041  0.52240  1.0000
  C   C12       1.0  0.42473  0.19959  0.47760  1.0000
  N   N1        1.0  0.85725  0.11187  0.72727  1.0000
  N   N2        1.0  0.14275  0.88814  0.27273  1.0000
  N   N3        1.0  0.47994  0.68357  0.36569  1.0000
  N   N4        1.0  0.52005  0.31643  0.63431  1.0000
  Cl  Cl1       1.0  0.48196  0.79411  0.04402  1.0000
  Cl  Cl2       1.0  0.51804  0.20589  0.95598  1.0000
  Cl  Cl3       1.0  0.06363  0.24760  0.14230  1.0000
  Cl  Cl4       1.0  0.93637  0.75240  0.85770  1.0000
  O   O1        1.0  0.51857  0.74305  0.62860  1.0000
  O   O2        1.0  0.48143  0.25695  0.37140  1.0000
