data_image0
_chemical_formula_structural       Cd2H32C34N4O10
_chemical_formula_sum              "Cd2 H32 C34 N4 O10"
_cell_length_a       8.21213
_cell_length_b       8.39539
_cell_length_c       12.2418
_cell_angle_alpha    101.358
_cell_angle_beta     99.5874
_cell_angle_gamma    101.154

_space_group_name_H-M_alt    "P 1"
_space_group_IT_number       1

loop_
  _space_group_symop_operation_xyz
  'x, y, z'

loop_
  _atom_site_type_symbol
  _atom_site_label
  _atom_site_symmetry_multiplicity
  _atom_site_fract_x
  _atom_site_fract_y
  _atom_site_fract_z
  _atom_site_occupancy
  Cd  Cd1       1.0  0.87000  0.87166  0.78261  1.0000
  Cd  Cd2       1.0  0.13000  0.12834  0.21739  1.0000
  H   H1        1.0  0.53877  0.18586  0.99605  1.0000
  H   H2        1.0  0.46123  0.81414  0.00395  1.0000
  H   H3        1.0  0.40223  0.10277  0.86217  1.0000
  H   H4        1.0  0.59777  0.89723  0.13783  1.0000
  H   H5        1.0  0.61787  0.93915  0.56690  1.0000
  H   H6        1.0  0.38213  0.06084  0.43310  1.0000
  H   H7        1.0  0.05301  0.67913  0.26899  1.0000
  H   H8        1.0  0.94700  0.32088  0.73101  1.0000
  H   H9        1.0  0.45396  0.63762  0.78859  1.0000
  H   H10       1.0  0.54604  0.36238  0.21141  1.0000
  H   H11       1.0  0.79869  0.80248  0.25660  1.0000
  H   H12       1.0  0.20131  0.19752  0.74340  1.0000
  H   H13       1.0  0.22045  0.74980  0.86849  1.0000
  H   H14       1.0  0.77954  0.25020  0.13151  1.0000
  H   H15       1.0  0.58396  0.91489  0.35481  1.0000
  H   H16       1.0  0.41604  0.08511  0.64519  1.0000
  H   H17       1.0  0.28280  0.59560  0.38434  1.0000
  H   H18       1.0  0.71720  0.40440  0.61566  1.0000
  H   H19       1.0  0.43850  0.58674  0.58053  1.0000
  H   H20       1.0  0.56150  0.41326  0.41947  1.0000
  H   H21       1.0  0.06363  0.17481  0.94466  1.0000
  H   H22       1.0  0.93637  0.82519  0.05534  1.0000
  H   H23       1.0  0.17130  0.04428  0.93848  1.0000
  H   H24       1.0  0.82870  0.95572  0.06152  1.0000
  H   H25       1.0  0.55605  0.31816  0.77933  1.0000
  H   H26       1.0  0.44395  0.68184  0.22067  1.0000
  H   H27       1.0  0.76265  0.49193  0.02071  1.0000
  H   H28       1.0  0.23736  0.50808  0.97929  1.0000
  H   H29       1.0  0.47490  0.40865  0.89466  1.0000
  H   H30       1.0  0.52510  0.59135  0.10534  1.0000
  H   H31       1.0  0.84356  0.36926  0.92152  1.0000
  H   H32       1.0  0.15644  0.63074  0.07848  1.0000
  C   C1        1.0  0.53300  0.17130  0.90440  1.0000
  C   C2        1.0  0.46700  0.82870  0.09560  1.0000
  C   C3        1.0  0.80536  0.59341  0.87897  1.0000
  C   C4        1.0  0.19464  0.40659  0.12103  1.0000
  C   C5        1.0  0.64943  0.06105  0.86684  1.0000
  C   C6        1.0  0.35057  0.93895  0.13315  1.0000
  C   C7        1.0  0.74836  0.44503  0.92823  1.0000
  C   C8        1.0  0.25164  0.55497  0.07177  1.0000
  C   C9        1.0  0.70492  0.88824  0.51946  1.0000
  C   C10       1.0  0.29509  0.11175  0.48054  1.0000
  C   C11       1.0  0.57029  0.33942  0.87202  1.0000
  C   C12       1.0  0.42971  0.66059  0.12798  1.0000
  C   C13       1.0  0.06249  0.69396  0.36046  1.0000
  C   C14       1.0  0.93752  0.30604  0.63953  1.0000
  C   C15       1.0  0.93769  0.76147  0.41096  1.0000
  C   C16       1.0  0.06231  0.23853  0.58904  1.0000
  C   C17       1.0  0.94574  0.78124  0.52991  1.0000
  C   C18       1.0  0.05426  0.21876  0.47009  1.0000
  C   C19       1.0  0.08379  0.73779  0.59881  1.0000
  C   C20       1.0  0.91621  0.26221  0.40119  1.0000
  C   C21       1.0  0.34883  0.66334  0.73321  1.0000
  C   C22       1.0  0.65117  0.33666  0.26679  1.0000
  C   C23       1.0  0.80479  0.81147  0.34746  1.0000
  C   C24       1.0  0.19521  0.18854  0.65254  1.0000
  C   C25       1.0  0.22099  0.72688  0.77765  1.0000
  C   C26       1.0  0.77901  0.27311  0.22235  1.0000
  C   C27       1.0  0.20632  0.67263  0.54563  1.0000
  C   C28       1.0  0.79368  0.32737  0.45437  1.0000
  C   C29       1.0  0.68797  0.87504  0.40166  1.0000
  C   C30       1.0  0.31203  0.12495  0.59834  1.0000
  C   C31       1.0  0.19098  0.64969  0.42499  1.0000
  C   C32       1.0  0.80902  0.35031  0.57501  1.0000
  C   C33       1.0  0.34072  0.63590  0.61713  1.0000
  C   C34       1.0  0.65928  0.36410  0.38287  1.0000
  N   N1        1.0  0.82953  0.84274  0.58133  1.0000
  N   N2        1.0  0.17047  0.15726  0.41867  1.0000
  N   N3        1.0  0.09340  0.76331  0.71247  1.0000
  N   N4        1.0  0.90660  0.23668  0.28753  1.0000
  O   O1        1.0  0.71804  0.60523  0.78555  1.0000
  O   O2        1.0  0.28196  0.39477  0.21444  1.0000
  O   O3        1.0  0.72069  0.98745  0.93592  1.0000
  O   O4        1.0  0.27932  0.01256  0.06408  1.0000
  O   O5        1.0  0.94128  0.70215  0.93225  1.0000
  O   O6        1.0  0.05872  0.29786  0.06775  1.0000
  O   O7        1.0  0.09717  0.09154  0.88711  1.0000
  O   O8        1.0  0.90283  0.90846  0.11289  1.0000
  O   O9        1.0  0.67177  0.04392  0.76459  1.0000
  O   O10       1.0  0.32822  0.95608  0.23541  1.0000
