data_image0
_chemical_formula_structural       Na4Mo2H18C8N2O18
_chemical_formula_sum              "Na4 Mo2 H18 C8 N2 O18"
_cell_length_a       5.40604
_cell_length_b       10.0572
_cell_length_c       10.0581
_cell_angle_alpha    96.2839
_cell_angle_beta     96.2243
_cell_angle_gamma    96.226

_space_group_name_H-M_alt    "P 1"
_space_group_IT_number       1

loop_
  _space_group_symop_operation_xyz
  'x, y, z'

loop_
  _atom_site_type_symbol
  _atom_site_label
  _atom_site_symmetry_multiplicity
  _atom_site_fract_x
  _atom_site_fract_y
  _atom_site_fract_z
  _atom_site_occupancy
  Na  Na1       1.0  0.50000  0.60428  0.39572  1.0000
  Na  Na2       1.0  0.50000  0.39571  0.60428  1.0000
  Na  Na3       1.0  1.00000  0.71932  0.28067  1.0000
  Na  Na4       1.0  0.99996  0.28068  0.71932  1.0000
  Mo  Mo1       1.0  0.92915  0.34731  0.34731  1.0000
  Mo  Mo2       1.0  0.07087  0.65270  0.65271  1.0000
  H   H1        1.0  0.14957  0.15207  0.00531  1.0000
  H   H2        1.0  0.85042  0.99464  0.84798  1.0000
  H   H3        1.0  0.85044  0.84794  0.99470  1.0000
  H   H4        1.0  0.14954  0.00535  0.15201  1.0000
  H   H5        1.0  0.26306  0.32185  0.05622  1.0000
  H   H6        1.0  0.73694  0.94378  0.67820  1.0000
  H   H7        1.0  0.73694  0.67815  0.94378  1.0000
  H   H8        1.0  0.26304  0.05620  0.32179  1.0000
  H   H9        1.0  0.34713  0.25621  0.25622  1.0000
  H   H10       1.0  0.65289  0.74376  0.74378  1.0000
  H   H11       1.0  0.46366  0.63292  0.12652  1.0000
  H   H12       1.0  0.53632  0.87349  0.36703  1.0000
  H   H13       1.0  0.53633  0.36705  0.87348  1.0000
  H   H14       1.0  0.46361  0.12653  0.63296  1.0000
  H   H15       1.0  0.61652  0.50475  0.14047  1.0000
  H   H16       1.0  0.38357  0.85957  0.49522  1.0000
  H   H17       1.0  0.38352  0.49524  0.85954  1.0000
  H   H18       1.0  0.61638  0.14045  0.50477  1.0000
  C   C1        1.0  0.86699  0.28486  0.03676  1.0000
  C   C2        1.0  0.13304  0.96326  0.71516  1.0000
  C   C3        1.0  0.13302  0.71513  0.96325  1.0000
  C   C4        1.0  0.86694  0.03676  0.28482  1.0000
  C   C5        1.0  0.12332  0.24047  0.07477  1.0000
  C   C6        1.0  0.87671  0.92523  0.75956  1.0000
  C   C7        1.0  0.87669  0.75953  0.92523  1.0000
  C   C8        1.0  0.12328  0.07477  0.24043  1.0000
  N   N1        1.0  0.16720  0.21676  0.21674  1.0000
  N   N2        1.0  0.83281  0.78323  0.78326  1.0000
  O   O1        1.0  0.63933  0.39151  0.39151  1.0000
  O   O2        1.0  0.36068  0.60854  0.60852  1.0000
  O   O3        1.0  0.10021  0.49283  0.30790  1.0000
  O   O4        1.0  0.89992  0.69212  0.50718  1.0000
  O   O5        1.0  0.89987  0.50716  0.69213  1.0000
  O   O6        1.0  0.10016  0.30791  0.49281  1.0000
  O   O7        1.0  0.74298  0.32165  0.13371  1.0000
  O   O8        1.0  0.25706  0.86631  0.67836  1.0000
  O   O9        1.0  0.25704  0.67834  0.86629  1.0000
  O   O10       1.0  0.74295  0.13370  0.32164  1.0000
  O   O11       1.0  0.79394  0.28766  0.91451  1.0000
  O   O12       1.0  0.20607  0.08552  0.71239  1.0000
  O   O13       1.0  0.20604  0.71232  0.08549  1.0000
  O   O14       1.0  0.79388  0.91447  0.28759  1.0000
  O   O15       1.0  0.61753  0.60091  0.17010  1.0000
  O   O16       1.0  0.38249  0.82991  0.39907  1.0000
  O   O17       1.0  0.38249  0.39909  0.82990  1.0000
  O   O18       1.0  0.61747  0.17010  0.60092  1.0000
