data_image0
_chemical_formula_structural       Cd3H18C22N12Cl4O2
_chemical_formula_sum              "Cd3 H18 C22 N12 Cl4 O2"
_cell_length_a       7.36742
_cell_length_b       7.93227
_cell_length_c       12.5761
_cell_angle_alpha    90.8328
_cell_angle_beta     90.1341
_cell_angle_gamma    110.697

_space_group_name_H-M_alt    "P 1"
_space_group_IT_number       1

loop_
  _space_group_symop_operation_xyz
  'x, y, z'

loop_
  _atom_site_type_symbol
  _atom_site_label
  _atom_site_symmetry_multiplicity
  _atom_site_fract_x
  _atom_site_fract_y
  _atom_site_fract_z
  _atom_site_occupancy
  Cd  Cd1       1.0  0.36391  0.20909  0.24360  1.0000
  Cd  Cd2       1.0  0.63609  0.79092  0.75640  1.0000
  Cd  Cd3       1.0  0.50000  0.50000  0.50000  1.0000
  H   H1        1.0  0.26320  0.92043  0.44830  1.0000
  H   H2        1.0  0.73680  0.07958  0.55170  1.0000
  H   H3        1.0  0.96859  0.67814  0.52628  1.0000
  H   H4        1.0  0.03141  0.32186  0.47372  1.0000
  H   H5        1.0  0.61078  0.79441  0.30543  1.0000
  H   H6        1.0  0.38922  0.20558  0.69457  1.0000
  H   H7        1.0  0.96226  0.27255  0.84547  1.0000
  H   H8        1.0  0.03774  0.72744  0.15454  1.0000
  H   H9        1.0  0.20163  0.51235  0.73773  1.0000
  H   H10       1.0  0.79836  0.48765  0.26227  1.0000
  H   H11       1.0  0.52594  0.74674  0.00495  1.0000
  H   H12       1.0  0.47406  0.25326  0.99505  1.0000
  H   H13       1.0  0.30188  0.52076  0.12386  1.0000
  H   H14       1.0  0.69813  0.47924  0.87614  1.0000
  H   H15       1.0  0.30910  0.92724  0.07970  1.0000
  H   H16       1.0  0.69090  0.07276  0.92030  1.0000
  H   H17       1.0  0.50870  0.95462  0.14258  1.0000
  H   H18       1.0  0.49130  0.04539  0.85742  1.0000
  C   C1        1.0  0.11750  0.89087  0.41584  1.0000
  C   C2        1.0  0.88250  0.10913  0.58416  1.0000
  C   C3        1.0  0.95625  0.75893  0.45909  1.0000
  C   C4        1.0  0.04375  0.24107  0.54091  1.0000
  C   C5        1.0  0.75768  0.82326  0.33595  1.0000
  C   C6        1.0  0.24232  0.17674  0.66404  1.0000
  C   C7        1.0  0.92096  0.95053  0.28906  1.0000
  C   C8        1.0  0.07904  0.04947  0.71094  1.0000
  C   C9        1.0  0.91371  0.04408  0.19105  1.0000
  C   C10       1.0  0.08629  0.95592  0.80895  1.0000
  C   C11       1.0  0.00737  0.21903  0.05982  1.0000
  C   C12       1.0  0.99262  0.78097  0.94018  1.0000
  C   C13       1.0  0.12443  0.36586  0.99295  1.0000
  C   C14       1.0  0.87556  0.63414  0.00705  1.0000
  C   C15       1.0  0.08909  0.37127  0.88346  1.0000
  C   C16       1.0  0.91091  0.62873  0.11654  1.0000
  C   C17       1.0  0.22045  0.50418  0.82327  1.0000
  C   C18       1.0  0.77955  0.49582  0.17673  1.0000
  C   C19       1.0  0.40166  0.63739  0.97200  1.0000
  C   C20       1.0  0.59834  0.36261  0.02801  1.0000
  C   C21       1.0  0.27776  0.50956  0.03811  1.0000
  C   C22       1.0  0.72224  0.49044  0.96189  1.0000
  N   N1        1.0  0.09877  0.98558  0.33228  1.0000
  N   N2        1.0  0.90123  0.01442  0.66772  1.0000
  N   N3        1.0  0.77748  0.72903  0.41982  1.0000
  N   N4        1.0  0.22252  0.27097  0.58018  1.0000
  N   N5        1.0  0.07084  0.17780  0.15379  1.0000
  N   N6        1.0  0.92916  0.82220  0.84621  1.0000
  N   N7        1.0  0.76109  0.00171  0.12322  1.0000
  N   N8        1.0  0.23891  0.99829  0.87678  1.0000
  N   N9        1.0  0.82195  0.11171  0.03906  1.0000
  N   N10       1.0  0.17804  0.88829  0.96094  1.0000
  N   N11       1.0  0.38010  0.63012  0.86570  1.0000
  N   N12       1.0  0.61990  0.36988  0.13430  1.0000
  Cl  Cl1       1.0  0.59439  0.23489  0.40412  1.0000
  Cl  Cl2       1.0  0.40561  0.76512  0.59588  1.0000
  Cl  Cl3       1.0  0.29689  0.50073  0.33214  1.0000
  Cl  Cl4       1.0  0.70311  0.49927  0.66786  1.0000
  O   O1        1.0  0.37173  0.94818  0.15243  1.0000
  O   O2        1.0  0.62827  0.05182  0.84757  1.0000
