data_image0
_chemical_formula_structural       Hg4H24C16N32
_chemical_formula_sum              "Hg4 H24 C16 N32"
_cell_length_a       10.3873
_cell_length_b       10.3873
_cell_length_c       10.3873
_cell_angle_alpha    103.36
_cell_angle_beta     112.61
_cell_angle_gamma    112.61

_space_group_name_H-M_alt    "P 1"
_space_group_IT_number       1

loop_
  _space_group_symop_operation_xyz
  'x, y, z'

loop_
  _atom_site_type_symbol
  _atom_site_label
  _atom_site_symmetry_multiplicity
  _atom_site_fract_x
  _atom_site_fract_y
  _atom_site_fract_z
  _atom_site_occupancy
  Hg  Hg1       1.0  0.25000  0.37500  0.62500  1.0000
  Hg  Hg2       1.0  0.75000  0.62500  0.37500  1.0000
  Hg  Hg3       1.0  0.75000  0.12500  0.87500  1.0000
  Hg  Hg4       1.0  0.25000  0.87500  0.12500  1.0000
  H   H1        1.0  0.62582  0.74217  0.99467  1.0000
  H   H2        1.0  0.74749  0.61635  0.74217  1.0000
  H   H3        1.0  0.87418  0.36885  0.61635  1.0000
  H   H4        1.0  0.75251  0.99467  0.36885  1.0000
  H   H5        1.0  0.37418  0.25783  0.00533  1.0000
  H   H6        1.0  0.25251  0.38366  0.25783  1.0000
  H   H7        1.0  0.12582  0.63115  0.38365  1.0000
  H   H8        1.0  0.24749  0.00533  0.63115  1.0000
  H   H9        1.0  0.42765  0.70891  0.94307  1.0000
  H   H10       1.0  0.76585  0.78126  0.70891  1.0000
  H   H11       1.0  0.07235  0.51541  0.78126  1.0000
  H   H12       1.0  0.73415  0.94307  0.51541  1.0000
  H   H13       1.0  0.57235  0.29109  0.05693  1.0000
  H   H14       1.0  0.23415  0.21874  0.29109  1.0000
  H   H15       1.0  0.92765  0.48459  0.21874  1.0000
  H   H16       1.0  0.26585  0.05693  0.48459  1.0000
  H   H17       1.0  0.59550  0.90178  0.02396  1.0000
  H   H18       1.0  0.87783  0.80628  0.90178  1.0000
  H   H19       1.0  0.90451  0.42846  0.80629  1.0000
  H   H20       1.0  0.62218  0.02396  0.42846  1.0000
  H   H21       1.0  0.40450  0.09822  0.97604  1.0000
  H   H22       1.0  0.12217  0.19371  0.09822  1.0000
  H   H23       1.0  0.09550  0.57154  0.19371  1.0000
  H   H24       1.0  0.37782  0.97604  0.57154  1.0000
  C   C1        1.0  0.54016  0.77961  0.94664  1.0000
  C   C2        1.0  0.83298  0.73945  0.77961  1.0000
  C   C3        1.0  0.95984  0.40648  0.73945  1.0000
  C   C4        1.0  0.66702  0.94664  0.40648  1.0000
  C   C5        1.0  0.45984  0.22039  0.05336  1.0000
  C   C6        1.0  0.16702  0.26055  0.22039  1.0000
  C   C7        1.0  0.04016  0.59352  0.26055  1.0000
  C   C8        1.0  0.33298  0.05336  0.59352  1.0000
  C   C9        1.0  0.50044  0.75741  0.78755  1.0000
  C   C10       1.0  0.96987  0.75697  0.75741  1.0000
  C   C11       1.0  0.99956  0.28711  0.75697  1.0000
  C   C12       1.0  0.53014  0.78755  0.28711  1.0000
  C   C13       1.0  0.49956  0.24259  0.21245  1.0000
  C   C14       1.0  0.03013  0.24303  0.24259  1.0000
  C   C15       1.0  0.00044  0.71289  0.24303  1.0000
  C   C16       1.0  0.46987  0.21245  0.71289  1.0000
  N   N1        1.0  0.39529  0.62054  0.65932  1.0000
  N   N2        1.0  0.96122  0.72525  0.62054  1.0000
  N   N3        1.0  0.10471  0.26403  0.72525  1.0000
  N   N4        1.0  0.53878  0.65932  0.26403  1.0000
  N   N5        1.0  0.60471  0.37946  0.34068  1.0000
  N   N6        1.0  0.03878  0.27475  0.37946  1.0000
  N   N7        1.0  0.89529  0.73597  0.27475  1.0000
  N   N8        1.0  0.46122  0.34068  0.73597  1.0000
  N   N9        1.0  0.39446  0.64568  0.53668  1.0000
  N   N10       1.0  0.10900  0.75122  0.64568  1.0000
  N   N11       1.0  0.10554  0.14222  0.75122  1.0000
  N   N12       1.0  0.39100  0.53668  0.14222  1.0000
  N   N13       1.0  0.60554  0.35432  0.46332  1.0000
  N   N14       1.0  0.89100  0.24878  0.35432  1.0000
  N   N15       1.0  0.89446  0.85778  0.24878  1.0000
  N   N16       1.0  0.60900  0.46332  0.85778  1.0000
  N   N17       1.0  0.49498  0.79338  0.58703  1.0000
  N   N18       1.0  0.20634  0.79840  0.79338  1.0000
  N   N19       1.0  0.00502  0.09205  0.79840  1.0000
  N   N20       1.0  0.29366  0.58703  0.09205  1.0000
  N   N21       1.0  0.50502  0.20662  0.41297  1.0000
  N   N22       1.0  0.79365  0.20160  0.20662  1.0000
  N   N23       1.0  0.99498  0.90795  0.20160  1.0000
  N   N24       1.0  0.70634  0.41297  0.90795  1.0000
  N   N25       1.0  0.56307  0.86595  0.74374  1.0000
  N   N26       1.0  0.12222  0.80288  0.86595  1.0000
  N   N27       1.0  0.93693  0.18067  0.80289  1.0000
  N   N28       1.0  0.37778  0.74374  0.18067  1.0000
  N   N29       1.0  0.43693  0.13405  0.25626  1.0000
  N   N30       1.0  0.87778  0.19712  0.13405  1.0000
  N   N31       1.0  0.06307  0.81933  0.19711  1.0000
  N   N32       1.0  0.62222  0.25626  0.81933  1.0000
