data_image0
_chemical_formula_structural       Hg4H16C8N16Cl8
_chemical_formula_sum              "Hg4 H16 C8 N16 Cl8"
_cell_length_a       3.98511
_cell_length_b       9.07267
_cell_length_c       20.2749
_cell_angle_alpha    90.0002
_cell_angle_beta     90
_cell_angle_gamma    94.9027

_space_group_name_H-M_alt    "P 1"
_space_group_IT_number       1

loop_
  _space_group_symop_operation_xyz
  'x, y, z'

loop_
  _atom_site_type_symbol
  _atom_site_label
  _atom_site_symmetry_multiplicity
  _atom_site_fract_x
  _atom_site_fract_y
  _atom_site_fract_z
  _atom_site_occupancy
  Hg  Hg1       1.0  0.77943  0.64144  0.43960  1.0000
  Hg  Hg2       1.0  0.72057  0.85856  0.93960  1.0000
  Hg  Hg3       1.0  0.22057  0.35856  0.56040  1.0000
  Hg  Hg4       1.0  0.27943  0.14144  0.06040  1.0000
  H   H1        1.0  0.94527  0.15462  0.34676  1.0000
  H   H2        1.0  0.55471  0.34538  0.84676  1.0000
  H   H3        1.0  0.05472  0.84537  0.65324  1.0000
  H   H4        1.0  0.44527  0.65462  0.15324  1.0000
  H   H5        1.0  0.26408  0.08085  0.39458  1.0000
  H   H6        1.0  0.23591  0.41916  0.89458  1.0000
  H   H7        1.0  0.73592  0.91915  0.60542  1.0000
  H   H8        1.0  0.76409  0.58085  0.10542  1.0000
  H   H9        1.0  0.83733  0.02050  0.40993  1.0000
  H   H10       1.0  0.66265  0.47950  0.90993  1.0000
  H   H11       1.0  0.16266  0.97950  0.59006  1.0000
  H   H12       1.0  0.33733  0.52050  0.09007  1.0000
  H   H13       1.0  0.31550  0.03553  0.24244  1.0000
  H   H14       1.0  0.18450  0.46447  0.74244  1.0000
  H   H15       1.0  0.68451  0.96447  0.75756  1.0000
  H   H16       1.0  0.81550  0.53553  0.25756  1.0000
  C   C1        1.0  0.01840  0.05397  0.37099  1.0000
  C   C2        1.0  0.48159  0.44603  0.87099  1.0000
  C   C3        1.0  0.98159  0.94602  0.62901  1.0000
  C   C4        1.0  0.51840  0.55397  0.12901  1.0000
  C   C5        1.0  0.03512  0.93180  0.32327  1.0000
  C   C6        1.0  0.46486  0.56820  0.82327  1.0000
  C   C7        1.0  0.96488  0.06820  0.67673  1.0000
  C   C8        1.0  0.53513  0.43180  0.17673  1.0000
  N   N1        1.0  0.18855  0.94059  0.26385  1.0000
  N   N2        1.0  0.31145  0.55941  0.76385  1.0000
  N   N3        1.0  0.81146  0.05940  0.73615  1.0000
  N   N4        1.0  0.68855  0.44060  0.23615  1.0000
  N   N5        1.0  0.15569  0.80769  0.23404  1.0000
  N   N6        1.0  0.34432  0.69231  0.73404  1.0000
  N   N7        1.0  0.84433  0.19231  0.76596  1.0000
  N   N8        1.0  0.65569  0.30769  0.26596  1.0000
  N   N9        1.0  0.98513  0.71945  0.27483  1.0000
  N   N10       1.0  0.51487  0.78055  0.77483  1.0000
  N   N11       1.0  0.01488  0.28055  0.72517  1.0000
  N   N12       1.0  0.48513  0.21945  0.22517  1.0000
  N   N13       1.0  0.90478  0.79204  0.33021  1.0000
  N   N14       1.0  0.59522  0.70796  0.83021  1.0000
  N   N15       1.0  0.09523  0.20795  0.66979  1.0000
  N   N16       1.0  0.40478  0.29205  0.16979  1.0000
  Cl  Cl1       1.0  0.42280  0.81167  0.48413  1.0000
  Cl  Cl2       1.0  0.07720  0.68832  0.98414  1.0000
  Cl  Cl3       1.0  0.57720  0.18832  0.51586  1.0000
  Cl  Cl4       1.0  0.92280  0.31167  0.01587  1.0000
  Cl  Cl5       1.0  0.12489  0.45572  0.40435  1.0000
  Cl  Cl6       1.0  0.37511  0.04428  0.90435  1.0000
  Cl  Cl7       1.0  0.87511  0.54427  0.59565  1.0000
  Cl  Cl8       1.0  0.62489  0.95572  0.09565  1.0000
