data_image0
_chemical_formula_structural       Cu2H28C48N10O8
_chemical_formula_sum              "Cu2 H28 C48 N10 O8"
_cell_length_a       9.5426
_cell_length_b       10.8082
_cell_length_c       11.6503
_cell_angle_alpha    111.052
_cell_angle_beta     91.4142
_cell_angle_gamma    107.093

_space_group_name_H-M_alt    "P 1"
_space_group_IT_number       1

loop_
  _space_group_symop_operation_xyz
  'x, y, z'

loop_
  _atom_site_type_symbol
  _atom_site_label
  _atom_site_symmetry_multiplicity
  _atom_site_fract_x
  _atom_site_fract_y
  _atom_site_fract_z
  _atom_site_occupancy
  Cu  Cu1       1.0  0.80032  0.25404  0.21988  1.0000
  Cu  Cu2       1.0  0.19969  0.74597  0.78012  1.0000
  H   H1        1.0  0.46611  0.10667  0.09061  1.0000
  H   H2        1.0  0.53389  0.89335  0.90940  1.0000
  H   H3        1.0  0.26515  0.90127  0.09620  1.0000
  H   H4        1.0  0.73484  0.09872  0.90379  1.0000
  H   H5        1.0  0.52702  0.89139  0.38278  1.0000
  H   H6        1.0  0.47298  0.10859  0.61721  1.0000
  H   H7        1.0  0.74170  0.00883  0.51420  1.0000
  H   H8        1.0  0.25830  0.99116  0.48577  1.0000
  H   H9        1.0  0.15951  0.34159  0.58283  1.0000
  H   H10       1.0  0.84048  0.65839  0.41716  1.0000
  H   H11       1.0  0.27992  0.51132  0.51813  1.0000
  H   H12       1.0  0.72009  0.48870  0.48187  1.0000
  H   H13       1.0  0.24871  0.68857  0.25929  1.0000
  H   H14       1.0  0.75131  0.31144  0.74070  1.0000
  H   H15       1.0  0.00066  0.50014  0.15566  1.0000
  H   H16       1.0  0.99937  0.49986  0.84432  1.0000
  H   H17       1.0  0.81566  0.95406  0.63556  1.0000
  H   H18       1.0  0.18434  0.04593  0.36444  1.0000
  H   H19       1.0  0.90747  0.89391  0.80012  1.0000
  H   H20       1.0  0.09251  0.10609  0.19988  1.0000
  H   H21       1.0  0.30177  0.24999  0.89569  1.0000
  H   H22       1.0  0.69820  0.75000  0.10432  1.0000
  H   H23       1.0  0.21760  0.30924  0.72640  1.0000
  H   H24       1.0  0.78240  0.69076  0.27362  1.0000
  H   H25       1.0  0.46582  0.56677  0.22242  1.0000
  H   H26       1.0  0.53418  0.43321  0.77757  1.0000
  H   H27       1.0  0.66445  0.35861  0.91825  1.0000
  H   H28       1.0  0.33555  0.64138  0.08174  1.0000
  C   C1        1.0  0.48192  0.05760  0.15457  1.0000
  C   C2        1.0  0.51808  0.94242  0.84544  1.0000
  C   C3        1.0  0.36875  0.94365  0.16015  1.0000
  C   C4        1.0  0.63124  0.05635  0.83984  1.0000
  C   C5        1.0  0.51436  0.94089  0.31795  1.0000
  C   C6        1.0  0.48564  0.05911  0.68204  1.0000
  C   C7        1.0  0.62840  0.05469  0.31456  1.0000
  C   C8        1.0  0.37160  0.94532  0.68545  1.0000
  C   C9        1.0  0.77271  0.12214  0.39428  1.0000
  C   C10       1.0  0.22729  0.87786  0.60572  1.0000
  C   C11       1.0  0.81760  0.09130  0.49212  1.0000
  C   C12       1.0  0.18241  0.90870  0.50788  1.0000
  C   C13       1.0  0.95906  0.16799  0.56281  1.0000
  C   C14       1.0  0.04095  0.83200  0.43719  1.0000
  C   C15       1.0  0.05014  0.27614  0.53030  1.0000
  C   C16       1.0  0.94986  0.72387  0.46970  1.0000
  C   C17       1.0  0.99891  0.30072  0.43035  1.0000
  C   C18       1.0  0.00108  0.69928  0.56965  1.0000
  C   C19       1.0  0.07837  0.40736  0.38326  1.0000
  C   C20       1.0  0.92163  0.59266  0.61675  1.0000
  C   C21       1.0  0.21819  0.50787  0.43598  1.0000
  C   C22       1.0  0.78182  0.49214  0.56402  1.0000
  C   C23       1.0  0.20149  0.60471  0.29279  1.0000
  C   C24       1.0  0.79853  0.39530  0.70721  1.0000
  C   C25       1.0  0.06393  0.50290  0.23631  1.0000
  C   C26       1.0  0.93608  0.49710  0.76369  1.0000
  C   C27       1.0  0.00942  0.13610  0.66593  1.0000
  C   C28       1.0  0.99058  0.86391  0.33408  1.0000
  C   C29       1.0  0.92355  0.02002  0.69040  1.0000
  C   C30       1.0  0.07644  0.97998  0.30961  1.0000
  C   C31       1.0  0.97488  0.98420  0.78251  1.0000
  C   C32       1.0  0.02511  0.01580  0.21749  1.0000
  C   C33       1.0  0.11268  0.06636  0.85611  1.0000
  C   C34       1.0  0.88730  0.93365  0.14391  1.0000
  C   C35       1.0  0.19643  0.18503  0.83611  1.0000
  C   C36       1.0  0.80355  0.81497  0.16390  1.0000
  C   C37       1.0  0.14734  0.21830  0.74126  1.0000
  C   C38       1.0  0.85265  0.78171  0.25876  1.0000
  C   C39       1.0  0.17380  0.02985  0.95567  1.0000
  C   C40       1.0  0.82619  0.97015  0.04434  1.0000
  C   C41       1.0  0.65262  0.41630  0.16493  1.0000
  C   C42       1.0  0.34737  0.58368  0.83506  1.0000
  C   C43       1.0  0.47972  0.53771  0.12470  1.0000
  C   C44       1.0  0.52028  0.46228  0.87529  1.0000
  C   C45       1.0  0.57340  0.45838  0.07895  1.0000
  C   C46       1.0  0.42663  0.54163  0.92106  1.0000
  C   C47       1.0  0.59279  0.42137  0.95351  1.0000
  C   C48       1.0  0.40720  0.57863  0.04649  1.0000
  N   N1        1.0  0.60995  0.11133  0.23054  1.0000
  N   N2        1.0  0.39005  0.88867  0.76947  1.0000
  N   N3        1.0  0.38543  0.88568  0.24155  1.0000
  N   N4        1.0  0.61458  0.11434  0.75845  1.0000
  N   N5        1.0  0.86338  0.22404  0.36487  1.0000
  N   N6        1.0  0.13661  0.77596  0.63514  1.0000
  N   N7        1.0  0.00251  0.40646  0.28244  1.0000
  N   N8        1.0  0.99749  0.59355  0.71756  1.0000
  N   N9        1.0  0.27879  0.60714  0.39180  1.0000
  N   N10       1.0  0.72121  0.39287  0.60820  1.0000
  O   O1        1.0  0.24881  0.13004  0.05209  1.0000
  O   O2        1.0  0.75116  0.86996  0.94792  1.0000
  O   O3        1.0  0.14521  0.89868  0.93461  1.0000
  O   O4        1.0  0.85480  0.10132  0.06539  1.0000
  O   O5        1.0  0.71234  0.32043  0.10982  1.0000
  O   O6        1.0  0.28764  0.67954  0.89016  1.0000
  O   O7        1.0  0.65913  0.47339  0.28049  1.0000
  O   O8        1.0  0.34089  0.52661  0.71951  1.0000
