data_image0
_chemical_formula_structural       H30Pb2C52N10O8
_chemical_formula_sum              "H30 Pb2 C52 N10 O8"
_cell_length_a       9.35779
_cell_length_b       10.091
_cell_length_c       12.8069
_cell_angle_alpha    80.0917
_cell_angle_beta     69.0818
_cell_angle_gamma    79.5041

_space_group_name_H-M_alt    "P 1"
_space_group_IT_number       1

loop_
  _space_group_symop_operation_xyz
  'x, y, z'

loop_
  _atom_site_type_symbol
  _atom_site_label
  _atom_site_symmetry_multiplicity
  _atom_site_fract_x
  _atom_site_fract_y
  _atom_site_fract_z
  _atom_site_occupancy
  H   H1        1.0  0.87242  0.40743  0.49458  1.0000
  H   H2        1.0  0.12758  0.59257  0.50542  1.0000
  H   H3        1.0  0.15680  0.35927  0.47353  1.0000
  H   H4        1.0  0.84320  0.64073  0.52647  1.0000
  H   H5        1.0  0.34640  0.29954  0.28910  1.0000
  H   H6        1.0  0.65359  0.70046  0.71090  1.0000
  H   H7        1.0  0.06172  0.30797  0.86032  1.0000
  H   H8        1.0  0.93828  0.69203  0.13968  1.0000
  H   H9        1.0  0.77580  0.37176  0.90561  1.0000
  H   H10       1.0  0.22420  0.62824  0.09439  1.0000
  H   H11       1.0  0.61408  0.42802  0.09944  1.0000
  H   H12       1.0  0.38592  0.57198  0.90056  1.0000
  H   H13       1.0  0.65067  0.05415  0.03013  1.0000
  H   H14       1.0  0.34933  0.94585  0.96987  1.0000
  H   H15       1.0  0.91779  0.95188  0.92839  1.0000
  H   H16       1.0  0.08221  0.04812  0.07161  1.0000
  H   H17       1.0  0.03485  0.01611  0.72167  1.0000
  H   H18       1.0  0.96515  0.98389  0.27833  1.0000
  H   H19       1.0  0.88836  0.19054  0.62185  1.0000
  H   H20       1.0  0.11164  0.80945  0.37815  1.0000
  H   H21       1.0  0.62007  0.92971  0.20940  1.0000
  H   H22       1.0  0.37994  0.07029  0.79060  1.0000
  H   H23       1.0  0.60103  0.17879  0.20679  1.0000
  H   H24       1.0  0.39897  0.82120  0.79321  1.0000
  H   H25       1.0  0.70021  0.13260  0.50345  1.0000
  H   H26       1.0  0.29978  0.86740  0.49655  1.0000
  H   H27       1.0  0.71812  0.87803  0.51941  1.0000
  H   H28       1.0  0.28187  0.12197  0.48059  1.0000
  H   H29       1.0  0.33391  0.27011  0.84155  1.0000
  H   H30       1.0  0.66609  0.72989  0.15845  1.0000
  Pb  Pb1       1.0  0.61932  0.43809  0.36413  1.0000
  Pb  Pb2       1.0  0.38068  0.56191  0.63587  1.0000
  C   C1        1.0  0.96101  0.38326  0.41526  1.0000
  C   C2        1.0  0.03899  0.61674  0.58474  1.0000
  C   C3        1.0  0.11777  0.35445  0.40389  1.0000
  C   C4        1.0  0.88222  0.64555  0.59611  1.0000
  C   C5        1.0  0.22351  0.32100  0.30172  1.0000
  C   C6        1.0  0.77649  0.67900  0.69828  1.0000
  C   C7        1.0  0.17204  0.31740  0.21165  1.0000
  C   C8        1.0  0.82796  0.68259  0.78835  1.0000
  C   C9        1.0  0.27147  0.28576  0.10249  1.0000
  C   C10       1.0  0.72853  0.71424  0.89751  1.0000
  C   C11       1.0  0.21205  0.29262  0.01525  1.0000
  C   C12       1.0  0.78795  0.70738  0.98475  1.0000
  C   C13       1.0  0.05182  0.32508  0.02941  1.0000
  C   C14       1.0  0.94818  0.67492  0.97059  1.0000
  C   C15       1.0  0.98691  0.33007  0.94451  1.0000
  C   C16       1.0  0.01309  0.66993  0.05549  1.0000
  C   C17       1.0  0.82963  0.36587  0.96914  1.0000
  C   C18       1.0  0.17037  0.63413  0.03086  1.0000
  C   C19       1.0  0.73806  0.39691  0.07787  1.0000
  C   C20       1.0  0.26194  0.60308  0.92213  1.0000
  C   C21       1.0  0.95043  0.35528  0.13856  1.0000
  C   C22       1.0  0.04957  0.64471  0.86144  1.0000
  C   C23       1.0  0.01102  0.35110  0.22934  1.0000
  C   C24       1.0  0.98898  0.64890  0.77066  1.0000
  C   C25       1.0  0.46551  0.23464  0.95587  1.0000
  C   C26       1.0  0.53449  0.76536  0.04413  1.0000
  C   C27       1.0  0.62164  0.18314  0.88558  1.0000
  C   C28       1.0  0.37836  0.81685  0.11441  1.0000
  C   C29       1.0  0.70560  0.08431  0.94073  1.0000
  C   C30       1.0  0.29441  0.91569  0.05927  1.0000
  C   C31       1.0  0.85402  0.02642  0.88344  1.0000
  C   C32       1.0  0.14598  0.97358  0.11656  1.0000
  C   C33       1.0  0.91990  0.06278  0.76788  1.0000
  C   C34       1.0  0.08010  0.93722  0.23212  1.0000
  C   C35       1.0  0.83789  0.15994  0.71187  1.0000
  C   C36       1.0  0.16211  0.84006  0.28813  1.0000
  C   C37       1.0  0.69060  0.22358  0.76923  1.0000
  C   C38       1.0  0.30940  0.77642  0.23077  1.0000
  C   C39       1.0  0.62024  0.33990  0.70367  1.0000
  C   C40       1.0  0.37976  0.66010  0.29633  1.0000
  C   C41       1.0  0.68014  0.73171  0.37107  1.0000
  C   C42       1.0  0.31986  0.26829  0.62893  1.0000
  C   C43       1.0  0.67204  0.88341  0.36473  1.0000
  C   C44       1.0  0.32796  0.11659  0.63528  1.0000
  C   C45       1.0  0.63931  0.96997  0.27609  1.0000
  C   C46       1.0  0.36068  0.03003  0.72391  1.0000
  C   C47       1.0  0.62956  0.10953  0.27433  1.0000
  C   C48       1.0  0.37044  0.89047  0.72567  1.0000
  C   C49       1.0  0.68514  0.08250  0.43942  1.0000
  C   C50       1.0  0.31486  0.91750  0.56058  1.0000
  C   C51       1.0  0.69445  0.94180  0.44825  1.0000
  C   C52       1.0  0.30555  0.05819  0.55176  1.0000
  N   N1        1.0  0.91017  0.38187  0.33081  1.0000
  N   N2        1.0  0.08983  0.61813  0.66919  1.0000
  N   N3        1.0  0.79650  0.39133  0.15975  1.0000
  N   N4        1.0  0.20350  0.60867  0.84025  1.0000
  N   N5        1.0  0.42838  0.24835  0.06503  1.0000
  N   N6        1.0  0.57162  0.75165  0.93497  1.0000
  N   N7        1.0  0.33728  0.26006  0.92292  1.0000
  N   N8        1.0  0.66272  0.73994  0.07708  1.0000
  N   N9        1.0  0.65305  0.16512  0.35400  1.0000
  N   N10       1.0  0.34694  0.83488  0.64599  1.0000
  O   O1        1.0  0.54705  0.44233  0.75589  1.0000
  O   O2        1.0  0.45295  0.55767  0.24411  1.0000
  O   O3        1.0  0.64127  0.32953  0.60180  1.0000
  O   O4        1.0  0.35873  0.67047  0.39820  1.0000
  O   O5        1.0  0.65951  0.66145  0.46550  1.0000
  O   O6        1.0  0.34049  0.33856  0.53450  1.0000
  O   O7        1.0  0.70805  0.68210  0.27912  1.0000
  O   O8        1.0  0.29196  0.31790  0.72088  1.0000
