data_image0
_chemical_formula_structural       Zn4H16C20N8O20
_chemical_formula_sum              "Zn4 H16 C20 N8 O20"
_cell_length_a       6.67954
_cell_length_b       10.1313
_cell_length_c       9.92145
_cell_angle_alpha    90.0003
_cell_angle_beta     110.391
_cell_angle_gamma    89.9997

_space_group_name_H-M_alt    "P 1"
_space_group_IT_number       1

loop_
  _space_group_symop_operation_xyz
  'x, y, z'

loop_
  _atom_site_type_symbol
  _atom_site_label
  _atom_site_symmetry_multiplicity
  _atom_site_fract_x
  _atom_site_fract_y
  _atom_site_fract_z
  _atom_site_occupancy
  Zn  Zn1       1.0  0.63481  0.42467  0.15941  1.0000
  Zn  Zn2       1.0  0.86519  0.92467  0.34058  1.0000
  Zn  Zn3       1.0  0.36519  0.57533  0.84058  1.0000
  Zn  Zn4       1.0  0.13480  0.07533  0.65942  1.0000
  H   H1        1.0  0.83918  0.39059  0.97634  1.0000
  H   H2        1.0  0.66082  0.89058  0.52366  1.0000
  H   H3        1.0  0.16081  0.60942  0.02366  1.0000
  H   H4        1.0  0.33918  0.10942  0.47634  1.0000
  H   H5        1.0  0.03480  0.40979  0.12042  1.0000
  H   H6        1.0  0.46520  0.90978  0.37958  1.0000
  H   H7        1.0  0.96520  0.59021  0.87957  1.0000
  H   H8        1.0  0.53479  0.09021  0.62042  1.0000
  H   H9        1.0  0.72469  0.53214  0.68557  1.0000
  H   H10       1.0  0.77531  0.03214  0.81443  1.0000
  H   H11       1.0  0.27531  0.46786  0.31443  1.0000
  H   H12       1.0  0.22469  0.96786  0.18557  1.0000
  H   H13       1.0  0.69213  0.64193  0.44927  1.0000
  H   H14       1.0  0.80787  0.14192  0.05073  1.0000
  H   H15       1.0  0.30787  0.35808  0.55072  1.0000
  H   H16       1.0  0.19214  0.85808  0.94928  1.0000
  C   C1        1.0  0.82906  0.21565  0.37325  1.0000
  C   C2        1.0  0.67093  0.71565  0.12673  1.0000
  C   C3        1.0  0.17094  0.78435  0.62675  1.0000
  C   C4        1.0  0.32906  0.28435  0.87327  1.0000
  C   C5        1.0  0.79772  0.33038  0.45568  1.0000
  C   C6        1.0  0.70227  0.83038  0.04431  1.0000
  C   C7        1.0  0.20227  0.66962  0.54431  1.0000
  C   C8        1.0  0.29773  0.16962  0.95569  1.0000
  C   C9        1.0  0.79545  0.34976  0.59407  1.0000
  C   C10       1.0  0.70455  0.84976  0.90593  1.0000
  C   C11       1.0  0.20455  0.65024  0.40593  1.0000
  C   C12       1.0  0.29545  0.15024  0.09407  1.0000
  C   C13       1.0  0.80459  0.25845  0.71274  1.0000
  C   C14       1.0  0.69540  0.75845  0.78727  1.0000
  C   C15       1.0  0.19541  0.74154  0.28725  1.0000
  C   C16       1.0  0.30460  0.24155  0.21273  1.0000
  C   C17       1.0  0.72738  0.53851  0.47320  1.0000
  C   C18       1.0  0.77262  0.03851  0.02680  1.0000
  C   C19       1.0  0.27261  0.46149  0.52680  1.0000
  C   C20       1.0  0.22739  0.96148  0.97320  1.0000
  N   N1        1.0  0.75110  0.44874  0.38164  1.0000
  N   N2        1.0  0.74890  0.94874  0.11837  1.0000
  N   N3        1.0  0.24890  0.55126  0.61836  1.0000
  N   N4        1.0  0.25110  0.05126  0.88163  1.0000
  N   N5        1.0  0.75202  0.48208  0.60095  1.0000
  N   N6        1.0  0.74798  0.98208  0.89905  1.0000
  N   N7        1.0  0.24798  0.51792  0.39905  1.0000
  N   N8        1.0  0.25203  0.01792  0.10095  1.0000
  O   O1        1.0  0.74750  0.22523  0.23813  1.0000
  O   O2        1.0  0.75250  0.72523  0.26187  1.0000
  O   O3        1.0  0.25249  0.77477  0.76187  1.0000
  O   O4        1.0  0.24750  0.27478  0.73813  1.0000
  O   O5        1.0  0.93626  0.11417  0.43746  1.0000
  O   O6        1.0  0.56373  0.61417  0.06253  1.0000
  O   O7        1.0  0.06374  0.88583  0.56253  1.0000
  O   O8        1.0  0.43626  0.38583  0.93747  1.0000
  O   O9        1.0  0.78151  0.30441  0.82330  1.0000
  O   O10       1.0  0.71849  0.80441  0.67670  1.0000
  O   O11       1.0  0.21849  0.69558  0.17670  1.0000
  O   O12       1.0  0.28151  0.19559  0.32330  1.0000
  O   O13       1.0  0.82328  0.13329  0.69027  1.0000
  O   O14       1.0  0.67673  0.63329  0.80974  1.0000
  O   O15       1.0  0.17674  0.86671  0.30974  1.0000
  O   O16       1.0  0.32327  0.36671  0.19026  1.0000
  O   O17       1.0  0.88042  0.42575  0.07569  1.0000
  O   O18       1.0  0.61958  0.92575  0.42430  1.0000
  O   O19       1.0  0.11958  0.57425  0.92430  1.0000
  O   O20       1.0  0.38041  0.07425  0.57570  1.0000
