data_image0
_chemical_formula_structural       H24Rh2C32N8O8
_chemical_formula_sum              "H24 Rh2 C32 N8 O8"
_cell_length_a       9.51304
_cell_length_b       10.2486
_cell_length_c       10.4699
_cell_angle_alpha    74.4593
_cell_angle_beta     64.3579
_cell_angle_gamma    64.091

_space_group_name_H-M_alt    "P 1"
_space_group_IT_number       1

loop_
  _space_group_symop_operation_xyz
  'x, y, z'

loop_
  _atom_site_type_symbol
  _atom_site_label
  _atom_site_symmetry_multiplicity
  _atom_site_fract_x
  _atom_site_fract_y
  _atom_site_fract_z
  _atom_site_occupancy
  H   H1        1.0  0.74790  0.78453  0.09441  1.0000
  H   H2        1.0  0.25209  0.21547  0.90560  1.0000
  H   H3        1.0  0.77668  0.92460  0.85729  1.0000
  H   H4        1.0  0.22332  0.07540  0.14272  1.0000
  H   H5        1.0  0.61557  0.92621  0.72140  1.0000
  H   H6        1.0  0.38442  0.07380  0.27861  1.0000
  H   H7        1.0  0.42295  0.78890  0.82633  1.0000
  H   H8        1.0  0.57705  0.21111  0.17367  1.0000
  H   H9        1.0  0.39131  0.65216  0.06696  1.0000
  H   H10       1.0  0.60868  0.34784  0.93304  1.0000
  H   H11       1.0  0.00678  0.09061  0.36916  1.0000
  H   H12       1.0  0.99322  0.90940  0.63083  1.0000
  H   H13       1.0  0.18018  0.83379  0.30368  1.0000
  H   H14       1.0  0.81983  0.16622  0.69632  1.0000
  H   H15       1.0  0.04794  0.68839  0.27489  1.0000
  H   H16       1.0  0.95207  0.31160  0.72511  1.0000
  H   H17       1.0  0.74153  0.79033  0.32173  1.0000
  H   H18       1.0  0.25847  0.20967  0.67827  1.0000
  H   H19       1.0  0.57034  0.04553  0.38752  1.0000
  H   H20       1.0  0.42966  0.95447  0.61247  1.0000
  H   H21       1.0  0.00571  0.38640  0.32040  1.0000
  H   H22       1.0  0.99430  0.61360  0.67960  1.0000
  H   H23       1.0  0.27291  0.36515  0.33439  1.0000
  H   H24       1.0  0.72710  0.63486  0.66561  1.0000
  Rh  Rh1       1.0  0.62434  0.50961  0.49556  1.0000
  Rh  Rh2       1.0  0.37566  0.49038  0.50444  1.0000
  C   C1        1.0  0.54857  0.62801  0.23866  1.0000
  C   C2        1.0  0.45143  0.37198  0.76133  1.0000
  C   C3        1.0  0.56803  0.70962  0.09508  1.0000
  C   C4        1.0  0.43197  0.29038  0.90493  1.0000
  C   C5        1.0  0.67757  0.78561  0.03501  1.0000
  C   C6        1.0  0.32243  0.21438  0.96500  1.0000
  C   C7        1.0  0.69371  0.86371  0.90145  1.0000
  C   C8        1.0  0.30628  0.13629  0.09855  1.0000
  C   C9        1.0  0.60222  0.86522  0.82623  1.0000
  C   C10       1.0  0.39778  0.13478  0.17377  1.0000
  C   C11       1.0  0.49358  0.78874  0.88519  1.0000
  C   C12       1.0  0.50641  0.21126  0.11481  1.0000
  C   C13       1.0  0.47575  0.71185  0.01944  1.0000
  C   C14       1.0  0.52425  0.28815  0.98056  1.0000
  C   C15       1.0  0.67816  0.23634  0.41679  1.0000
  C   C16       1.0  0.32184  0.76366  0.58320  1.0000
  C   C17       1.0  0.77935  0.08387  0.37928  1.0000
  C   C18       1.0  0.22065  0.91613  0.62071  1.0000
  C   C19       1.0  0.95117  0.02409  0.35658  1.0000
  C   C20       1.0  0.04883  0.97591  0.64341  1.0000
  C   C21       1.0  0.04701  0.88164  0.32025  1.0000
  C   C22       1.0  0.95299  0.11837  0.67975  1.0000
  C   C23       1.0  0.97187  0.79880  0.30569  1.0000
  C   C24       1.0  0.02813  0.20120  0.69431  1.0000
  C   C25       1.0  0.80040  0.85652  0.33016  1.0000
  C   C26       1.0  0.19959  0.14349  0.66984  1.0000
  C   C27       1.0  0.70429  0.99879  0.36713  1.0000
  C   C28       1.0  0.29571  0.00120  0.63286  1.0000
  C   C29       1.0  0.00349  0.43761  0.40035  1.0000
  C   C30       1.0  0.99651  0.56239  0.59965  1.0000
  C   C31       1.0  0.15048  0.42548  0.40843  1.0000
  C   C32       1.0  0.84952  0.57452  0.59157  1.0000
  N   N1        1.0  0.85186  0.51225  0.49206  1.0000
  N   N2        1.0  0.14813  0.48775  0.50794  1.0000
  N   N3        1.0  0.89989  0.40562  0.97747  1.0000
  N   N4        1.0  0.10010  0.59438  0.02253  1.0000
  N   N5        1.0  0.83951  0.34489  0.07618  1.0000
  N   N6        1.0  0.16049  0.65511  0.92383  1.0000
  N   N7        1.0  0.04718  0.01801  0.00044  1.0000
  N   N8        1.0  0.95282  0.98199  0.99956  1.0000
  O   O1        1.0  0.65680  0.60633  0.29174  1.0000
  O   O2        1.0  0.34320  0.39366  0.70826  1.0000
  O   O3        1.0  0.42391  0.58565  0.29948  1.0000
  O   O4        1.0  0.57609  0.41435  0.70052  1.0000
  O   O5        1.0  0.75534  0.30621  0.42812  1.0000
  O   O6        1.0  0.24466  0.69379  0.57188  1.0000
  O   O7        1.0  0.52167  0.28698  0.43565  1.0000
  O   O8        1.0  0.47833  0.71302  0.56435  1.0000
