data_image0
_chemical_formula_structural       Ag4H12C20N8O16
_chemical_formula_sum              "Ag4 H12 C20 N8 O16"
_cell_length_a       7.41429
_cell_length_b       7.71235
_cell_length_c       11.3593
_cell_angle_alpha    89.9999
_cell_angle_beta     89.382
_cell_angle_gamma    89.9998

_space_group_name_H-M_alt    "P 1"
_space_group_IT_number       1

loop_
  _space_group_symop_operation_xyz
  'x, y, z'

loop_
  _atom_site_type_symbol
  _atom_site_label
  _atom_site_symmetry_multiplicity
  _atom_site_fract_x
  _atom_site_fract_y
  _atom_site_fract_z
  _atom_site_occupancy
  Ag  Ag1       1.0  0.85912  0.66763  0.07339  1.0000
  Ag  Ag2       1.0  0.64088  0.16763  0.92661  1.0000
  Ag  Ag3       1.0  0.14088  0.33237  0.92661  1.0000
  Ag  Ag4       1.0  0.35912  0.83238  0.07339  1.0000
  H   H1        1.0  0.50258  0.81622  0.77803  1.0000
  H   H2        1.0  0.99742  0.31622  0.22197  1.0000
  H   H3        1.0  0.49743  0.18378  0.22197  1.0000
  H   H4        1.0  0.00258  0.68378  0.77803  1.0000
  H   H5        1.0  0.29932  0.38495  0.55352  1.0000
  H   H6        1.0  0.20069  0.88495  0.44648  1.0000
  H   H7        1.0  0.70069  0.61505  0.44648  1.0000
  H   H8        1.0  0.79932  0.11505  0.55352  1.0000
  H   H9        1.0  0.40839  0.12592  0.66697  1.0000
  H   H10       1.0  0.09161  0.62592  0.33303  1.0000
  H   H11       1.0  0.59161  0.87408  0.33303  1.0000
  H   H12       1.0  0.90839  0.37408  0.66697  1.0000
  C   C1        1.0  0.61695  0.59548  0.87389  1.0000
  C   C2        1.0  0.88305  0.09549  0.12611  1.0000
  C   C3        1.0  0.38305  0.40452  0.12611  1.0000
  C   C4        1.0  0.11695  0.90452  0.87389  1.0000
  C   C5        1.0  0.42720  0.54648  0.68560  1.0000
  C   C6        1.0  0.07280  0.04648  0.31440  1.0000
  C   C7        1.0  0.57280  0.45352  0.31440  1.0000
  C   C8        1.0  0.92720  0.95352  0.68560  1.0000
  C   C9        1.0  0.43312  0.25990  0.69132  1.0000
  C   C10       1.0  0.06688  0.75990  0.30868  1.0000
  C   C11       1.0  0.56688  0.74010  0.30868  1.0000
  C   C12       1.0  0.93312  0.24010  0.69132  1.0000
  C   C13       1.0  0.52334  0.49134  0.78397  1.0000
  C   C14       1.0  0.97667  0.99135  0.21603  1.0000
  C   C15       1.0  0.47666  0.50866  0.21603  1.0000
  C   C16       1.0  0.02334  0.00865  0.78397  1.0000
  C   C17       1.0  0.38056  0.71842  0.63775  1.0000
  C   C18       1.0  0.11944  0.21842  0.36225  1.0000
  C   C19       1.0  0.61944  0.28158  0.36225  1.0000
  C   C20       1.0  0.88056  0.78158  0.63775  1.0000
  N   N1        1.0  0.52463  0.31227  0.78561  1.0000
  N   N2        1.0  0.97537  0.81228  0.21439  1.0000
  N   N3        1.0  0.47537  0.68773  0.21439  1.0000
  N   N4        1.0  0.02463  0.18772  0.78561  1.0000
  N   N5        1.0  0.37367  0.39738  0.62985  1.0000
  N   N6        1.0  0.12634  0.89738  0.37015  1.0000
  N   N7        1.0  0.62633  0.60261  0.37015  1.0000
  N   N8        1.0  0.87366  0.10262  0.62985  1.0000
  O   O1        1.0  0.59881  0.76050  0.87188  1.0000
  O   O2        1.0  0.90119  0.26050  0.12812  1.0000
  O   O3        1.0  0.40120  0.23950  0.12811  1.0000
  O   O4        1.0  0.09881  0.73950  0.87189  1.0000
  O   O5        1.0  0.71176  0.51425  0.94834  1.0000
  O   O6        1.0  0.78824  0.01425  0.05166  1.0000
  O   O7        1.0  0.28825  0.48575  0.05166  1.0000
  O   O8        1.0  0.21176  0.98575  0.94834  1.0000
  O   O9        1.0  0.42988  0.85487  0.69866  1.0000
  O   O10       1.0  0.07012  0.35487  0.30134  1.0000
  O   O11       1.0  0.57012  0.14513  0.30134  1.0000
  O   O12       1.0  0.92988  0.64513  0.69866  1.0000
  O   O13       1.0  0.29672  0.72883  0.54396  1.0000
  O   O14       1.0  0.20328  0.22883  0.45604  1.0000
  O   O15       1.0  0.70328  0.27117  0.45604  1.0000
  O   O16       1.0  0.79673  0.77117  0.54396  1.0000
