data_image0
_chemical_formula_structural       Hg4H8C12S4N16
_chemical_formula_sum              "Hg4 H8 C12 S4 N16"
_cell_length_a       8.25538
_cell_length_b       9.09343
_cell_length_c       9.17752
_cell_angle_alpha    90
_cell_angle_beta     110.24
_cell_angle_gamma    89.9992

_space_group_name_H-M_alt    "P 1"
_space_group_IT_number       1

loop_
  _space_group_symop_operation_xyz
  'x, y, z'

loop_
  _atom_site_type_symbol
  _atom_site_label
  _atom_site_symmetry_multiplicity
  _atom_site_fract_x
  _atom_site_fract_y
  _atom_site_fract_z
  _atom_site_occupancy
  Hg  Hg1       1.0  0.25069  0.97181  0.19432  1.0000
  Hg  Hg2       1.0  0.74931  0.47181  0.30568  1.0000
  Hg  Hg3       1.0  0.74931  0.02819  0.80568  1.0000
  Hg  Hg4       1.0  0.25068  0.52819  0.69432  1.0000
  H   H1        1.0  0.62535  0.74446  0.98773  1.0000
  H   H2        1.0  0.37466  0.24446  0.51227  1.0000
  H   H3        1.0  0.37466  0.25554  0.01227  1.0000
  H   H4        1.0  0.62534  0.75554  0.48773  1.0000
  H   H5        1.0  0.11414  0.67020  0.32612  1.0000
  H   H6        1.0  0.88587  0.17020  0.17389  1.0000
  H   H7        1.0  0.88587  0.32981  0.67389  1.0000
  H   H8        1.0  0.11413  0.82980  0.82611  1.0000
  C   C1        1.0  0.76105  0.75363  0.05780  1.0000
  C   C2        1.0  0.23896  0.25363  0.44220  1.0000
  C   C3        1.0  0.23895  0.24637  0.94220  1.0000
  C   C4        1.0  0.76104  0.74637  0.55780  1.0000
  C   C5        1.0  0.00796  0.71379  0.22927  1.0000
  C   C6        1.0  0.99205  0.21379  0.27074  1.0000
  C   C7        1.0  0.99204  0.28621  0.77073  1.0000
  C   C8        1.0  0.00795  0.78621  0.72926  1.0000
  C   C9        1.0  0.61237  0.09920  0.38397  1.0000
  C   C10       1.0  0.38762  0.59922  0.11603  1.0000
  C   C11       1.0  0.38763  0.90080  0.61604  1.0000
  C   C12       1.0  0.61237  0.40079  0.88397  1.0000
  S   S1        1.0  0.55552  0.99244  0.22773  1.0000
  S   S2        1.0  0.44449  0.49245  0.27227  1.0000
  S   S3        1.0  0.44449  0.00756  0.77228  1.0000
  S   S4        1.0  0.55551  0.50755  0.72773  1.0000
  N   N1        1.0  0.02216  0.83265  0.14922  1.0000
  N   N2        1.0  0.97784  0.33265  0.35079  1.0000
  N   N3        1.0  0.97784  0.16735  0.85079  1.0000
  N   N4        1.0  0.02216  0.66735  0.64921  1.0000
  N   N5        1.0  0.86373  0.85928  0.03901  1.0000
  N   N6        1.0  0.13628  0.35928  0.46099  1.0000
  N   N7        1.0  0.13628  0.14072  0.96099  1.0000
  N   N8        1.0  0.86372  0.64071  0.53901  1.0000
  N   N9        1.0  0.84573  0.66054  0.17505  1.0000
  N   N10       1.0  0.15428  0.16054  0.32495  1.0000
  N   N11       1.0  0.15428  0.33946  0.82495  1.0000
  N   N12       1.0  0.84572  0.83946  0.67505  1.0000
  N   N13       1.0  0.65863  0.17472  0.49536  1.0000
  N   N14       1.0  0.34138  0.67473  0.00464  1.0000
  N   N15       1.0  0.34138  0.82528  0.50465  1.0000
  N   N16       1.0  0.65862  0.32527  0.99536  1.0000
