data_image0
_chemical_formula_structural       Ag4H32C36S8N12O8
_chemical_formula_sum              "Ag4 H32 C36 S8 N12 O8"
_cell_length_a       5.40363
_cell_length_b       13.1515
_cell_length_c       15.8345
_cell_angle_alpha    110.358
_cell_angle_beta     90.0001
_cell_angle_gamma    89.9989

_space_group_name_H-M_alt    "P 1"
_space_group_IT_number       1

loop_
  _space_group_symop_operation_xyz
  'x, y, z'

loop_
  _atom_site_type_symbol
  _atom_site_label
  _atom_site_symmetry_multiplicity
  _atom_site_fract_x
  _atom_site_fract_y
  _atom_site_fract_z
  _atom_site_occupancy
  Ag  Ag1       1.0  0.43600  0.10843  0.04836  1.0000
  Ag  Ag2       1.0  0.93600  0.89158  0.45164  1.0000
  Ag  Ag3       1.0  0.56399  0.89158  0.95164  1.0000
  Ag  Ag4       1.0  0.06400  0.10842  0.54836  1.0000
  H   H1        1.0  0.97589  0.81401  0.80072  1.0000
  H   H2        1.0  0.47591  0.18599  0.69928  1.0000
  H   H3        1.0  0.02410  0.18599  0.19928  1.0000
  H   H4        1.0  0.52410  0.81401  0.30072  1.0000
  H   H5        1.0  0.34933  0.92551  0.76229  1.0000
  H   H6        1.0  0.84934  0.07448  0.73771  1.0000
  H   H7        1.0  0.65068  0.07449  0.23772  1.0000
  H   H8        1.0  0.15067  0.92551  0.26229  1.0000
  H   H9        1.0  0.62831  0.25162  0.85855  1.0000
  H   H10       1.0  0.12831  0.74838  0.64146  1.0000
  H   H11       1.0  0.37169  0.74838  0.14146  1.0000
  H   H12       1.0  0.87171  0.25162  0.35854  1.0000
  H   H13       1.0  0.77090  0.31843  0.73749  1.0000
  H   H14       1.0  0.27091  0.68156  0.76251  1.0000
  H   H15       1.0  0.22911  0.68157  0.26251  1.0000
  H   H16       1.0  0.72910  0.31845  0.23749  1.0000
  H   H17       1.0  0.40864  0.46438  0.89771  1.0000
  H   H18       1.0  0.90866  0.53560  0.60228  1.0000
  H   H19       1.0  0.59135  0.53561  0.10229  1.0000
  H   H20       1.0  0.09133  0.46439  0.39772  1.0000
  H   H21       1.0  0.27484  0.39214  0.01553  1.0000
  H   H22       1.0  0.77485  0.60786  0.48447  1.0000
  H   H23       1.0  0.72514  0.60787  0.98448  1.0000
  H   H24       1.0  0.22516  0.39213  0.51552  1.0000
  H   H25       1.0  0.11592  0.39172  0.67947  1.0000
  H   H26       1.0  0.61593  0.60826  0.82052  1.0000
  H   H27       1.0  0.88408  0.60828  0.32053  1.0000
  H   H28       1.0  0.38407  0.39175  0.17948  1.0000
  H   H29       1.0  0.35191  0.46197  0.74650  1.0000
  H   H30       1.0  0.85193  0.53800  0.75349  1.0000
  H   H31       1.0  0.64810  0.53803  0.25351  1.0000
  H   H32       1.0  0.14807  0.46200  0.24651  1.0000
  C   C1        1.0  0.89646  0.06913  0.92057  1.0000
  C   C2        1.0  0.39646  0.93087  0.57944  1.0000
  C   C3        1.0  0.10355  0.93087  0.07943  1.0000
  C   C4        1.0  0.60355  0.06913  0.42056  1.0000
  C   C5        1.0  0.00453  0.90108  0.82792  1.0000
  C   C6        1.0  0.50453  0.09892  0.67208  1.0000
  C   C7        1.0  0.99547  0.09892  0.17208  1.0000
  C   C8        1.0  0.49546  0.90108  0.32792  1.0000
  C   C9        1.0  0.19564  0.95635  0.80819  1.0000
  C   C10       1.0  0.69566  0.04364  0.69181  1.0000
  C   C11       1.0  0.80437  0.04366  0.19181  1.0000
  C   C12       1.0  0.30436  0.95634  0.30819  1.0000
  C   C13       1.0  0.94188  0.31914  0.94485  1.0000
  C   C14       1.0  0.44191  0.68085  0.55515  1.0000
  C   C15       1.0  0.05810  0.68086  0.05515  1.0000
  C   C16       1.0  0.55812  0.31914  0.44485  1.0000
  C   C17       1.0  0.79927  0.29799  0.86654  1.0000
  C   C18       1.0  0.29928  0.70201  0.63347  1.0000
  C   C19       1.0  0.20072  0.70201  0.13347  1.0000
  C   C20       1.0  0.70073  0.29800  0.36653  1.0000
  C   C21       1.0  0.87833  0.33503  0.79911  1.0000
  C   C22       1.0  0.37834  0.66496  0.70089  1.0000
  C   C23       1.0  0.12167  0.66498  0.20089  1.0000
  C   C24       1.0  0.62165  0.33504  0.29910  1.0000
  C   C25       1.0  0.10021  0.39552  0.80905  1.0000
  C   C26       1.0  0.60020  0.60447  0.69095  1.0000
  C   C27       1.0  0.89980  0.60449  0.19095  1.0000
  C   C28       1.0  0.39981  0.39553  0.30906  1.0000
  C   C29       1.0  0.23865  0.41747  0.88912  1.0000
  C   C30       1.0  0.73865  0.58252  0.61087  1.0000
  C   C31       1.0  0.76135  0.58254  0.11088  1.0000
  C   C32       1.0  0.26134  0.41747  0.38912  1.0000
  C   C33       1.0  0.16201  0.37885  0.95574  1.0000
  C   C34       1.0  0.66201  0.62115  0.54426  1.0000
  C   C35       1.0  0.83799  0.62117  0.04427  1.0000
  C   C36       1.0  0.33799  0.37883  0.45574  1.0000
  S   S1        1.0  0.16773  0.09336  0.86904  1.0000
  S   S2        1.0  0.66773  0.90663  0.63097  1.0000
  S   S3        1.0  0.83228  0.90664  0.13096  1.0000
  S   S4        1.0  0.33227  0.09335  0.36903  1.0000
  S   S5        1.0  0.85023  0.27043  0.02995  1.0000
  S   S6        1.0  0.35022  0.72958  0.47006  1.0000
  S   S7        1.0  0.14981  0.72957  0.97005  1.0000
  S   S8        1.0  0.64978  0.27043  0.52994  1.0000
  N   N1        1.0  0.75519  0.14578  0.98043  1.0000
  N   N2        1.0  0.25518  0.85423  0.51958  1.0000
  N   N3        1.0  0.24481  0.85422  0.01957  1.0000
  N   N4        1.0  0.74481  0.14577  0.48042  1.0000
  N   N5        1.0  0.83942  0.96331  0.89156  1.0000
  N   N6        1.0  0.33943  0.03669  0.60844  1.0000
  N   N7        1.0  0.16060  0.03669  0.10844  1.0000
  N   N8        1.0  0.66058  0.96330  0.39156  1.0000
  N   N9        1.0  0.17374  0.43465  0.74319  1.0000
  N   N10       1.0  0.67375  0.56533  0.75680  1.0000
  N   N11       1.0  0.82627  0.56536  0.25680  1.0000
  N   N12       1.0  0.32625  0.43467  0.24320  1.0000
  O   O1        1.0  0.06599  0.27542  0.08658  1.0000
  O   O2        1.0  0.56597  0.72458  0.41343  1.0000
  O   O3        1.0  0.93398  0.72459  0.91342  1.0000
  O   O4        1.0  0.43401  0.27542  0.58657  1.0000
  O   O5        1.0  0.62977  0.32695  0.07583  1.0000
  O   O6        1.0  0.12976  0.67306  0.42418  1.0000
  O   O7        1.0  0.37020  0.67305  0.92417  1.0000
  O   O8        1.0  0.87023  0.32694  0.57582  1.0000
