data_image0
_chemical_formula_structural       Cu2H20C24N24O8
_chemical_formula_sum              "Cu2 H20 C24 N24 O8"
_cell_length_a       8.2073
_cell_length_b       8.20727
_cell_length_c       13.2878
_cell_angle_alpha    99.435
_cell_angle_beta     99.4354
_cell_angle_gamma    104.498

_space_group_name_H-M_alt    "P 1"
_space_group_IT_number       1

loop_
  _space_group_symop_operation_xyz
  'x, y, z'

loop_
  _atom_site_type_symbol
  _atom_site_label
  _atom_site_symmetry_multiplicity
  _atom_site_fract_x
  _atom_site_fract_y
  _atom_site_fract_z
  _atom_site_occupancy
  Cu  Cu1       1.0  0.00000  0.00000  0.50000  1.0000
  Cu  Cu2       1.0  0.00000  0.00001  1.00000  1.0000
  H   H1        1.0  0.60192  0.98508  0.41802  1.0000
  H   H2        1.0  0.01493  0.39808  0.08198  1.0000
  H   H3        1.0  0.39809  0.01492  0.58197  1.0000
  H   H4        1.0  0.98507  0.60191  0.91803  1.0000
  H   H5        1.0  0.05691  0.35329  0.40778  1.0000
  H   H6        1.0  0.64672  0.94309  0.09222  1.0000
  H   H7        1.0  0.94310  0.64672  0.59222  1.0000
  H   H8        1.0  0.35327  0.05690  0.90778  1.0000
  H   H9        1.0  0.49965  0.40229  0.36439  1.0000
  H   H10       1.0  0.59772  0.50035  0.13562  1.0000
  H   H11       1.0  0.50036  0.59771  0.63561  1.0000
  H   H12       1.0  0.40228  0.49964  0.86438  1.0000
  H   H13       1.0  0.24806  0.31404  0.19429  1.0000
  H   H14       1.0  0.68596  0.75194  0.30571  1.0000
  H   H15       1.0  0.75194  0.68596  0.80571  1.0000
  H   H16       1.0  0.31403  0.24806  0.69429  1.0000
  H   H17       1.0  0.22570  0.78729  0.12341  1.0000
  H   H18       1.0  0.21272  0.77430  0.37658  1.0000
  H   H19       1.0  0.77429  0.21271  0.87659  1.0000
  H   H20       1.0  0.78728  0.22570  0.62341  1.0000
  C   C1        1.0  0.69349  0.10168  0.41063  1.0000
  C   C2        1.0  0.89832  0.30652  0.08937  1.0000
  C   C3        1.0  0.30652  0.89833  0.58937  1.0000
  C   C4        1.0  0.10167  0.69348  0.91064  1.0000
  C   C5        1.0  0.92200  0.29176  0.40325  1.0000
  C   C6        1.0  0.70824  0.07800  0.09675  1.0000
  C   C7        1.0  0.07801  0.70824  0.59674  1.0000
  C   C8        1.0  0.29175  0.92199  0.90325  1.0000
  C   C9        1.0  0.48439  0.26713  0.36946  1.0000
  C   C10       1.0  0.73287  0.51561  0.13054  1.0000
  C   C11       1.0  0.51561  0.73287  0.63053  1.0000
  C   C12       1.0  0.26712  0.48438  0.86946  1.0000
  C   C13       1.0  0.39689  0.23251  0.46527  1.0000
  C   C14       1.0  0.76748  0.60312  0.03474  1.0000
  C   C15       1.0  0.60312  0.76749  0.53474  1.0000
  C   C16       1.0  0.23251  0.39688  0.96526  1.0000
  C   C17       1.0  0.26623  0.18844  0.19800  1.0000
  C   C18       1.0  0.81157  0.73377  0.30200  1.0000
  C   C19       1.0  0.73377  0.81157  0.80200  1.0000
  C   C20       1.0  0.18843  0.26623  0.69800  1.0000
  C   C21       1.0  0.25861  0.92190  0.16243  1.0000
  C   C22       1.0  0.07811  0.74139  0.33757  1.0000
  C   C23       1.0  0.74139  0.07810  0.83757  1.0000
  C   C24       1.0  0.92189  0.25861  0.66243  1.0000
  N   N1        1.0  0.65305  0.24072  0.38507  1.0000
  N   N2        1.0  0.75928  0.34695  0.11493  1.0000
  N   N3        1.0  0.34696  0.75928  0.61492  1.0000
  N   N4        1.0  0.24072  0.65304  0.88507  1.0000
  N   N5        1.0  0.86338  0.13042  0.42253  1.0000
  N   N6        1.0  0.86959  0.13663  0.07747  1.0000
  N   N7        1.0  0.13663  0.86959  0.57747  1.0000
  N   N8        1.0  0.13041  0.86337  0.92253  1.0000
  N   N9        1.0  0.79674  0.36315  0.37980  1.0000
  N   N10       1.0  0.63686  0.20326  0.12021  1.0000
  N   N11       1.0  0.20326  0.63686  0.62020  1.0000
  N   N12       1.0  0.36313  0.79673  0.87979  1.0000
  N   N13       1.0  0.37889  0.15584  0.27171  1.0000
  N   N14       1.0  0.84416  0.62111  0.22829  1.0000
  N   N15       1.0  0.62110  0.84416  0.72829  1.0000
  N   N16       1.0  0.15584  0.37889  0.77171  1.0000
  N   N17       1.0  0.37511  0.98689  0.25082  1.0000
  N   N18       1.0  0.01311  0.62489  0.24918  1.0000
  N   N19       1.0  0.62489  0.01311  0.74918  1.0000
  N   N20       1.0  0.98689  0.37511  0.75082  1.0000
  N   N21       1.0  0.18719  0.04151  0.12768  1.0000
  N   N22       1.0  0.95850  0.81281  0.37232  1.0000
  N   N23       1.0  0.81281  0.95849  0.87233  1.0000
  N   N24       1.0  0.04150  0.18719  0.62767  1.0000
  O   O1        1.0  0.23576  0.17325  0.44036  1.0000
  O   O2        1.0  0.82675  0.76424  0.05964  1.0000
  O   O3        1.0  0.76424  0.82677  0.55965  1.0000
  O   O4        1.0  0.17323  0.23576  0.94036  1.0000
  O   O5        1.0  0.49814  0.27013  0.55307  1.0000
  O   O6        1.0  0.72987  0.50187  0.94693  1.0000
  O   O7        1.0  0.50188  0.72986  0.44692  1.0000
  O   O8        1.0  0.27015  0.49813  0.05307  1.0000
