data_image0
_chemical_formula_structural       Mn2H28C24N24O12
_chemical_formula_sum              "Mn2 H28 C24 N24 O12"
_cell_length_a       7.56754
_cell_length_b       8.48091
_cell_length_c       14.4008
_cell_angle_alpha    90.0009
_cell_angle_beta     95.5364
_cell_angle_gamma    90.0008

_space_group_name_H-M_alt    "P 1"
_space_group_IT_number       1

loop_
  _space_group_symop_operation_xyz
  'x, y, z'

loop_
  _atom_site_type_symbol
  _atom_site_label
  _atom_site_symmetry_multiplicity
  _atom_site_fract_x
  _atom_site_fract_y
  _atom_site_fract_z
  _atom_site_occupancy
  Mn  Mn1       1.0  1.00000  0.00000  0.50000  1.0000
  Mn  Mn2       1.0  0.50000  0.50000  0.00000  1.0000
  H   H1        1.0  0.29362  0.56997  0.18944  1.0000
  H   H2        1.0  0.20638  0.06997  0.31056  1.0000
  H   H3        1.0  0.70639  0.43003  0.81056  1.0000
  H   H4        1.0  0.79363  0.93003  0.68944  1.0000
  H   H5        1.0  0.71046  0.25200  0.15351  1.0000
  H   H6        1.0  0.78953  0.75200  0.34648  1.0000
  H   H7        1.0  0.28953  0.74799  0.84649  1.0000
  H   H8        1.0  0.21046  0.24801  0.65352  1.0000
  H   H9        1.0  0.84392  0.32652  0.38579  1.0000
  H   H10       1.0  0.65607  0.82652  0.11421  1.0000
  H   H11       1.0  0.15608  0.67348  0.61421  1.0000
  H   H12       1.0  0.34393  0.17348  0.88579  1.0000
  H   H13       1.0  0.36525  0.19708  0.48645  1.0000
  H   H14       1.0  0.13473  0.69707  0.01355  1.0000
  H   H15       1.0  0.63474  0.80293  0.51355  1.0000
  H   H16       1.0  0.86526  0.30293  0.98645  1.0000
  H   H17       1.0  0.52351  0.42560  0.42407  1.0000
  H   H18       1.0  0.97649  0.92560  0.07593  1.0000
  H   H19       1.0  0.47650  0.57440  0.57593  1.0000
  H   H20       1.0  0.02352  0.07440  0.92407  1.0000
  H   H21       1.0  0.30098  0.83837  0.50207  1.0000
  H   H22       1.0  0.19902  0.33835  0.99793  1.0000
  H   H23       1.0  0.69902  0.16164  0.49793  1.0000
  H   H24       1.0  0.80098  0.66164  0.00207  1.0000
  H   H25       1.0  0.30663  0.94172  0.59833  1.0000
  H   H26       1.0  0.19338  0.44169  0.90167  1.0000
  H   H27       1.0  0.69337  0.05828  0.40167  1.0000
  H   H28       1.0  0.80661  0.55831  0.09833  1.0000
  C   C1        1.0  0.39966  0.48460  0.19958  1.0000
  C   C2        1.0  0.10034  0.98460  0.30042  1.0000
  C   C3        1.0  0.60034  0.51540  0.80042  1.0000
  C   C4        1.0  0.89966  0.01540  0.69958  1.0000
  C   C5        1.0  0.61029  0.32111  0.18402  1.0000
  C   C6        1.0  0.88971  0.82111  0.31598  1.0000
  C   C7        1.0  0.38970  0.67888  0.81598  1.0000
  C   C8        1.0  0.11029  0.17890  0.68403  1.0000
  C   C9        1.0  0.98694  0.32679  0.40101  1.0000
  C   C10       1.0  0.51305  0.82679  0.09899  1.0000
  C   C11       1.0  0.01306  0.67321  0.59899  1.0000
  C   C12       1.0  0.48695  0.17320  0.90101  1.0000
  C   C13       1.0  0.25026  0.25762  0.45308  1.0000
  C   C14       1.0  0.24973  0.75761  0.04692  1.0000
  C   C15       1.0  0.74974  0.74239  0.54692  1.0000
  C   C16       1.0  0.75027  0.24239  0.95308  1.0000
  C   C17       1.0  0.41294  0.46864  0.37500  1.0000
  C   C18       1.0  0.08706  0.96863  0.12500  1.0000
  C   C19       1.0  0.58706  0.53137  0.62500  1.0000
  C   C20       1.0  0.91295  0.03138  0.87500  1.0000
  C   C21       1.0  0.40087  0.65057  0.39096  1.0000
  C   C22       1.0  0.09914  0.15057  0.10905  1.0000
  C   C23       1.0  0.59913  0.34943  0.60904  1.0000
  C   C24       1.0  0.90086  0.84943  0.89095  1.0000
  N   N1        1.0  0.08018  0.21437  0.45496  1.0000
  N   N2        1.0  0.41981  0.71436  0.04504  1.0000
  N   N3        1.0  0.91982  0.78564  0.54504  1.0000
  N   N4        1.0  0.58019  0.28564  0.95496  1.0000
  N   N5        1.0  0.25575  0.38819  0.40003  1.0000
  N   N6        1.0  0.24425  0.88819  0.09997  1.0000
  N   N7        1.0  0.74426  0.61181  0.59997  1.0000
  N   N8        1.0  0.75575  0.11180  0.90003  1.0000
  N   N9        1.0  0.08979  0.43416  0.36668  1.0000
  N   N10       1.0  0.41021  0.93416  0.13333  1.0000
  N   N11       1.0  0.91021  0.56584  0.63332  1.0000
  N   N12       1.0  0.58979  0.06584  0.86667  1.0000
  N   N13       1.0  0.45768  0.42399  0.28324  1.0000
  N   N14       1.0  0.04231  0.92398  0.21676  1.0000
  N   N15       1.0  0.54232  0.57601  0.71676  1.0000
  N   N16       1.0  0.95769  0.07601  0.78324  1.0000
  N   N17       1.0  0.59238  0.31896  0.27460  1.0000
  N   N18       1.0  0.90761  0.81896  0.22541  1.0000
  N   N19       1.0  0.40761  0.68103  0.72540  1.0000
  N   N20       1.0  0.09239  0.18104  0.77460  1.0000
  N   N21       1.0  0.49485  0.42316  0.13435  1.0000
  N   N22       1.0  0.00515  0.92315  0.36565  1.0000
  N   N23       1.0  0.50515  0.57684  0.86565  1.0000
  N   N24       1.0  0.99485  0.07685  0.63435  1.0000
  O   O1        1.0  0.45911  0.74281  0.33447  1.0000
  O   O2        1.0  0.04092  0.24281  0.16555  1.0000
  O   O3        1.0  0.54093  0.25718  0.66554  1.0000
  O   O4        1.0  0.95907  0.75719  0.83445  1.0000
  O   O5        1.0  0.34011  0.68033  0.46911  1.0000
  O   O6        1.0  0.15989  0.18033  0.03090  1.0000
  O   O7        1.0  0.65989  0.31967  0.53089  1.0000
  O   O8        1.0  0.84012  0.81967  0.96910  1.0000
  O   O9        1.0  0.26418  0.94425  0.53215  1.0000
  O   O10       1.0  0.23584  0.44424  0.96784  1.0000
  O   O11       1.0  0.73582  0.05575  0.46784  1.0000
  O   O12       1.0  0.76416  0.55575  0.03215  1.0000
