data_image0
_chemical_formula_structural       Zn2H28C24N24O12
_chemical_formula_sum              "Zn2 H28 C24 N24 O12"
_cell_length_a       7.44766
_cell_length_b       8.63023
_cell_length_c       14.687
_cell_angle_alpha    90.0042
_cell_angle_beta     84.2088
_cell_angle_gamma    89.9921

_space_group_name_H-M_alt    "P 1"
_space_group_IT_number       1

loop_
  _space_group_symop_operation_xyz
  'x, y, z'

loop_
  _atom_site_type_symbol
  _atom_site_label
  _atom_site_symmetry_multiplicity
  _atom_site_fract_x
  _atom_site_fract_y
  _atom_site_fract_z
  _atom_site_occupancy
  Zn  Zn1       1.0  0.73693  0.05447  0.75185  1.0000
  Zn  Zn2       1.0  0.26309  0.55449  0.24815  1.0000
  H   H1        1.0  0.05730  0.90923  0.74710  1.0000
  H   H2        1.0  0.94267  0.40928  0.25292  1.0000
  H   H3        1.0  0.08264  0.02116  0.65858  1.0000
  H   H4        1.0  0.91727  0.52137  0.34139  1.0000
  H   H5        1.0  0.40309  0.09929  0.85105  1.0000
  H   H6        1.0  0.59701  0.59904  0.14898  1.0000
  H   H7        1.0  0.41887  0.19921  0.75870  1.0000
  H   H8        1.0  0.58115  0.69914  0.24129  1.0000
  H   H9        1.0  0.09657  0.26612  0.76541  1.0000
  H   H10       1.0  0.90346  0.76618  0.23457  1.0000
  H   H11       1.0  0.56718  0.39148  0.86363  1.0000
  H   H12       1.0  0.43282  0.89144  0.13637  1.0000
  H   H13       1.0  0.25751  0.48646  0.82621  1.0000
  H   H14       1.0  0.74247  0.98650  0.17379  1.0000
  H   H15       1.0  0.05396  0.64447  0.05833  1.0000
  H   H16       1.0  0.94600  0.14446  0.94167  1.0000
  H   H17       1.0  0.42755  0.28751  0.08982  1.0000
  H   H18       1.0  0.57250  0.78753  0.91017  1.0000
  H   H19       1.0  0.84824  0.35175  0.60467  1.0000
  H   H20       1.0  0.15173  0.85181  0.39532  1.0000
  H   H21       1.0  0.59990  0.92919  0.54850  1.0000
  H   H22       1.0  0.40017  0.42923  0.45149  1.0000
  H   H23       1.0  0.78386  0.12109  0.32638  1.0000
  H   H24       1.0  0.21612  0.62117  0.67362  1.0000
  H   H25       1.0  0.62673  0.34406  0.26489  1.0000
  H   H26       1.0  0.37322  0.84414  0.73514  1.0000
  H   H27       1.0  0.09333  0.21327  0.35046  1.0000
  H   H28       1.0  0.90663  0.71324  0.64956  1.0000
  C   C1        1.0  0.97966  0.32591  0.79842  1.0000
  C   C2        1.0  0.02037  0.82594  0.20156  1.0000
  C   C3        1.0  0.71278  0.39319  0.84953  1.0000
  C   C4        1.0  0.28725  0.89319  0.15048  1.0000
  C   C5        1.0  0.14707  0.53066  0.87515  1.0000
  C   C6        1.0  0.85290  0.03071  0.12485  1.0000
  C   C7        1.0  0.14769  0.54922  0.04710  1.0000
  C   C8        1.0  0.85230  0.04923  0.95290  1.0000
  C   C9        1.0  0.33639  0.36651  0.06024  1.0000
  C   C10       1.0  0.66365  0.86653  0.93976  1.0000
  C   C11       1.0  0.13788  0.70998  0.85986  1.0000
  C   C12       1.0  0.86211  0.21001  0.14016  1.0000
  C   C13       1.0  0.79239  0.25638  0.56891  1.0000
  C   C14       1.0  0.20759  0.75645  0.43109  1.0000
  C   C15       1.0  0.66354  0.04173  0.54409  1.0000
  C   C16       1.0  0.33647  0.54177  0.45591  1.0000
  C   C17       1.0  0.67039  0.07411  0.37243  1.0000
  C   C18       1.0  0.32958  0.57417  0.62757  1.0000
  C   C19       1.0  0.50842  0.28270  0.29496  1.0000
  C   C20       1.0  0.49157  0.78276  0.70505  1.0000
  C   C21       1.0  0.23938  0.21305  0.34014  1.0000
  C   C22       1.0  0.76061  0.71304  0.65986  1.0000
  C   C23       1.0  0.66582  0.89541  0.35419  1.0000
  C   C24       1.0  0.33419  0.39547  0.64580  1.0000
  N   N1        1.0  0.98585  0.45279  0.85139  1.0000
  N   N2        1.0  0.01414  0.95281  0.14861  1.0000
  N   N3        1.0  0.81641  0.49777  0.88470  1.0000
  N   N4        1.0  0.18358  0.99778  0.11531  1.0000
  N   N5        1.0  0.80770  0.28500  0.79567  1.0000
  N   N6        1.0  0.19233  0.78501  0.20433  1.0000
  N   N7        1.0  0.19307  0.48480  0.96478  1.0000
  N   N8        1.0  0.80693  0.98484  0.03523  1.0000
  N   N9        1.0  0.31375  0.36647  0.97195  1.0000
  N   N10       1.0  0.68627  0.86653  0.02804  1.0000
  N   N11       1.0  0.23718  0.47765  0.10923  1.0000
  N   N12       1.0  0.76284  0.97767  0.89078  1.0000
  N   N13       1.0  0.70334  0.11714  0.46463  1.0000
  N   N14       1.0  0.29666  0.61722  0.53537  1.0000
  N   N15       1.0  0.78555  0.25575  0.47915  1.0000
  N   N16       1.0  0.21442  0.75585  0.52085  1.0000
  N   N17       1.0  0.71958  0.12649  0.61182  1.0000
  N   N18       1.0  0.28042  0.62654  0.38818  1.0000
  N   N19       1.0  0.51148  0.15304  0.34589  1.0000
  N   N20       1.0  0.48852  0.65311  0.65410  1.0000
  N   N21       1.0  0.34055  0.10710  0.37572  1.0000
  N   N22       1.0  0.65945  0.60711  0.62428  1.0000
  N   N23       1.0  0.33712  0.32356  0.28964  1.0000
  N   N24       1.0  0.66288  0.82359  0.71037  1.0000
  O   O1        1.0  0.08660  0.74073  0.78135  1.0000
  O   O2        1.0  0.91336  0.24079  0.21867  1.0000
  O   O3        1.0  0.18968  0.79925  0.91815  1.0000
  O   O4        1.0  0.81027  0.29928  0.08187  1.0000
  O   O5        1.0  0.72672  0.80490  0.40923  1.0000
  O   O6        1.0  0.27332  0.30502  0.59073  1.0000
  O   O7        1.0  0.60931  0.86667  0.27666  1.0000
  O   O8        1.0  0.39078  0.36673  0.72332  1.0000
  O   O9        1.0  0.02317  0.01330  0.72057  1.0000
  O   O10       1.0  0.97682  0.51337  0.27941  1.0000
  O   O11       1.0  0.45114  0.09579  0.78689  1.0000
  O   O12       1.0  0.54885  0.59570  0.21313  1.0000
