data_image0
_chemical_formula_structural       Ag4H20C24N24O8
_chemical_formula_sum              "Ag4 H20 C24 N24 O8"
_cell_length_a       6.51718
_cell_length_b       9.72146
_cell_length_c       16.4331
_cell_angle_alpha    90.0002
_cell_angle_beta     98.3125
_cell_angle_gamma    90.0011

_space_group_name_H-M_alt    "P 1"
_space_group_IT_number       1

loop_
  _space_group_symop_operation_xyz
  'x, y, z'

loop_
  _atom_site_type_symbol
  _atom_site_label
  _atom_site_symmetry_multiplicity
  _atom_site_fract_x
  _atom_site_fract_y
  _atom_site_fract_z
  _atom_site_occupancy
  Ag  Ag1       1.0  0.13166  0.02208  0.38138  1.0000
  Ag  Ag2       1.0  0.86833  0.52208  0.11862  1.0000
  Ag  Ag3       1.0  0.86833  0.97792  0.61862  1.0000
  Ag  Ag4       1.0  0.13167  0.47792  0.88138  1.0000
  H   H1        1.0  0.24792  0.46823  0.66429  1.0000
  H   H2        1.0  0.75206  0.96823  0.83571  1.0000
  H   H3        1.0  0.75208  0.53178  0.33570  1.0000
  H   H4        1.0  0.24794  0.03177  0.16430  1.0000
  H   H5        1.0  0.82516  0.70472  0.77568  1.0000
  H   H6        1.0  0.17486  0.20470  0.72433  1.0000
  H   H7        1.0  0.17486  0.29529  0.22433  1.0000
  H   H8        1.0  0.82514  0.79527  0.27567  1.0000
  H   H9        1.0  0.21337  0.59139  0.52800  1.0000
  H   H10       1.0  0.78660  0.09139  0.97201  1.0000
  H   H11       1.0  0.78664  0.40861  0.47201  1.0000
  H   H12       1.0  0.21339  0.90861  0.02799  1.0000
  H   H13       1.0  0.56060  0.71490  0.54902  1.0000
  H   H14       1.0  0.43938  0.21492  0.95098  1.0000
  H   H15       1.0  0.43939  0.28510  0.45098  1.0000
  H   H16       1.0  0.56061  0.78509  0.04901  1.0000
  H   H17       1.0  0.35098  0.10844  0.60727  1.0000
  H   H18       1.0  0.64904  0.60845  0.89273  1.0000
  H   H19       1.0  0.64902  0.89156  0.39273  1.0000
  H   H20       1.0  0.35096  0.39156  0.10726  1.0000
  C   C1        1.0  0.13557  0.54401  0.67820  1.0000
  C   C2        1.0  0.86443  0.04400  0.82181  1.0000
  C   C3        1.0  0.86444  0.45600  0.32180  1.0000
  C   C4        1.0  0.13558  0.95599  0.17819  1.0000
  C   C5        1.0  0.91465  0.66389  0.73043  1.0000
  C   C6        1.0  0.08535  0.16387  0.76958  1.0000
  C   C7        1.0  0.08537  0.33613  0.26957  1.0000
  C   C8        1.0  0.91466  0.83612  0.23043  1.0000
  C   C9        1.0  0.12050  0.67837  0.54567  1.0000
  C   C10       1.0  0.87948  0.17838  0.95434  1.0000
  C   C11       1.0  0.87950  0.32163  0.45433  1.0000
  C   C12       1.0  0.12053  0.82162  0.04567  1.0000
  C   C13       1.0  0.93827  0.69800  0.47244  1.0000
  C   C14       1.0  0.06170  0.19801  0.02757  1.0000
  C   C15       1.0  0.06174  0.30200  0.52756  1.0000
  C   C16       1.0  0.93829  0.80199  0.97243  1.0000
  C   C17       1.0  0.46485  0.80099  0.56347  1.0000
  C   C18       1.0  0.53515  0.30100  0.93653  1.0000
  C   C19       1.0  0.53515  0.19901  0.43653  1.0000
  C   C20       1.0  0.46485  0.69900  0.06346  1.0000
  C   C21       1.0  0.35659  0.99971  0.59267  1.0000
  C   C22       1.0  0.64341  0.49971  0.90732  1.0000
  C   C23       1.0  0.64342  0.00029  0.40733  1.0000
  C   C24       1.0  0.35656  0.50029  0.09267  1.0000
  N   N1        1.0  0.05029  0.55681  0.74681  1.0000
  N   N2        1.0  0.94972  0.05680  0.75320  1.0000
  N   N3        1.0  0.94973  0.44320  0.25319  1.0000
  N   N4        1.0  0.05031  0.94320  0.24680  1.0000
  N   N5        1.0  0.91107  0.71679  0.65595  1.0000
  N   N6        1.0  0.08893  0.21677  0.84405  1.0000
  N   N7        1.0  0.08893  0.28323  0.34404  1.0000
  N   N8        1.0  0.91106  0.78322  0.15595  1.0000
  N   N9        1.0  0.05305  0.63967  0.62309  1.0000
  N   N10       1.0  0.94695  0.13966  0.87692  1.0000
  N   N11       1.0  0.94695  0.36034  0.37691  1.0000
  N   N12       1.0  0.05305  0.86034  0.12308  1.0000
  N   N13       1.0  0.25694  0.79732  0.55963  1.0000
  N   N14       1.0  0.74305  0.29733  0.94037  1.0000
  N   N15       1.0  0.74306  0.20268  0.44037  1.0000
  N   N16       1.0  0.25695  0.70268  0.05962  1.0000
  N   N17       1.0  0.18552  0.92392  0.57819  1.0000
  N   N18       1.0  0.81447  0.42392  0.92180  1.0000
  N   N19       1.0  0.81449  0.07610  0.42181  1.0000
  N   N20       1.0  0.18551  0.57609  0.07819  1.0000
  N   N21       1.0  0.53190  0.92782  0.58439  1.0000
  N   N22       1.0  0.46810  0.42782  0.91561  1.0000
  N   N23       1.0  0.46811  0.07219  0.41562  1.0000
  N   N24       1.0  0.53188  0.57218  0.08438  1.0000
  O   O1        1.0  0.77565  0.63009  0.47742  1.0000
  O   O2        1.0  0.22431  0.13012  0.02258  1.0000
  O   O3        1.0  0.22434  0.36989  0.52257  1.0000
  O   O4        1.0  0.77568  0.86990  0.97742  1.0000
  O   O5        1.0  0.98142  0.77113  0.41421  1.0000
  O   O6        1.0  0.01850  0.27113  0.08580  1.0000
  O   O7        1.0  0.01856  0.22888  0.58580  1.0000
  O   O8        1.0  0.98147  0.72886  0.91420  1.0000
