data_image0
_chemical_formula_structural       ZnH26C22N4O8
_chemical_formula_sum              "Zn1 H26 C22 N4 O8"
_cell_length_a       5.35757
_cell_length_b       7.57515
_cell_length_c       13.5546
_cell_angle_alpha    97.4392
_cell_angle_beta     101.367
_cell_angle_gamma    90.0445

_space_group_name_H-M_alt    "P 1"
_space_group_IT_number       1

loop_
  _space_group_symop_operation_xyz
  'x, y, z'

loop_
  _atom_site_type_symbol
  _atom_site_label
  _atom_site_symmetry_multiplicity
  _atom_site_fract_x
  _atom_site_fract_y
  _atom_site_fract_z
  _atom_site_occupancy
  Zn  Zn1       1.0  0.64843  0.50026  0.00023  1.0000
  H   H1        1.0  0.87924  0.83213  0.26921  1.0000
  H   H2        1.0  0.61118  0.16792  0.73073  1.0000
  H   H3        1.0  0.19194  0.43175  0.90202  1.0000
  H   H4        1.0  0.28908  0.56826  0.09796  1.0000
  H   H5        1.0  0.38210  0.35825  0.82538  1.0000
  H   H6        1.0  0.55542  0.64238  0.17474  1.0000
  H   H7        1.0  0.21857  0.85019  0.84327  1.0000
  H   H8        1.0  0.37525  0.15000  0.15675  1.0000
  H   H9        1.0  0.28399  0.17295  0.99091  1.0000
  H   H10       1.0  0.29210  0.82690  0.00892  1.0000
  H   H11       1.0  0.46736  0.09463  0.89922  1.0000
  H   H12       1.0  0.56712  0.90575  0.10050  1.0000
  H   H13       1.0  0.67171  0.89045  0.75055  1.0000
  H   H14       1.0  0.92040  0.10964  0.24925  1.0000
  H   H15       1.0  0.46639  0.58587  0.55201  1.0000
  H   H16       1.0  0.91497  0.41374  0.44846  1.0000
  H   H17       1.0  0.07296  0.61284  0.72828  1.0000
  H   H18       1.0  0.34432  0.38755  0.27186  1.0000
  H   H19       1.0  0.75037  0.54224  0.70118  1.0000
  H   H20       1.0  0.04892  0.45757  0.29925  1.0000
  H   H21       1.0  0.40003  0.65901  0.37592  1.0000
  H   H22       1.0  0.02532  0.34061  0.62453  1.0000
  H   H23       1.0  0.14083  0.91641  0.44144  1.0000
  H   H24       1.0  0.69939  0.08316  0.55824  1.0000
  H   H25       1.0  0.20602  0.84732  0.61756  1.0000
  H   H26       1.0  0.58790  0.15199  0.38208  1.0000
  C   C1        1.0  0.71928  0.71760  0.86483  1.0000
  C   C2        1.0  0.85511  0.28288  0.13517  1.0000
  C   C3        1.0  0.05705  0.09468  0.84548  1.0000
  C   C4        1.0  0.21045  0.90557  0.15430  1.0000
  C   C5        1.0  0.84191  0.70934  0.59784  1.0000
  C   C6        1.0  0.24402  0.29017  0.40220  1.0000
  C   C7        1.0  0.30376  0.17514  0.91199  1.0000
  C   C8        1.0  0.39075  0.82510  0.08785  1.0000
  C   C9        1.0  0.82238  0.80633  0.78471  1.0000
  C   C10       1.0  0.03748  0.19383  0.21526  1.0000
  C   C11       1.0  0.76862  0.78610  0.39646  1.0000
  C   C12       1.0  0.37287  0.21353  0.60356  1.0000
  C   C13       1.0  0.61473  0.65954  0.52858  1.0000
  C   C14       1.0  0.08659  0.33998  0.47168  1.0000
  C   C15       1.0  0.87798  0.65690  0.70298  1.0000
  C   C16       1.0  0.17473  0.34303  0.29717  1.0000
  C   C17       1.0  0.57703  0.69787  0.42925  1.0000
  C   C18       1.0  0.14852  0.30167  0.57100  1.0000
  C   C19       1.0  0.99358  0.84252  0.46535  1.0000
  C   C20       1.0  0.52841  0.15706  0.53445  1.0000
  C   C21       1.0  0.02860  0.80373  0.56508  1.0000
  C   C22       1.0  0.46329  0.19568  0.43470  1.0000
  N   N1        1.0  0.35384  0.36006  0.89840  1.0000
  N   N2        1.0  0.45454  0.64027  0.10166  1.0000
  N   N3        1.0  0.04911  0.91629  0.82818  1.0000
  N   N4        1.0  0.22065  0.08395  0.17181  1.0000
  O   O1        1.0  0.87449  0.63527  0.92728  1.0000
  O   O2        1.0  0.94831  0.36563  0.07292  1.0000
  O   O3        1.0  0.48303  0.71894  0.86255  1.0000
  O   O4        1.0  0.62095  0.28140  0.13723  1.0000
  O   O5        1.0  0.87611  0.19339  0.81746  1.0000
  O   O6        1.0  0.05688  0.80695  0.18215  1.0000
  O   O7        1.0  0.72166  0.81654  0.29713  1.0000
  O   O8        1.0  0.42567  0.18330  0.70292  1.0000
