data_image0
_chemical_formula_structural       ZnH26C22N4O8
_chemical_formula_sum              "Zn1 H26 C22 N4 O8"
_cell_length_a       5.27253
_cell_length_b       7.6614
_cell_length_c       14.0147
_cell_angle_alpha    99.4049
_cell_angle_beta     100.772
_cell_angle_gamma    90.0095

_space_group_name_H-M_alt    "P 1"
_space_group_IT_number       1

loop_
  _space_group_symop_operation_xyz
  'x, y, z'

loop_
  _atom_site_type_symbol
  _atom_site_label
  _atom_site_symmetry_multiplicity
  _atom_site_fract_x
  _atom_site_fract_y
  _atom_site_fract_z
  _atom_site_occupancy
  Zn  Zn1       1.0  0.72261  0.50017  0.00003  1.0000
  H   H1        1.0  0.39556  0.78156  0.29257  1.0000
  H   H2        1.0  0.10418  0.21796  0.70785  1.0000
  H   H3        1.0  0.27245  0.42225  0.89692  1.0000
  H   H4        1.0  0.37391  0.57765  0.10275  1.0000
  H   H5        1.0  0.48279  0.34229  0.83018  1.0000
  H   H6        1.0  0.65027  0.65782  0.16967  1.0000
  H   H7        1.0  0.26966  0.84493  0.85244  1.0000
  H   H8        1.0  0.41539  0.15503  0.14737  1.0000
  H   H9        1.0  0.53866  0.08523  0.89931  1.0000
  H   H10       1.0  0.63741  0.91485  0.10021  1.0000
  H   H11       1.0  0.36217  0.17601  0.99113  1.0000
  H   H12       1.0  0.36910  0.82384  0.00872  1.0000
  H   H13       1.0  0.71896  0.90111  0.76855  1.0000
  H   H14       1.0  0.94854  0.09904  0.23157  1.0000
  H   H15       1.0  0.29648  0.64225  0.41793  1.0000
  H   H16       1.0  0.87866  0.35717  0.58274  1.0000
  H   H17       1.0  0.44607  0.57730  0.58498  1.0000
  H   H18       1.0  0.86032  0.42223  0.41560  1.0000
  H   H19       1.0  0.16471  0.85935  0.60250  1.0000
  H   H20       1.0  0.56129  0.14071  0.39689  1.0000
  H   H21       1.0  0.01586  0.91965  0.43260  1.0000
  H   H22       1.0  0.58373  0.08082  0.56702  1.0000
  H   H23       1.0  0.11361  0.63395  0.71893  1.0000
  H   H24       1.0  0.39233  0.36656  0.28059  1.0000
  H   H25       1.0  0.80182  0.54463  0.71211  1.0000
  H   H26       1.0  0.08729  0.45525  0.28808  1.0000
  C   C1        1.0  0.76865  0.71564  0.86912  1.0000
  C   C2        1.0  0.89819  0.28451  0.13097  1.0000
  C   C3        1.0  0.12087  0.09235  0.85209  1.0000
  C   C4        1.0  0.26719  0.90759  0.14793  1.0000
  C   C5        1.0  0.37800  0.17013  0.91369  1.0000
  C   C6        1.0  0.46257  0.82986  0.08608  1.0000
  C   C7        1.0  0.86781  0.81085  0.79462  1.0000
  C   C8        1.0  0.07147  0.18921  0.20543  1.0000
  C   C9        1.0  0.65076  0.77932  0.41342  1.0000
  C   C10       1.0  0.23784  0.22075  0.58676  1.0000
  C   C11       1.0  0.48864  0.68758  0.45763  1.0000
  C   C12       1.0  0.03113  0.31224  0.54284  1.0000
  C   C13       1.0  0.57284  0.65420  0.55298  1.0000
  C   C14       1.0  0.01936  0.34557  0.44741  1.0000
  C   C15       1.0  0.81779  0.71297  0.60658  1.0000
  C   C16       1.0  0.21035  0.28698  0.39343  1.0000
  C   C17       1.0  0.97413  0.81055  0.56235  1.0000
  C   C18       1.0  0.41133  0.18963  0.43739  1.0000
  C   C19       1.0  0.89305  0.84379  0.46656  1.0000
  C   C20       1.0  0.42672  0.15653  0.53326  1.0000
  C   C21       1.0  0.90776  0.66565  0.70730  1.0000
  C   C22       1.0  0.19857  0.33440  0.29263  1.0000
  N   N1        1.0  0.43727  0.34996  0.89875  1.0000
  N   N2        1.0  0.53694  0.65009  0.10104  1.0000
  N   N3        1.0  0.10286  0.91479  0.83774  1.0000
  N   N4        1.0  0.26335  0.08515  0.16219  1.0000
  O   O1        1.0  0.93263  0.64112  0.92886  1.0000
  O   O2        1.0  0.00290  0.35919  0.07130  1.0000
  O   O3        1.0  0.52809  0.70382  0.86440  1.0000
  O   O4        1.0  0.66228  0.29616  0.13562  1.0000
  O   O5        1.0  0.94382  0.19073  0.82219  1.0000
  O   O6        1.0  0.12028  0.80919  0.17805  1.0000
  O   O7        1.0  0.58073  0.80874  0.31816  1.0000
  O   O8        1.0  0.26367  0.19119  0.68201  1.0000
