data_image0
_chemical_formula_structural       ZnH26C22N4O8
_chemical_formula_sum              "Zn1 H26 C22 N4 O8"
_cell_length_a       5.26633
_cell_length_b       7.67725
_cell_length_c       14.0229
_cell_angle_alpha    99.1409
_cell_angle_beta     100.761
_cell_angle_gamma    89.9829

_space_group_name_H-M_alt    "P 1"
_space_group_IT_number       1

loop_
  _space_group_symop_operation_xyz
  'x, y, z'

loop_
  _atom_site_type_symbol
  _atom_site_label
  _atom_site_symmetry_multiplicity
  _atom_site_fract_x
  _atom_site_fract_y
  _atom_site_fract_z
  _atom_site_occupancy
  Zn  Zn1       1.0  0.73246  0.50016  0.99991  1.0000
  H   H1        1.0  0.40085  0.78258  0.29404  1.0000
  H   H2        1.0  0.10739  0.21721  0.70623  1.0000
  H   H3        1.0  0.28057  0.42240  0.89733  1.0000
  H   H4        1.0  0.38341  0.57798  0.10292  1.0000
  H   H5        1.0  0.49130  0.34336  0.83065  1.0000
  H   H6        1.0  0.66070  0.65697  0.16934  1.0000
  H   H7        1.0  0.28777  0.84591  0.85269  1.0000
  H   H8        1.0  0.43341  0.15427  0.14732  1.0000
  H   H9        1.0  0.37175  0.17694  0.99185  1.0000
  H   H10       1.0  0.37998  0.82356  0.00835  1.0000
  H   H11       1.0  0.55113  0.08743  0.90089  1.0000
  H   H12       1.0  0.64973  0.91302  0.09932  1.0000
  H   H13       1.0  0.73662  0.89986  0.76849  1.0000
  H   H14       1.0  0.96624  0.10050  0.23166  1.0000
  H   H15       1.0  0.46461  0.57632  0.58664  1.0000
  H   H16       1.0  0.87666  0.42350  0.41382  1.0000
  H   H17       1.0  0.13631  0.63928  0.71795  1.0000
  H   H18       1.0  0.41589  0.36123  0.28165  1.0000
  H   H19       1.0  0.82876  0.54419  0.71227  1.0000
  H   H20       1.0  0.11390  0.45600  0.28787  1.0000
  H   H21       1.0  0.30982  0.63935  0.41960  1.0000
  H   H22       1.0  0.88967  0.35997  0.58085  1.0000
  H   H23       1.0  0.02473  0.91970  0.43062  1.0000
  H   H24       1.0  0.59358  0.07982  0.56869  1.0000
  H   H25       1.0  0.17890  0.86067  0.60039  1.0000
  H   H26       1.0  0.57702  0.13899  0.39884  1.0000
  C   C1        1.0  0.78526  0.71379  0.86863  1.0000
  C   C2        1.0  0.91501  0.28631  0.13135  1.0000
  C   C3        1.0  0.13309  0.09179  0.85299  1.0000
  C   C4        1.0  0.27933  0.90837  0.14723  1.0000
  C   C5        1.0  0.83421  0.71387  0.60658  1.0000
  C   C6        1.0  0.22620  0.28601  0.39330  1.0000
  C   C7        1.0  0.38868  0.17112  0.91456  1.0000
  C   C8        1.0  0.47383  0.82926  0.08562  1.0000
  C   C9        1.0  0.88596  0.80979  0.79455  1.0000
  C   C10       1.0  0.08957  0.19040  0.20547  1.0000
  C   C11       1.0  0.66059  0.77902  0.41346  1.0000
  C   C12       1.0  0.24664  0.22043  0.58644  1.0000
  C   C13       1.0  0.58910  0.65373  0.55397  1.0000
  C   C14       1.0  0.03393  0.34596  0.44624  1.0000
  C   C15       1.0  0.92900  0.66707  0.70716  1.0000
  C   C16       1.0  0.21970  0.33318  0.29273  1.0000
  C   C17       1.0  0.50179  0.68633  0.45864  1.0000
  C   C18       1.0  0.04234  0.31311  0.54154  1.0000
  C   C19       1.0  0.90365  0.84394  0.46537  1.0000
  C   C20       1.0  0.43740  0.15553  0.53415  1.0000
  C   C21       1.0  0.98782  0.81132  0.56112  1.0000
  C   C22       1.0  0.42544  0.18833  0.43840  1.0000
  N   N1        1.0  0.44613  0.35073  0.89917  1.0000
  N   N2        1.0  0.54693  0.64965  0.10090  1.0000
  N   N3        1.0  0.11947  0.91454  0.83839  1.0000
  N   N4        1.0  0.27952  0.08560  0.16166  1.0000
  O   O1        1.0  0.94774  0.63820  0.92849  1.0000
  O   O2        1.0  0.01804  0.36189  0.07153  1.0000
  O   O3        1.0  0.54426  0.70326  0.86382  1.0000
  O   O4        1.0  0.67876  0.29676  0.13609  1.0000
  O   O5        1.0  0.95279  0.18822  0.82342  1.0000
  O   O6        1.0  0.12893  0.81182  0.17690  1.0000
  O   O7        1.0  0.58665  0.80893  0.31845  1.0000
  O   O8        1.0  0.26840  0.19057  0.68149  1.0000
