data_image0
_chemical_formula_structural       ZnH26C22N4O8
_chemical_formula_sum              "Zn1 H26 C22 N4 O8"
_cell_length_a       5.38317
_cell_length_b       7.55183
_cell_length_c       13.5651
_cell_angle_alpha    97.749
_cell_angle_beta     101.472
_cell_angle_gamma    90.0058

_space_group_name_H-M_alt    "P 1"
_space_group_IT_number       1

loop_
  _space_group_symop_operation_xyz
  'x, y, z'

loop_
  _atom_site_type_symbol
  _atom_site_label
  _atom_site_symmetry_multiplicity
  _atom_site_fract_x
  _atom_site_fract_y
  _atom_site_fract_z
  _atom_site_occupancy
  Zn  Zn1       1.0  0.65927  0.50009  0.99995  1.0000
  H   H1        1.0  0.89569  0.83156  0.27083  1.0000
  H   H2        1.0  0.62476  0.16850  0.72932  1.0000
  H   H3        1.0  0.20462  0.43262  0.90099  1.0000
  H   H4        1.0  0.30386  0.56723  0.09902  1.0000
  H   H5        1.0  0.39374  0.35757  0.82453  1.0000
  H   H6        1.0  0.56943  0.64247  0.17548  1.0000
  H   H7        1.0  0.22400  0.84854  0.84340  1.0000
  H   H8        1.0  0.38026  0.15121  0.15657  1.0000
  H   H9        1.0  0.29554  0.17291  0.98976  1.0000
  H   H10       1.0  0.30516  0.82695  0.01028  1.0000
  H   H11       1.0  0.47544  0.09297  0.89759  1.0000
  H   H12       1.0  0.57753  0.90716  0.10240  1.0000
  H   H13       1.0  0.67949  0.89230  0.75174  1.0000
  H   H14       1.0  0.92776  0.10773  0.24835  1.0000
  H   H15       1.0  0.47178  0.58749  0.54992  1.0000
  H   H16       1.0  0.92254  0.41299  0.44989  1.0000
  H   H17       1.0  0.74761  0.54294  0.69997  1.0000
  H   H18       1.0  0.04812  0.45715  0.29989  1.0000
  H   H19       1.0  0.07124  0.60833  0.72824  1.0000
  H   H20       1.0  0.34331  0.39150  0.27165  1.0000
  H   H21       1.0  0.41254  0.66094  0.37427  1.0000
  H   H22       1.0  0.03861  0.33963  0.62553  1.0000
  H   H23       1.0  0.15403  0.91387  0.44423  1.0000
  H   H24       1.0  0.70984  0.08606  0.55594  1.0000
  H   H25       1.0  0.21230  0.84469  0.61990  1.0000
  H   H26       1.0  0.59274  0.15507  0.38022  1.0000
  C   C1        1.0  0.72748  0.71913  0.86562  1.0000
  C   C2        1.0  0.86135  0.28077  0.13434  1.0000
  C   C3        1.0  0.06723  0.09489  0.84442  1.0000
  C   C4        1.0  0.22278  0.90488  0.15569  1.0000
  C   C5        1.0  0.84715  0.70897  0.59804  1.0000
  C   C6        1.0  0.24961  0.29108  0.40191  1.0000
  C   C7        1.0  0.31391  0.17482  0.91077  1.0000
  C   C8        1.0  0.40291  0.82513  0.08927  1.0000
  C   C9        1.0  0.82864  0.80682  0.78512  1.0000
  C   C10       1.0  0.04337  0.19311  0.21487  1.0000
  C   C11       1.0  0.78142  0.78617  0.39719  1.0000
  C   C12       1.0  0.38439  0.21399  0.60283  1.0000
  C   C13       1.0  0.62179  0.66042  0.52765  1.0000
  C   C14       1.0  0.09457  0.33977  0.47219  1.0000
  C   C15       1.0  0.87910  0.65584  0.70277  1.0000
  C   C16       1.0  0.17665  0.34413  0.29715  1.0000
  C   C17       1.0  0.58788  0.69889  0.42859  1.0000
  C   C18       1.0  0.15959  0.30142  0.57128  1.0000
  C   C19       1.0  0.00505  0.84096  0.46712  1.0000
  C   C20       1.0  0.53801  0.15900  0.53296  1.0000
  C   C21       1.0  0.03607  0.80223  0.56662  1.0000
  C   C22       1.0  0.46981  0.19772  0.43344  1.0000
  N   N1        1.0  0.36537  0.36013  0.89750  1.0000
  N   N2        1.0  0.46796  0.63988  0.10250  1.0000
  N   N3        1.0  0.05640  0.91574  0.82787  1.0000
  N   N4        1.0  0.22817  0.08404  0.17212  1.0000
  O   O1        1.0  0.88263  0.63663  0.92776  1.0000
  O   O2        1.0  0.95435  0.36312  0.07217  1.0000
  O   O3        1.0  0.49258  0.72114  0.86383  1.0000
  O   O4        1.0  0.62833  0.27889  0.13621  1.0000
  O   O5        1.0  0.88901  0.19480  0.81576  1.0000
  O   O6        1.0  0.07373  0.80480  0.18452  1.0000
  O   O7        1.0  0.73768  0.81724  0.29810  1.0000
  O   O8        1.0  0.43952  0.18300  0.70193  1.0000
