data_image0
_chemical_formula_structural       ZnH26C22N4O8
_chemical_formula_sum              "Zn1 H26 C22 N4 O8"
_cell_length_a       5.38705
_cell_length_b       7.55453
_cell_length_c       13.5794
_cell_angle_alpha    98.0683
_cell_angle_beta     101.487
_cell_angle_gamma    89.9854

_space_group_name_H-M_alt    "P 1"
_space_group_IT_number       1

loop_
  _space_group_symop_operation_xyz
  'x, y, z'

loop_
  _atom_site_type_symbol
  _atom_site_label
  _atom_site_symmetry_multiplicity
  _atom_site_fract_x
  _atom_site_fract_y
  _atom_site_fract_z
  _atom_site_occupancy
  Zn  Zn1       1.0  0.66776  0.50033  0.99995  1.0000
  H   H1        1.0  0.90783  0.83171  0.27264  1.0000
  H   H2        1.0  0.63516  0.16817  0.72737  1.0000
  H   H3        1.0  0.21411  0.43131  0.90035  1.0000
  H   H4        1.0  0.31377  0.56897  0.09947  1.0000
  H   H5        1.0  0.40406  0.35669  0.82411  1.0000
  H   H6        1.0  0.57993  0.64365  0.17582  1.0000
  H   H7        1.0  0.23026  0.84694  0.84406  1.0000
  H   H8        1.0  0.38496  0.15328  0.15595  1.0000
  H   H9        1.0  0.30821  0.17148  0.98868  1.0000
  H   H10       1.0  0.31887  0.82880  0.01117  1.0000
  H   H11       1.0  0.48487  0.09192  0.89534  1.0000
  H   H12       1.0  0.58899  0.90850  0.10462  1.0000
  H   H13       1.0  0.68633  0.89246  0.75316  1.0000
  H   H14       1.0  0.93250  0.10722  0.24688  1.0000
  H   H15       1.0  0.47740  0.58775  0.54904  1.0000
  H   H16       1.0  0.92776  0.41207  0.45072  1.0000
  H   H17       1.0  0.07300  0.60505  0.72820  1.0000
  H   H18       1.0  0.34433  0.39426  0.27185  1.0000
  H   H19       1.0  0.74787  0.54342  0.69915  1.0000
  H   H20       1.0  0.04855  0.45656  0.30085  1.0000
  H   H21       1.0  0.42166  0.66105  0.37386  1.0000
  H   H22       1.0  0.04742  0.33898  0.62599  1.0000
  H   H23       1.0  0.16438  0.91261  0.44655  1.0000
  H   H24       1.0  0.71783  0.08750  0.55379  1.0000
  H   H25       1.0  0.21893  0.84337  0.62173  1.0000
  H   H26       1.0  0.59694  0.15639  0.37852  1.0000
  C   C1        1.0  0.73465  0.71901  0.86623  1.0000
  C   C2        1.0  0.86671  0.28085  0.13389  1.0000
  C   C3        1.0  0.07662  0.09399  0.84361  1.0000
  C   C4        1.0  0.23248  0.90604  0.15624  1.0000
  C   C5        1.0  0.85305  0.70855  0.59850  1.0000
  C   C6        1.0  0.25397  0.29122  0.40151  1.0000
  C   C7        1.0  0.32415  0.17377  0.90955  1.0000
  C   C8        1.0  0.41416  0.82654  0.09033  1.0000
  C   C9        1.0  0.83494  0.80640  0.78579  1.0000
  C   C10       1.0  0.04809  0.19336  0.21420  1.0000
  C   C11       1.0  0.79120  0.78588  0.39819  1.0000
  C   C12       1.0  0.39271  0.21424  0.60187  1.0000
  C   C13       1.0  0.62838  0.66056  0.52752  1.0000
  C   C14       1.0  0.10035  0.33936  0.47239  1.0000
  C   C15       1.0  0.88241  0.65481  0.70277  1.0000
  C   C16       1.0  0.17902  0.34487  0.29724  1.0000
  C   C17       1.0  0.59637  0.69894  0.42869  1.0000
  C   C18       1.0  0.16727  0.30108  0.57125  1.0000
  C   C19       1.0  0.01419  0.84017  0.46873  1.0000
  C   C20       1.0  0.54520  0.15981  0.53146  1.0000
  C   C21       1.0  0.04321  0.80147  0.56795  1.0000
  C   C22       1.0  0.47492  0.19842  0.43221  1.0000
  N   N1        1.0  0.37510  0.35922  0.89692  1.0000
  N   N2        1.0  0.47814  0.64110  0.10297  1.0000
  N   N3        1.0  0.06356  0.91470  0.82809  1.0000
  N   N4        1.0  0.23437  0.08528  0.17178  1.0000
  O   O1        1.0  0.89047  0.63756  0.92833  1.0000
  O   O2        1.0  0.96018  0.36213  0.07173  1.0000
  O   O3        1.0  0.49977  0.72019  0.86424  1.0000
  O   O4        1.0  0.63402  0.28000  0.13613  1.0000
  O   O5        1.0  0.89995  0.19420  0.81421  1.0000
  O   O6        1.0  0.08544  0.80564  0.18557  1.0000
  O   O7        1.0  0.74946  0.81682  0.29932  1.0000
  O   O8        1.0  0.45002  0.18338  0.70075  1.0000
