data_image0
_chemical_formula_structural       Cd2H32C40N4Cl4O4
_chemical_formula_sum              "Cd2 H32 C40 N4 Cl4 O4"
_cell_length_a       8.42193
_cell_length_b       12.1751
_cell_length_c       12.8041
_cell_angle_alpha    95.2257
_cell_angle_beta     97.224
_cell_angle_gamma    103.013

_space_group_name_H-M_alt    "P 1"
_space_group_IT_number       1

loop_
  _space_group_symop_operation_xyz
  'x, y, z'

loop_
  _atom_site_type_symbol
  _atom_site_label
  _atom_site_symmetry_multiplicity
  _atom_site_fract_x
  _atom_site_fract_y
  _atom_site_fract_z
  _atom_site_occupancy
  Cd  Cd1       1.0  0.98389  0.13431  0.94261  1.0000
  Cd  Cd2       1.0  0.01612  0.86569  0.05740  1.0000
  H   H1        1.0  0.57738  0.08618  0.90934  1.0000
  H   H2        1.0  0.42263  0.91382  0.09066  1.0000
  H   H3        1.0  0.94542  0.38190  0.94687  1.0000
  H   H4        1.0  0.05458  0.61809  0.05313  1.0000
  H   H5        1.0  0.35691  0.19029  0.86803  1.0000
  H   H6        1.0  0.64309  0.80971  0.13197  1.0000
  H   H7        1.0  0.74419  0.50030  0.90909  1.0000
  H   H8        1.0  0.25581  0.49970  0.09090  1.0000
  H   H9        1.0  0.27773  0.36015  0.83453  1.0000
  H   H10       1.0  0.72227  0.63984  0.16547  1.0000
  H   H11       1.0  0.55853  0.58057  0.88105  1.0000
  H   H12       1.0  0.44148  0.41942  0.11895  1.0000
  H   H13       1.0  0.09144  0.45396  0.78587  1.0000
  H   H14       1.0  0.90856  0.54603  0.21413  1.0000
  H   H15       1.0  0.49938  0.75236  0.85898  1.0000
  H   H16       1.0  0.50063  0.24764  0.14102  1.0000
  H   H17       1.0  0.91147  0.58244  0.73086  1.0000
  H   H18       1.0  0.08853  0.41755  0.26914  1.0000
  H   H19       1.0  0.29991  0.86852  0.80015  1.0000
  H   H20       1.0  0.70010  0.13147  0.19985  1.0000
  H   H21       1.0  0.03087  0.88213  0.76817  1.0000
  H   H22       1.0  0.96914  0.11786  0.23184  1.0000
  H   H23       1.0  0.86854  0.75913  0.73141  1.0000
  H   H24       1.0  0.13146  0.24087  0.26859  1.0000
  H   H25       1.0  0.80875  0.66174  0.54562  1.0000
  H   H26       1.0  0.19125  0.33826  0.45438  1.0000
  H   H27       1.0  0.19843  0.96552  0.63558  1.0000
  H   H28       1.0  0.80156  0.03448  0.36442  1.0000
  H   H29       1.0  0.82679  0.68133  0.35505  1.0000
  H   H30       1.0  0.17321  0.31867  0.64495  1.0000
  H   H31       1.0  0.21354  0.98406  0.44393  1.0000
  H   H32       1.0  0.78646  0.01594  0.55608  1.0000
  C   C1        1.0  0.60809  0.17772  0.90652  1.0000
  C   C2        1.0  0.39191  0.82228  0.09348  1.0000
  C   C3        1.0  0.81325  0.34362  0.92775  1.0000
  C   C4        1.0  0.18675  0.65638  0.07225  1.0000
  C   C5        1.0  0.48616  0.23597  0.88333  1.0000
  C   C6        1.0  0.51385  0.76403  0.11667  1.0000
  C   C7        1.0  0.70015  0.40843  0.90606  1.0000
  C   C8        1.0  0.29985  0.59157  0.09394  1.0000
  C   C9        1.0  0.53101  0.35423  0.88210  1.0000
  C   C10       1.0  0.46899  0.64576  0.11790  1.0000
  C   C11       1.0  0.40265  0.41423  0.85593  1.0000
  C   C12       1.0  0.59735  0.58577  0.14407  1.0000
  C   C13       1.0  0.43315  0.52837  0.85643  1.0000
  C   C14       1.0  0.56685  0.47163  0.14357  1.0000
  C   C15       1.0  0.31370  0.59259  0.82539  1.0000
  C   C16       1.0  0.68630  0.40741  0.17461  1.0000
  C   C17       1.0  0.14416  0.54498  0.78939  1.0000
  C   C18       1.0  0.85585  0.45502  0.21061  1.0000
  C   C19       1.0  0.37024  0.71155  0.82955  1.0000
  C   C20       1.0  0.62976  0.28845  0.17044  1.0000
  C   C21       1.0  0.04280  0.61424  0.75819  1.0000
  C   C22       1.0  0.95720  0.38575  0.24180  1.0000
  C   C23       1.0  0.26330  0.77659  0.79692  1.0000
  C   C24       1.0  0.73670  0.22341  0.20308  1.0000
  C   C25       1.0  0.99329  0.79961  0.71845  1.0000
  C   C26       1.0  0.00671  0.20038  0.28155  1.0000
  C   C27       1.0  0.00442  0.81138  0.60332  1.0000
  C   C28       1.0  0.99557  0.18863  0.39668  1.0000
  C   C29       1.0  0.89980  0.73168  0.52382  1.0000
  C   C30       1.0  0.10020  0.26832  0.47618  1.0000
  C   C31       1.0  0.11907  0.90158  0.57425  1.0000
  C   C32       1.0  0.88092  0.09843  0.42575  1.0000
  C   C33       1.0  0.90928  0.74217  0.41727  1.0000
  C   C34       1.0  0.09072  0.25783  0.58273  1.0000
  C   C35       1.0  0.12806  0.91258  0.46761  1.0000
  C   C36       1.0  0.87193  0.08743  0.53239  1.0000
  C   C37       1.0  0.02303  0.83304  0.38824  1.0000
  C   C38       1.0  0.97697  0.16696  0.61176  1.0000
  C   C39       1.0  0.02610  0.84685  0.27302  1.0000
  C   C40       1.0  0.97390  0.15316  0.72699  1.0000
  N   N1        1.0  0.76902  0.23017  0.92772  1.0000
  N   N2        1.0  0.23098  0.76983  0.07228  1.0000
  N   N3        1.0  0.10240  0.72796  0.76039  1.0000
  N   N4        1.0  0.89760  0.27203  0.23961  1.0000
  Cl  Cl1       1.0  0.18037  0.29025  0.07377  1.0000
  Cl  Cl2       1.0  0.81963  0.70975  0.92624  1.0000
  Cl  Cl3       1.0  0.80473  0.99675  0.05229  1.0000
  Cl  Cl4       1.0  0.19527  0.00325  0.94770  1.0000
  O   O1        1.0  0.93910  0.76519  0.20464  1.0000
  O   O2        1.0  0.06091  0.23481  0.79537  1.0000
  O   O3        1.0  0.11083  0.93792  0.24742  1.0000
  O   O4        1.0  0.88916  0.06209  0.75258  1.0000
