data_image0
_chemical_formula_structural       Cu4H20C16S8I4N4
_chemical_formula_sum              "Cu4 H20 C16 S8 I4 N4"
_cell_length_a       7.42856
_cell_length_b       7.43884
_cell_length_c       14.1215
_cell_angle_alpha    89.9996
_cell_angle_beta     89.9997
_cell_angle_gamma    91.642

_space_group_name_H-M_alt    "P 1"
_space_group_IT_number       1

loop_
  _space_group_symop_operation_xyz
  'x, y, z'

loop_
  _atom_site_type_symbol
  _atom_site_label
  _atom_site_symmetry_multiplicity
  _atom_site_fract_x
  _atom_site_fract_y
  _atom_site_fract_z
  _atom_site_occupancy
  Cu  Cu1       1.0  0.29567  0.66319  0.27954  1.0000
  Cu  Cu2       1.0  0.20433  0.33681  0.77954  1.0000
  Cu  Cu3       1.0  0.70433  0.33681  0.72046  1.0000
  Cu  Cu4       1.0  0.79567  0.66318  0.22046  1.0000
  H   H1        1.0  0.21563  0.61368  0.49050  1.0000
  H   H2        1.0  0.28438  0.38634  0.99050  1.0000
  H   H3        1.0  0.78438  0.38632  0.50950  1.0000
  H   H4        1.0  0.71560  0.61366  0.00951  1.0000
  H   H5        1.0  0.43798  0.67508  0.63754  1.0000
  H   H6        1.0  0.06205  0.32493  0.13754  1.0000
  H   H7        1.0  0.56204  0.32491  0.36246  1.0000
  H   H8        1.0  0.93793  0.67509  0.86246  1.0000
  H   H9        1.0  0.98636  0.04384  0.32314  1.0000
  H   H10       1.0  0.51366  0.95616  0.82314  1.0000
  H   H11       1.0  0.01365  0.95616  0.67686  1.0000
  H   H12       1.0  0.48633  0.04384  0.17686  1.0000
  H   H13       1.0  0.97682  0.86444  0.40811  1.0000
  H   H14       1.0  0.52319  0.13556  0.90811  1.0000
  H   H15       1.0  0.02318  0.13556  0.59189  1.0000
  H   H16       1.0  0.47679  0.86443  0.09188  1.0000
  H   H17       1.0  0.86259  0.07464  0.42977  1.0000
  H   H18       1.0  0.63744  0.92536  0.92978  1.0000
  H   H19       1.0  0.13741  0.92535  0.57023  1.0000
  H   H20       1.0  0.36255  0.07464  0.07022  1.0000
  C   C1        1.0  0.34914  0.67779  0.48765  1.0000
  C   C2        1.0  0.15088  0.32222  0.98766  1.0000
  C   C3        1.0  0.65088  0.32221  0.51235  1.0000
  C   C4        1.0  0.84910  0.67778  0.01234  1.0000
  C   C5        1.0  0.46033  0.70864  0.56332  1.0000
  C   C6        1.0  0.03968  0.29138  0.06333  1.0000
  C   C7        1.0  0.53968  0.29136  0.43668  1.0000
  C   C8        1.0  0.96031  0.70863  0.93667  1.0000
  C   C9        1.0  0.58391  0.80264  0.41078  1.0000
  C   C10       1.0  0.91611  0.19739  0.91078  1.0000
  C   C11       1.0  0.41609  0.19737  0.58922  1.0000
  C   C12       1.0  0.08389  0.80262  0.08922  1.0000
  C   C13       1.0  0.90305  0.97572  0.37689  1.0000
  C   C14       1.0  0.59696  0.02427  0.87689  1.0000
  C   C15       1.0  0.09695  0.02427  0.62311  1.0000
  C   C16       1.0  0.40303  0.97572  0.12310  1.0000
  S   S1        1.0  0.66093  0.80500  0.52637  1.0000
  S   S2        1.0  0.83909  0.19500  0.02638  1.0000
  S   S3        1.0  0.33909  0.19500  0.47362  1.0000
  S   S4        1.0  0.16089  0.80500  0.97362  1.0000
  S   S5        1.0  0.70686  0.88966  0.31516  1.0000
  S   S6        1.0  0.79315  0.11035  0.81516  1.0000
  S   S7        1.0  0.29314  0.11034  0.68484  1.0000
  S   S8        1.0  0.20684  0.88965  0.18484  1.0000
  I   I1        1.0  0.00874  0.46953  0.32486  1.0000
  I   I2        1.0  0.49127  0.53047  0.82486  1.0000
  I   I3        1.0  0.99126  0.53047  0.67514  1.0000
  I   I4        1.0  0.50873  0.46953  0.17515  1.0000
  N   N1        1.0  0.41927  0.73013  0.40103  1.0000
  N   N2        1.0  0.08075  0.26989  0.90103  1.0000
  N   N3        1.0  0.58074  0.26987  0.59897  1.0000
  N   N4        1.0  0.91924  0.73010  0.09897  1.0000
