data_image0
_chemical_formula_structural       CoH14C14N2O8
_chemical_formula_sum              "Co1 H14 C14 N2 O8"
_cell_length_a       5.11793
_cell_length_b       7.34422
_cell_length_c       9.51122
_cell_angle_alpha    86.3164
_cell_angle_beta     82.635
_cell_angle_gamma    77.9272

_space_group_name_H-M_alt    "P 1"
_space_group_IT_number       1

loop_
  _space_group_symop_operation_xyz
  'x, y, z'

loop_
  _atom_site_type_symbol
  _atom_site_label
  _atom_site_symmetry_multiplicity
  _atom_site_fract_x
  _atom_site_fract_y
  _atom_site_fract_z
  _atom_site_occupancy
  Co  Co1       1.0  0.50000  0.00000  0.50000  1.0000
  H   H1        1.0  0.85750  0.82750  0.34846  1.0000
  H   H2        1.0  0.14250  0.17251  0.65154  1.0000
  H   H3        1.0  0.99616  0.82819  0.49568  1.0000
  H   H4        1.0  0.00385  0.17180  0.50431  1.0000
  H   H5        1.0  0.78655  0.00366  0.92710  1.0000
  H   H6        1.0  0.21344  0.99633  0.07291  1.0000
  H   H7        1.0  0.29286  0.46516  0.42372  1.0000
  H   H8        1.0  0.70713  0.53483  0.57628  1.0000
  H   H9        1.0  0.17046  0.61364  0.19189  1.0000
  H   H10       1.0  0.82953  0.38634  0.80811  1.0000
  H   H11       1.0  0.94344  0.30957  0.99895  1.0000
  H   H12       1.0  0.05657  0.69042  0.00104  1.0000
  H   H13       1.0  0.02993  0.17906  0.24071  1.0000
  H   H14       1.0  0.97007  0.82094  0.75929  1.0000
  C   C1        1.0  0.43895  0.05681  0.80430  1.0000
  C   C2        1.0  0.56105  0.94319  0.19570  1.0000
  C   C3        1.0  0.56931  0.01439  0.93686  1.0000
  C   C4        1.0  0.43068  0.98561  0.06314  1.0000
  C   C5        1.0  0.42315  0.43872  0.32491  1.0000
  C   C6        1.0  0.57688  0.56127  0.67510  1.0000
  C   C7        1.0  0.36106  0.51557  0.19508  1.0000
  C   C8        1.0  0.63892  0.48444  0.80493  1.0000
  C   C9        1.0  0.53688  0.46687  0.06915  1.0000
  C   C10       1.0  0.46313  0.53313  0.93084  1.0000
  C   C11       1.0  0.78916  0.34914  0.08796  1.0000
  C   C12       1.0  0.21081  0.65087  0.91206  1.0000
  C   C13       1.0  0.84471  0.27431  0.21927  1.0000
  C   C14       1.0  0.15530  0.72568  0.78073  1.0000
  N   N1        1.0  0.65830  0.31266  0.33542  1.0000
  N   N2        1.0  0.34170  0.68735  0.66459  1.0000
  O   O1        1.0  0.82767  0.81578  0.45670  1.0000
  O   O2        1.0  0.17235  0.18422  0.54329  1.0000
  O   O3        1.0  0.59513  0.99975  0.69059  1.0000
  O   O4        1.0  0.40487  0.00026  0.30941  1.0000
  O   O5        1.0  0.19413  0.13769  0.80893  1.0000
  O   O6        1.0  0.80586  0.86232  0.19107  1.0000
  O   O7        1.0  0.69608  0.21478  0.45755  1.0000
  O   O8        1.0  0.30392  0.78524  0.54243  1.0000
