data_image0
_chemical_formula_structural       Cu4H10C8S4I4N2
_chemical_formula_sum              "Cu4 H10 C8 S4 I4 N2"
_cell_length_a       7.58575
_cell_length_b       7.47406
_cell_length_c       9.39613
_cell_angle_alpha    98.357
_cell_angle_beta     102.589
_cell_angle_gamma    104.225

_space_group_name_H-M_alt    "P 1"
_space_group_IT_number       1

loop_
  _space_group_symop_operation_xyz
  'x, y, z'

loop_
  _atom_site_type_symbol
  _atom_site_label
  _atom_site_symmetry_multiplicity
  _atom_site_fract_x
  _atom_site_fract_y
  _atom_site_fract_z
  _atom_site_occupancy
  Cu  Cu1       1.0  0.49753  0.17173  0.05919  1.0000
  Cu  Cu2       1.0  0.50245  0.82827  0.94081  1.0000
  Cu  Cu3       1.0  0.49504  0.58403  0.12912  1.0000
  Cu  Cu4       1.0  0.50495  0.41595  0.87087  1.0000
  H   H1        1.0  0.01840  0.93284  0.22510  1.0000
  H   H2        1.0  0.98160  0.06716  0.77492  1.0000
  H   H3        1.0  0.26707  0.96632  0.30983  1.0000
  H   H4        1.0  0.73293  0.03368  0.69019  1.0000
  H   H5        1.0  0.15674  0.83064  0.12391  1.0000
  H   H6        1.0  0.84326  0.16936  0.87611  1.0000
  H   H7        1.0  0.43988  0.78044  0.42899  1.0000
  H   H8        1.0  0.56011  0.21955  0.57099  1.0000
  H   H9        1.0  0.24337  0.61546  0.60427  1.0000
  H   H10       1.0  0.75664  0.38457  0.39572  1.0000
  C   C1        1.0  0.15918  0.95147  0.20674  1.0000
  C   C2        1.0  0.84083  0.04853  0.79328  1.0000
  C   C3        1.0  0.25711  0.33667  0.27678  1.0000
  C   C4        1.0  0.74289  0.66333  0.72321  1.0000
  C   C5        1.0  0.35926  0.63294  0.40834  1.0000
  C   C6        1.0  0.64076  0.36707  0.59164  1.0000
  C   C7        1.0  0.25866  0.55145  0.49790  1.0000
  C   C8        1.0  0.74134  0.44857  0.50211  1.0000
  S   S1        1.0  0.21968  0.15481  0.12492  1.0000
  S   S2        1.0  0.78031  0.84518  0.87509  1.0000
  S   S3        1.0  0.15815  0.31446  0.42491  1.0000
  S   S4        1.0  0.84185  0.68556  0.57509  1.0000
  I   I1        1.0  0.65107  0.96401  0.23359  1.0000
  I   I2        1.0  0.34893  0.03598  0.76640  1.0000
  I   I3        1.0  0.79192  0.46801  0.11251  1.0000
  I   I4        1.0  0.20808  0.53199  0.88747  1.0000
  N   N1        1.0  0.35941  0.51100  0.28327  1.0000
  N   N2        1.0  0.64059  0.48900  0.71672  1.0000
