data_image0
_chemical_formula_structural       Hg2H16C22N6Cl6O2
_chemical_formula_sum              "Hg2 H16 C22 N6 Cl6 O2"
_cell_length_a       3.96822
_cell_length_b       11.8152
_cell_length_c       15.3236
_cell_angle_alpha    107.578
_cell_angle_beta     95.6683
_cell_angle_gamma    100.75

_space_group_name_H-M_alt    "P 1"
_space_group_IT_number       1

loop_
  _space_group_symop_operation_xyz
  'x, y, z'

loop_
  _atom_site_type_symbol
  _atom_site_label
  _atom_site_symmetry_multiplicity
  _atom_site_fract_x
  _atom_site_fract_y
  _atom_site_fract_z
  _atom_site_occupancy
  Hg  Hg1       1.0  0.10846  0.83273  0.48021  1.0000
  Hg  Hg2       1.0  0.89156  0.16728  0.51979  1.0000
  H   H1        1.0  0.10885  0.33618  0.34880  1.0000
  H   H2        1.0  0.89114  0.66381  0.65120  1.0000
  H   H3        1.0  0.24694  0.55572  0.45866  1.0000
  H   H4        1.0  0.75307  0.44428  0.54134  1.0000
  H   H5        1.0  0.67512  0.65390  0.26245  1.0000
  H   H6        1.0  0.32490  0.34611  0.73755  1.0000
  H   H7        1.0  0.38523  0.07901  0.00130  1.0000
  H   H8        1.0  0.61475  0.92098  0.99871  1.0000
  H   H9        1.0  0.74653  0.03694  0.74409  1.0000
  H   H10       1.0  0.25349  0.96305  0.25591  1.0000
  H   H11       1.0  0.72465  0.25652  0.80546  1.0000
  H   H12       1.0  0.27536  0.74348  0.19454  1.0000
  H   H13       1.0  0.03673  0.38758  0.96105  1.0000
  H   H14       1.0  0.96326  0.61241  0.03895  1.0000
  H   H15       1.0  0.55336  0.26207  0.11249  1.0000
  H   H16       1.0  0.44665  0.73794  0.88751  1.0000
  C   C1        1.0  0.01004  0.40728  0.32987  1.0000
  C   C2        1.0  0.98996  0.59272  0.67012  1.0000
  C   C3        1.0  0.08641  0.52727  0.39024  1.0000
  C   C4        1.0  0.91360  0.47273  0.60975  1.0000
  C   C5        1.0  0.77049  0.58298  0.28234  1.0000
  C   C6        1.0  0.22953  0.41703  0.71766  1.0000
  C   C7        1.0  0.69117  0.46198  0.22265  1.0000
  C   C8        1.0  0.30884  0.53802  0.77735  1.0000
  C   C9        1.0  0.45447  0.42684  0.13093  1.0000
  C   C10       1.0  0.54551  0.57316  0.86907  1.0000
  C   C11       1.0  0.23012  0.24133  0.99130  1.0000
  C   C12       1.0  0.76985  0.75867  0.00870  1.0000
  C   C13       1.0  0.23830  0.11747  0.95826  1.0000
  C   C14       1.0  0.76169  0.88253  0.04174  1.0000
  C   C15       1.0  0.06724  0.04638  0.86958  1.0000
  C   C16       1.0  0.93276  0.95361  0.13042  1.0000
  C   C17       1.0  0.88162  0.09460  0.81300  1.0000
  C   C18       1.0  0.11838  0.90539  0.18700  1.0000
  C   C19       1.0  0.87306  0.21745  0.84769  1.0000
  C   C20       1.0  0.12694  0.78255  0.15230  1.0000
  C   C21       1.0  0.04599  0.29217  0.93579  1.0000
  C   C22       1.0  0.95400  0.70782  0.06421  1.0000
  N   N1        1.0  0.81397  0.37523  0.24637  1.0000
  N   N2        1.0  0.18602  0.62477  0.75363  1.0000
  N   N3        1.0  0.96733  0.61426  0.36571  1.0000
  N   N4        1.0  0.03269  0.38575  0.63429  1.0000
  N   N5        1.0  0.42006  0.30813  0.07977  1.0000
  N   N6        1.0  0.57993  0.69188  0.92023  1.0000
  Cl  Cl1       1.0  0.71613  0.89879  0.38607  1.0000
  Cl  Cl2       1.0  0.28388  0.10121  0.61393  1.0000
  Cl  Cl3       1.0  0.51942  0.79054  0.58524  1.0000
  Cl  Cl4       1.0  0.48060  0.20947  0.41476  1.0000
  Cl  Cl5       1.0  0.09456  0.89480  0.82792  1.0000
  Cl  Cl6       1.0  0.90543  0.10520  0.17208  1.0000
  O   O1        1.0  0.30974  0.50186  0.11056  1.0000
  O   O2        1.0  0.69026  0.49814  0.88944  1.0000
