data_image0
_chemical_formula_structural       Hg4H36C44N12Cl8O4
_chemical_formula_sum              "Hg4 H36 C44 N12 Cl8 O4"
_cell_length_a       7.41492
_cell_length_b       11.035
_cell_length_c       15.711
_cell_angle_alpha    89.9996
_cell_angle_beta     93.2629
_cell_angle_gamma    90.0004

_space_group_name_H-M_alt    "P 1"
_space_group_IT_number       1

loop_
  _space_group_symop_operation_xyz
  'x, y, z'

loop_
  _atom_site_type_symbol
  _atom_site_label
  _atom_site_symmetry_multiplicity
  _atom_site_fract_x
  _atom_site_fract_y
  _atom_site_fract_z
  _atom_site_occupancy
  Hg  Hg1       1.0  0.39888  0.83240  0.02727  1.0000
  Hg  Hg2       1.0  0.60112  0.33240  0.47272  1.0000
  Hg  Hg3       1.0  0.60112  0.16760  0.97273  1.0000
  Hg  Hg4       1.0  0.39889  0.66760  0.52728  1.0000
  H   H1        1.0  0.10663  0.41585  0.86829  1.0000
  H   H2        1.0  0.89335  0.91586  0.63169  1.0000
  H   H3        1.0  0.89337  0.58415  0.13170  1.0000
  H   H4        1.0  0.10662  0.08415  0.36830  1.0000
  H   H5        1.0  0.31207  0.54375  0.96461  1.0000
  H   H6        1.0  0.68792  0.04377  0.53539  1.0000
  H   H7        1.0  0.68793  0.45625  0.03539  1.0000
  H   H8        1.0  0.31207  0.95625  0.46461  1.0000
  H   H9        1.0  0.91366  0.80889  0.97097  1.0000
  H   H10       1.0  0.08635  0.30890  0.52903  1.0000
  H   H11       1.0  0.08634  0.19111  0.02903  1.0000
  H   H12       1.0  0.91366  0.69110  0.47097  1.0000
  H   H13       1.0  0.34260  0.81294  0.82173  1.0000
  H   H14       1.0  0.65742  0.31294  0.67827  1.0000
  H   H15       1.0  0.65742  0.18707  0.17826  1.0000
  H   H16       1.0  0.34258  0.68706  0.32174  1.0000
  H   H17       1.0  0.04278  0.83056  0.74764  1.0000
  H   H18       1.0  0.95724  0.33056  0.75236  1.0000
  H   H19       1.0  0.95724  0.16945  0.25235  1.0000
  H   H20       1.0  0.04276  0.66944  0.24764  1.0000
  H   H21       1.0  0.92260  0.66450  0.65152  1.0000
  H   H22       1.0  0.07740  0.16449  0.84848  1.0000
  H   H23       1.0  0.07741  0.33551  0.34848  1.0000
  H   H24       1.0  0.92260  0.83550  0.15152  1.0000
  H   H25       1.0  0.11277  0.48141  0.63053  1.0000
  H   H26       1.0  0.88722  0.98141  0.86946  1.0000
  H   H27       1.0  0.88724  0.51859  0.36947  1.0000
  H   H28       1.0  0.11278  0.01858  0.13053  1.0000
  H   H29       1.0  0.41289  0.46233  0.70536  1.0000
  H   H30       1.0  0.58709  0.96233  0.79464  1.0000
  H   H31       1.0  0.58711  0.53767  0.29465  1.0000
  H   H32       1.0  0.41291  0.03766  0.20535  1.0000
  H   H33       1.0  0.63619  0.54096  0.79920  1.0000
  H   H34       1.0  0.36381  0.04096  0.70081  1.0000
  H   H35       1.0  0.36381  0.45904  0.20081  1.0000
  H   H36       1.0  0.63619  0.95903  0.29920  1.0000
  C   C1        1.0  0.06248  0.50395  0.89062  1.0000
  C   C2        1.0  0.93750  0.00396  0.60938  1.0000
  C   C3        1.0  0.93752  0.49605  0.10938  1.0000
  C   C4        1.0  0.06248  0.99605  0.39062  1.0000
  C   C5        1.0  0.17674  0.57476  0.94427  1.0000
  C   C6        1.0  0.82324  0.07478  0.55573  1.0000
  C   C7        1.0  0.82326  0.42523  0.05573  1.0000
  C   C8        1.0  0.17674  0.92523  0.44427  1.0000
  C   C9        1.0  0.95835  0.72112  0.94798  1.0000
  C   C10       1.0  0.04165  0.22113  0.55202  1.0000
  C   C11       1.0  0.04165  0.27888  0.05202  1.0000
  C   C12       1.0  0.95835  0.77887  0.44798  1.0000
  C   C13       1.0  0.84566  0.65024  0.89342  1.0000
  C   C14       1.0  0.15434  0.15024  0.60658  1.0000
  C   C15       1.0  0.15434  0.34977  0.10658  1.0000
  C   C16       1.0  0.84566  0.84976  0.39342  1.0000
  C   C17       1.0  0.66285  0.69653  0.86403  1.0000
  C   C18       1.0  0.33714  0.19653  0.63597  1.0000
  C   C19       1.0  0.33714  0.30347  0.13597  1.0000
  C   C20       1.0  0.66285  0.80347  0.36403  1.0000
  C   C21       1.0  0.39800  0.63637  0.76917  1.0000
  C   C22       1.0  0.60200  0.13638  0.73083  1.0000
  C   C23       1.0  0.60201  0.36363  0.23083  1.0000
  C   C24       1.0  0.39800  0.86362  0.26917  1.0000
  C   C25       1.0  0.29246  0.74045  0.78012  1.0000
  C   C26       1.0  0.70754  0.24046  0.71988  1.0000
  C   C27       1.0  0.70755  0.25955  0.21988  1.0000
  C   C28       1.0  0.29245  0.75954  0.28012  1.0000
  C   C29       1.0  0.12277  0.74941  0.73770  1.0000
  C   C30       1.0  0.87723  0.24941  0.76230  1.0000
  C   C31       1.0  0.87724  0.25060  0.26229  1.0000
  C   C32       1.0  0.12277  0.75059  0.23770  1.0000
  C   C33       1.0  0.05597  0.65709  0.68401  1.0000
  C   C34       1.0  0.94403  0.15709  0.81600  1.0000
  C   C35       1.0  0.94404  0.34291  0.31599  1.0000
  C   C36       1.0  0.05597  0.84290  0.18400  1.0000
  C   C37       1.0  0.16206  0.55404  0.67269  1.0000
  C   C38       1.0  0.83793  0.05404  0.82731  1.0000
  C   C39       1.0  0.83794  0.44596  0.32731  1.0000
  C   C40       1.0  0.16207  0.94595  0.17268  1.0000
  C   C41       1.0  0.33206  0.54323  0.71496  1.0000
  C   C42       1.0  0.66792  0.04323  0.78503  1.0000
  C   C43       1.0  0.66794  0.45677  0.28504  1.0000
  C   C44       1.0  0.33207  0.95676  0.21496  1.0000
  N   N1        1.0  0.89761  0.54184  0.86473  1.0000
  N   N2        1.0  0.10238  0.04184  0.63527  1.0000
  N   N3        1.0  0.10239  0.45816  0.13527  1.0000
  N   N4        1.0  0.89761  0.95816  0.36473  1.0000
  N   N5        1.0  0.12451  0.68293  0.97268  1.0000
  N   N6        1.0  0.87549  0.18295  0.52732  1.0000
  N   N7        1.0  0.87550  0.31707  0.02732  1.0000
  N   N8        1.0  0.12451  0.81706  0.47268  1.0000
  N   N9        1.0  0.56935  0.62021  0.81011  1.0000
  N   N10       1.0  0.43065  0.12022  0.68989  1.0000
  N   N11       1.0  0.43066  0.37979  0.18989  1.0000
  N   N12       1.0  0.56934  0.87978  0.31011  1.0000
  Cl  Cl1       1.0  0.55148  0.67632  0.10309  1.0000
  Cl  Cl2       1.0  0.44852  0.17631  0.39691  1.0000
  Cl  Cl3       1.0  0.44853  0.32369  0.89691  1.0000
  Cl  Cl4       1.0  0.55147  0.82369  0.60309  1.0000
  Cl  Cl5       1.0  0.26076  0.99104  0.94677  1.0000
  Cl  Cl6       1.0  0.73925  0.49104  0.55323  1.0000
  Cl  Cl7       1.0  0.73926  0.00897  0.05323  1.0000
  Cl  Cl8       1.0  0.26074  0.50896  0.44678  1.0000
  O   O1        1.0  0.60962  0.79720  0.88836  1.0000
  O   O2        1.0  0.39038  0.29720  0.61164  1.0000
  O   O3        1.0  0.39037  0.20280  0.11165  1.0000
  O   O4        1.0  0.60962  0.70280  0.38837  1.0000
