data_image0
_chemical_formula_structural       Hg2H16C22I4Br2N6O2
_chemical_formula_sum              "Hg2 H16 C22 I4 Br2 N6 O2"
_cell_length_a       6.72342
_cell_length_b       7.46686
_cell_length_c       17.9013
_cell_angle_alpha    100.992
_cell_angle_beta     90.0769
_cell_angle_gamma    116.625

_space_group_name_H-M_alt    "P 1"
_space_group_IT_number       1

loop_
  _space_group_symop_operation_xyz
  'x, y, z'

loop_
  _atom_site_type_symbol
  _atom_site_label
  _atom_site_symmetry_multiplicity
  _atom_site_fract_x
  _atom_site_fract_y
  _atom_site_fract_z
  _atom_site_occupancy
  Hg  Hg1       1.0  0.15798  0.31480  0.94515  1.0000
  Hg  Hg2       1.0  0.84200  0.68521  0.05486  1.0000
  H   H1        1.0  0.48917  0.97805  0.80634  1.0000
  H   H2        1.0  0.51083  0.02194  0.19366  1.0000
  H   H3        1.0  0.39011  0.78039  0.91210  1.0000
  H   H4        1.0  0.60989  0.21960  0.08790  1.0000
  H   H5        1.0  0.11538  0.23104  0.74921  1.0000
  H   H6        1.0  0.88461  0.76895  0.25079  1.0000
  H   H7        1.0  0.40681  0.81693  0.49658  1.0000
  H   H8        1.0  0.59320  0.18307  0.50342  1.0000
  H   H9        1.0  0.20906  0.42054  0.27174  1.0000
  H   H10       1.0  0.79094  0.57948  0.72826  1.0000
  H   H11       1.0  0.05799  0.11578  0.33245  1.0000
  H   H12       1.0  0.94200  0.88423  0.66754  1.0000
  H   H13       1.0  0.08046  0.15876  0.47241  1.0000
  H   H14       1.0  0.91953  0.84124  0.52759  1.0000
  H   H15       1.0  0.34010  0.68146  0.60127  1.0000
  H   H16       1.0  0.65990  0.31854  0.39873  1.0000
  C   C1        1.0  0.40540  0.81065  0.79333  1.0000
  C   C2        1.0  0.59459  0.18933  0.20667  1.0000
  C   C3        1.0  0.35088  0.70192  0.85200  1.0000
  C   C4        1.0  0.64912  0.29807  0.14800  1.0000
  C   C5        1.0  0.19908  0.39823  0.76214  1.0000
  C   C6        1.0  0.80092  0.60176  0.23786  1.0000
  C   C7        1.0  0.25460  0.50859  0.70406  1.0000
  C   C8        1.0  0.74540  0.49139  0.29594  1.0000
  C   C9        1.0  0.19957  0.39770  0.62138  1.0000
  C   C10       1.0  0.80044  0.60228  0.37861  1.0000
  C   C11       1.0  0.24543  0.49108  0.49356  1.0000
  C   C12       1.0  0.75457  0.50892  0.50644  1.0000
  C   C13       1.0  0.33078  0.66354  0.46022  1.0000
  C   C14       1.0  0.66924  0.33647  0.53978  1.0000
  C   C15       1.0  0.31654  0.63555  0.38112  1.0000
  C   C16       1.0  0.68346  0.36446  0.61888  1.0000
  C   C17       1.0  0.21918  0.44005  0.33372  1.0000
  C   C18       1.0  0.78082  0.55997  0.66628  1.0000
  C   C19       1.0  0.13513  0.27041  0.36788  1.0000
  C   C20       1.0  0.86486  0.72959  0.63212  1.0000
  C   C21       1.0  0.14676  0.29270  0.44711  1.0000
  C   C22       1.0  0.85324  0.70730  0.55289  1.0000
  I   I1        1.0  0.32385  0.64764  0.06331  1.0000
  I   I2        1.0  0.67616  0.35237  0.93669  1.0000
  I   I3        1.0  0.95989  0.92062  0.87324  1.0000
  I   I4        1.0  0.04008  0.07939  0.12678  1.0000
  Br  Br1       1.0  0.43427  0.87277  0.33770  1.0000
  Br  Br2       1.0  0.56574  0.12725  0.66230  1.0000
  N   N1        1.0  0.35778  0.71506  0.72013  1.0000
  N   N2        1.0  0.64222  0.28492  0.27987  1.0000
  N   N3        1.0  0.24836  0.49709  0.83589  1.0000
  N   N4        1.0  0.75163  0.50290  0.16411  1.0000
  N   N5        1.0  0.26542  0.53079  0.57331  1.0000
  N   N6        1.0  0.73459  0.46921  0.42669  1.0000
  O   O1        1.0  0.10581  0.20830  0.60318  1.0000
  O   O2        1.0  0.89423  0.79170  0.39682  1.0000
