data_image0
_chemical_formula_structural       Hg2H16C22I6N6O2
_chemical_formula_sum              "Hg2 H16 C22 I6 N6 O2"
_cell_length_a       6.71715
_cell_length_b       7.62486
_cell_length_c       17.8042
_cell_angle_alpha    102.232
_cell_angle_beta     89.9367
_cell_angle_gamma    116.154

_space_group_name_H-M_alt    "P 1"
_space_group_IT_number       1

loop_
  _space_group_symop_operation_xyz
  'x, y, z'

loop_
  _atom_site_type_symbol
  _atom_site_label
  _atom_site_symmetry_multiplicity
  _atom_site_fract_x
  _atom_site_fract_y
  _atom_site_fract_z
  _atom_site_occupancy
  Hg  Hg1       1.0  0.84230  0.68593  0.55420  1.0000
  Hg  Hg2       1.0  0.15769  0.31408  0.44580  1.0000
  H   H1        1.0  0.51905  0.03533  0.68618  1.0000
  H   H2        1.0  0.48094  0.96468  0.31382  1.0000
  H   H3        1.0  0.61645  0.23169  0.58271  1.0000
  H   H4        1.0  0.38355  0.76830  0.41728  1.0000
  H   H5        1.0  0.88289  0.76686  0.75279  1.0000
  H   H6        1.0  0.11712  0.23314  0.24721  1.0000
  H   H7        1.0  0.59843  0.19568  0.00232  1.0000
  H   H8        1.0  0.40158  0.80432  0.99768  1.0000
  H   H9        1.0  0.79631  0.59004  0.23103  1.0000
  H   H10       1.0  0.20368  0.40995  0.76897  1.0000
  H   H11       1.0  0.94324  0.88532  0.17149  1.0000
  H   H12       1.0  0.05675  0.11468  0.82851  1.0000
  H   H13       1.0  0.91949  0.83969  0.02997  1.0000
  H   H14       1.0  0.08050  0.16031  0.97003  1.0000
  H   H15       1.0  0.66268  0.32461  0.89791  1.0000
  H   H16       1.0  0.33731  0.67539  0.10210  1.0000
  C   C1        1.0  0.60046  0.19922  0.70146  1.0000
  C   C2        1.0  0.39953  0.80077  0.29854  1.0000
  C   C3        1.0  0.65407  0.30726  0.64395  1.0000
  C   C4        1.0  0.34593  0.69275  0.35605  1.0000
  C   C5        1.0  0.80130  0.60311  0.73766  1.0000
  C   C6        1.0  0.19871  0.39689  0.26234  1.0000
  C   C7        1.0  0.74647  0.49354  0.79474  1.0000
  C   C8        1.0  0.25354  0.50646  0.20527  1.0000
  C   C9        1.0  0.80027  0.60223  0.87882  1.0000
  C   C10       1.0  0.19971  0.39777  0.12118  1.0000
  C   C11       1.0  0.75721  0.51422  0.00712  1.0000
  C   C12       1.0  0.24279  0.48578  0.99289  1.0000
  C   C13       1.0  0.67370  0.34643  0.04000  1.0000
  C   C14       1.0  0.32631  0.65356  0.96000  1.0000
  C   C15       1.0  0.68831  0.37507  0.11995  1.0000
  C   C16       1.0  0.31169  0.62493  0.88005  1.0000
  C   C17       1.0  0.78495  0.56820  0.16843  1.0000
  C   C18       1.0  0.21504  0.43180  0.83157  1.0000
  C   C19       1.0  0.86723  0.73331  0.13484  1.0000
  C   C20       1.0  0.13277  0.26669  0.86517  1.0000
  C   C21       1.0  0.85473  0.70948  0.05488  1.0000
  C   C22       1.0  0.14526  0.29053  0.94512  1.0000
  I   I1        1.0  0.68156  0.36327  0.43142  1.0000
  I   I2        1.0  0.31845  0.63674  0.56858  1.0000
  I   I3        1.0  0.03777  0.07401  0.62718  1.0000
  I   I4        1.0  0.96223  0.92599  0.37282  1.0000
  I   I5        1.0  0.56053  0.11955  0.16683  1.0000
  I   I6        1.0  0.43950  0.88045  0.83317  1.0000
  N   N1        1.0  0.64585  0.29112  0.77615  1.0000
  N   N2        1.0  0.35414  0.70888  0.22384  1.0000
  N   N3        1.0  0.75394  0.50796  0.66251  1.0000
  N   N4        1.0  0.24606  0.49204  0.33749  1.0000
  N   N5        1.0  0.73630  0.47294  0.92647  1.0000
  N   N6        1.0  0.26370  0.52705  0.07353  1.0000
  O   O1        1.0  0.89242  0.78802  0.89855  1.0000
  O   O2        1.0  0.10759  0.21198  0.10145  1.0000
