data_image0
_chemical_formula_structural       K2H30C38N4
_chemical_formula_sum              "K2 H30 C38 N4"
_cell_length_a       6.94695
_cell_length_b       9.84698
_cell_length_c       12.5153
_cell_angle_alpha    113.208
_cell_angle_beta     89.9997
_cell_angle_gamma    89.9998

_space_group_name_H-M_alt    "P 1"
_space_group_IT_number       1

loop_
  _space_group_symop_operation_xyz
  'x, y, z'

loop_
  _atom_site_type_symbol
  _atom_site_label
  _atom_site_symmetry_multiplicity
  _atom_site_fract_x
  _atom_site_fract_y
  _atom_site_fract_z
  _atom_site_occupancy
  K   K1        1.0  0.61942  0.89459  0.99980  1.0000
  K   K2        1.0  0.11942  0.10540  0.00020  1.0000
  H   H1        1.0  0.49470  0.08634  0.55089  1.0000
  H   H2        1.0  0.99470  0.91367  0.44910  1.0000
  H   H3        1.0  0.49546  0.53555  0.44932  1.0000
  H   H4        1.0  0.99547  0.46446  0.55068  1.0000
  H   H5        1.0  0.30728  0.26231  0.49061  1.0000
  H   H6        1.0  0.80726  0.73770  0.50937  1.0000
  H   H7        1.0  0.30793  0.77188  0.50983  1.0000
  H   H8        1.0  0.80794  0.22814  0.49018  1.0000
  H   H9        1.0  0.19412  0.18653  0.28879  1.0000
  H   H10       1.0  0.69411  0.81347  0.71120  1.0000
  H   H11       1.0  0.19417  0.89765  0.71155  1.0000
  H   H12       1.0  0.69418  0.10235  0.28846  1.0000
  H   H13       1.0  0.44696  0.75638  0.20143  1.0000
  H   H14       1.0  0.94697  0.24362  0.79857  1.0000
  H   H15       1.0  0.44634  0.55436  0.79839  1.0000
  H   H16       1.0  0.94634  0.44564  0.20160  1.0000
  H   H17       1.0  0.56722  0.83495  0.40460  1.0000
  H   H18       1.0  0.06722  0.16505  0.59540  1.0000
  H   H19       1.0  0.56700  0.42990  0.59527  1.0000
  H   H20       1.0  0.06701  0.57010  0.40472  1.0000
  H   H21       1.0  0.67793  0.49194  0.00017  1.0000
  H   H22       1.0  0.17794  0.50806  0.99984  1.0000
  H   H23       1.0  0.78875  0.65806  0.18378  1.0000
  H   H24       1.0  0.28876  0.34193  0.81623  1.0000
  H   H25       1.0  0.78818  0.47442  0.81651  1.0000
  H   H26       1.0  0.28818  0.52558  0.18349  1.0000
  H   H27       1.0  0.02653  0.83440  0.22844  1.0000
  H   H28       1.0  0.52653  0.16559  0.77156  1.0000
  H   H29       1.0  0.02615  0.60587  0.77178  1.0000
  H   H30       1.0  0.52614  0.39412  0.22822  1.0000
  C   C1        1.0  0.44304  0.05309  0.46190  1.0000
  C   C2        1.0  0.94303  0.94692  0.53809  1.0000
  C   C3        1.0  0.44340  0.59111  0.53824  1.0000
  C   C4        1.0  0.94341  0.40890  0.46175  1.0000
  C   C5        1.0  0.33869  0.15078  0.42808  1.0000
  C   C6        1.0  0.83869  0.84922  0.57191  1.0000
  C   C7        1.0  0.33908  0.72273  0.57224  1.0000
  C   C8        1.0  0.83909  0.27728  0.42777  1.0000
  C   C9        1.0  0.27446  0.10854  0.31379  1.0000
  C   C10       1.0  0.77445  0.89146  0.68620  1.0000
  C   C11       1.0  0.27452  0.79463  0.68646  1.0000
  C   C12       1.0  0.77454  0.20538  0.31354  1.0000
  C   C13       1.0  0.31114  0.96540  0.23094  1.0000
  C   C14       1.0  0.81114  0.03460  0.76906  1.0000
  C   C15       1.0  0.31093  0.73417  0.76917  1.0000
  C   C16       1.0  0.81094  0.26583  0.23083  1.0000
  C   C17       1.0  0.41644  0.86708  0.26592  1.0000
  C   C18       1.0  0.91644  0.13292  0.73408  1.0000
  C   C19       1.0  0.41610  0.60075  0.73403  1.0000
  C   C20       1.0  0.91610  0.39924  0.26597  1.0000
  C   C21       1.0  0.48296  0.91118  0.37963  1.0000
  C   C22       1.0  0.98295  0.08883  0.62036  1.0000
  C   C23       1.0  0.48289  0.53122  0.62033  1.0000
  C   C24       1.0  0.98290  0.46878  0.37966  1.0000
  C   C25       1.0  0.79303  0.56687  0.00017  1.0000
  C   C26       1.0  0.29303  0.43313  0.99984  1.0000
  C   C27       1.0  0.86023  0.66541  0.10834  1.0000
  C   C28       1.0  0.36023  0.33459  0.89167  1.0000
  C   C29       1.0  0.85993  0.55714  0.89196  1.0000
  C   C30       1.0  0.35992  0.44284  0.10805  1.0000
  C   C31       1.0  0.00346  0.77256  0.13541  1.0000
  C   C32       1.0  0.50345  0.22744  0.86459  1.0000
  C   C33       1.0  0.00317  0.63713  0.86482  1.0000
  C   C34       1.0  0.50317  0.36286  0.13518  1.0000
  C   C35       1.0  0.13020  0.81767  0.06540  1.0000
  C   C36       1.0  0.63021  0.18233  0.93460  1.0000
  C   C37       1.0  0.13017  0.75219  0.93476  1.0000
  C   C38       1.0  0.63017  0.24779  0.06524  1.0000
  N   N1        1.0  0.26218  0.92189  0.11336  1.0000
  N   N2        1.0  0.76219  0.07810  0.88663  1.0000
  N   N3        1.0  0.26213  0.80837  0.88676  1.0000
  N   N4        1.0  0.76214  0.19163  0.11324  1.0000
