data_image0
_chemical_formula_structural       Na8P4H76C32S16O8
_chemical_formula_sum              "Na8 P4 H76 C32 S16 O8"
_cell_length_a       10.7847
_cell_length_b       11.6933
_cell_length_c       13.551
_cell_angle_alpha    89.659
_cell_angle_beta     82.8056
_cell_angle_gamma    83.5514

_space_group_name_H-M_alt    "P 1"
_space_group_IT_number       1

loop_
  _space_group_symop_operation_xyz
  'x, y, z'

loop_
  _atom_site_type_symbol
  _atom_site_label
  _atom_site_symmetry_multiplicity
  _atom_site_fract_x
  _atom_site_fract_y
  _atom_site_fract_z
  _atom_site_occupancy
  Na  Na1       1.0  0.63700  0.90339  0.52121  1.0000
  Na  Na2       1.0  0.36300  0.09661  0.47879  1.0000
  Na  Na3       1.0  0.51265  0.77248  0.21610  1.0000
  Na  Na4       1.0  0.48735  0.22752  0.78390  1.0000
  Na  Na5       1.0  0.49259  0.27574  0.28214  1.0000
  Na  Na6       1.0  0.50741  0.72426  0.71786  1.0000
  Na  Na7       1.0  0.64101  0.56564  0.02281  1.0000
  Na  Na8       1.0  0.35899  0.43436  0.97719  1.0000
  P   P1        1.0  0.60837  0.01221  0.30212  1.0000
  P   P2        1.0  0.39163  0.98779  0.69788  1.0000
  P   P3        1.0  0.39413  0.53528  0.19569  1.0000
  P   P4        1.0  0.60587  0.46472  0.80431  1.0000
  H   H1        1.0  0.02035  0.04918  0.18180  1.0000
  H   H2        1.0  0.97965  0.95082  0.81820  1.0000
  H   H3        1.0  0.91963  0.95145  0.14480  1.0000
  H   H4        1.0  0.08037  0.04855  0.85520  1.0000
  H   H5        1.0  0.89842  0.00246  0.26916  1.0000
  H   H6        1.0  0.10158  0.99754  0.73084  1.0000
  H   H7        1.0  0.93688  0.25768  0.22274  1.0000
  H   H8        1.0  0.06312  0.74232  0.77726  1.0000
  H   H9        1.0  0.81242  0.21249  0.30860  1.0000
  H   H10       1.0  0.18758  0.78751  0.69140  1.0000
  H   H11       1.0  0.77705  0.30768  0.21059  1.0000
  H   H12       1.0  0.22295  0.69232  0.78941  1.0000
  H   H13       1.0  0.96608  0.18606  0.04316  1.0000
  H   H14       1.0  0.03392  0.81394  0.95684  1.0000
  H   H15       1.0  0.80585  0.23189  0.02941  1.0000
  H   H16       1.0  0.19415  0.76811  0.97059  1.0000
  H   H17       1.0  0.86860  0.08613  0.00428  1.0000
  H   H18       1.0  0.13140  0.91387  0.99572  1.0000
  H   H19       1.0  0.97917  0.66094  0.30693  1.0000
  H   H20       1.0  0.02083  0.33906  0.69307  1.0000
  H   H21       1.0  0.07546  0.54222  0.35083  1.0000
  H   H22       1.0  0.92454  0.45778  0.64917  1.0000
  H   H23       1.0  0.10255  0.58389  0.22481  1.0000
  H   H24       1.0  0.89745  0.41611  0.77519  1.0000
  H   H25       1.0  0.06475  0.84741  0.26348  1.0000
  H   H26       1.0  0.93525  0.15259  0.73652  1.0000
  H   H27       1.0  0.19004  0.77498  0.18018  1.0000
  H   H28       1.0  0.80996  0.22502  0.81982  1.0000
  H   H29       1.0  0.22430  0.86524  0.27607  1.0000
  H   H30       1.0  0.77570  0.13476  0.72393  1.0000
  H   H31       1.0  0.03236  0.78894  0.44427  1.0000
  H   H32       1.0  0.96764  0.21106  0.55573  1.0000
  H   H33       1.0  0.19326  0.80001  0.45861  1.0000
  H   H34       1.0  0.80674  0.19999  0.54139  1.0000
  H   H35       1.0  0.12796  0.66908  0.48747  1.0000
  H   H36       1.0  0.87204  0.33092  0.51253  1.0000
  H   H37       1.0  0.59391  0.53830  0.51956  1.0000
  H   H38       1.0  0.40609  0.46170  0.48044  1.0000
  H   H39       1.0  0.62845  0.63105  0.41535  1.0000
  H   H40       1.0  0.37155  0.36895  0.58465  1.0000
  H   H41       1.0  0.48812  0.66466  0.49993  1.0000
  H   H42       1.0  0.51188  0.33534  0.50007  1.0000
  H   H43       1.0  0.82233  0.64947  0.47245  1.0000
  H   H44       1.0  0.17767  0.35053  0.52755  1.0000
  H   H45       1.0  0.78964  0.56957  0.58485  1.0000
  H   H46       1.0  0.21036  0.43043  0.41515  1.0000
  H   H47       1.0  0.79725  0.75014  0.68396  1.0000
  H   H48       1.0  0.20275  0.24986  0.31605  1.0000
  H   H49       1.0  0.94286  0.69986  0.61125  1.0000
  H   H50       1.0  0.05714  0.30014  0.38875  1.0000
  H   H51       1.0  0.00432  0.89598  0.60672  1.0000
  H   H52       1.0  0.99568  0.10402  0.39328  1.0000
  H   H53       1.0  0.85841  0.94096  0.68292  1.0000
  H   H54       1.0  0.14159  0.05904  0.31708  1.0000
  H   H55       1.0  0.89443  0.00692  0.56479  1.0000
  H   H56       1.0  0.10557  0.99308  0.43521  1.0000
  H   H57       1.0  0.60061  0.94144  0.01361  1.0000
  H   H58       1.0  0.39939  0.05856  0.98639  1.0000
  H   H59       1.0  0.62536  0.83837  0.91264  1.0000
  H   H60       1.0  0.37464  0.16163  0.08736  1.0000
  H   H61       1.0  0.48974  0.83905  0.00314  1.0000
  H   H62       1.0  0.51026  0.16095  0.99686  1.0000
  H   H63       1.0  0.82275  0.77477  0.96204  1.0000
  H   H64       1.0  0.17725  0.22523  0.03796  1.0000
  H   H65       1.0  0.79990  0.86934  0.06852  1.0000
  H   H66       1.0  0.20010  0.13066  0.93147  1.0000
  H   H67       1.0  0.81145  0.69642  0.17962  1.0000
  H   H68       1.0  0.18855  0.30358  0.82038  1.0000
  H   H69       1.0  0.95300  0.70808  0.09804  1.0000
  H   H70       1.0  0.04700  0.29192  0.90196  1.0000
  H   H71       1.0  0.01030  0.49785  0.10539  1.0000
  H   H72       1.0  0.98970  0.50215  0.89461  1.0000
  H   H73       1.0  0.86891  0.49091  0.19057  1.0000
  H   H74       1.0  0.13109  0.50909  0.80943  1.0000
  H   H75       1.0  0.89398  0.41001  0.07654  1.0000
  H   H76       1.0  0.10602  0.58999  0.92345  1.0000
  C   C1        1.0  0.83590  0.13011  0.16275  1.0000
  C   C2        1.0  0.16410  0.86989  0.83725  1.0000
  C   C3        1.0  0.92303  0.02700  0.19152  1.0000
  C   C4        1.0  0.07697  0.97299  0.80849  1.0000
  C   C5        1.0  0.84031  0.23327  0.23042  1.0000
  C   C6        1.0  0.15969  0.76673  0.76958  1.0000
  C   C7        1.0  0.87027  0.16036  0.05327  1.0000
  C   C8        1.0  0.12973  0.83964  0.94673  1.0000
  C   C9        1.0  0.16346  0.70146  0.32834  1.0000
  C   C10       1.0  0.83654  0.29854  0.67166  1.0000
  C   C11       1.0  0.07551  0.61658  0.30101  1.0000
  C   C12       1.0  0.92449  0.38342  0.69899  1.0000
  C   C13       1.0  0.16111  0.80344  0.25746  1.0000
  C   C14       1.0  0.83889  0.19656  0.74254  1.0000
  C   C15       1.0  0.12762  0.74239  0.43626  1.0000
  C   C16       1.0  0.87238  0.25761  0.56374  1.0000
  C   C17       1.0  0.58683  0.62788  0.49368  1.0000
  C   C18       1.0  0.41318  0.37212  0.50632  1.0000
  C   C19       1.0  0.78009  0.65562  0.55114  1.0000
  C   C20       1.0  0.21991  0.34437  0.44886  1.0000
  C   C21       1.0  0.84489  0.73727  0.60721  1.0000
  C   C22       1.0  0.15511  0.26273  0.39279  1.0000
  C   C23       1.0  0.90383  0.92614  0.60588  1.0000
  C   C24       1.0  0.09617  0.07385  0.39412  1.0000
  C   C25       1.0  0.58921  0.85312  0.99173  1.0000
  C   C26       1.0  0.41079  0.14688  0.00827  1.0000
  C   C27       1.0  0.78585  0.78337  0.04188  1.0000
  C   C28       1.0  0.21415  0.21663  0.95812  1.0000
  C   C29       1.0  0.85350  0.69214  0.10094  1.0000
  C   C30       1.0  0.14650  0.30786  0.89906  1.0000
  C   C31       1.0  0.90868  0.49082  0.11148  1.0000
  C   C32       1.0  0.09132  0.50918  0.88852  1.0000
  S   S1        1.0  0.69913  0.85381  0.31486  1.0000
  S   S2        1.0  0.30087  0.14619  0.68514  1.0000
  S   S3        1.0  0.62556  0.11614  0.41823  1.0000
  S   S4        1.0  0.37444  0.88386  0.58177  1.0000
  S   S5        1.0  0.42719  0.01222  0.27485  1.0000
  S   S6        1.0  0.57281  0.98778  0.72515  1.0000
  S   S7        1.0  0.67072  0.09495  0.16587  1.0000
  S   S8        1.0  0.32928  0.90505  0.83413  1.0000
  S   S9        1.0  0.57412  0.49878  0.22670  1.0000
  S   S10       1.0  0.42588  0.50121  0.77330  1.0000
  S   S11       1.0  0.38015  0.64178  0.07766  1.0000
  S   S12       1.0  0.61985  0.35823  0.92234  1.0000
  S   S13       1.0  0.30436  0.39505  0.18334  1.0000
  S   S14       1.0  0.69564  0.60495  0.81666  1.0000
  S   S15       1.0  0.32761  0.63137  0.32961  1.0000
  S   S16       1.0  0.67239  0.36863  0.67039  1.0000
  O   O1        1.0  0.64880  0.69707  0.55556  1.0000
  O   O2        1.0  0.35120  0.30293  0.44444  1.0000
  O   O3        1.0  0.84336  0.84503  0.55626  1.0000
  O   O4        1.0  0.15664  0.15497  0.44374  1.0000
  O   O5        1.0  0.65369  0.77168  0.05340  1.0000
  O   O6        1.0  0.34631  0.22832  0.94660  1.0000
  O   O7        1.0  0.84542  0.58154  0.05933  1.0000
  O   O8        1.0  0.15458  0.41845  0.94067  1.0000
