data_image0
_chemical_formula_structural       Zn2H28C20S8N4O4
_chemical_formula_sum              "Zn2 H28 C20 S8 N4 O4"
_cell_length_a       7.17215
_cell_length_b       7.6854
_cell_length_c       16.2059
_cell_angle_alpha    89.9999
_cell_angle_beta     90
_cell_angle_gamma    117.86

_space_group_name_H-M_alt    "P 1"
_space_group_IT_number       1

loop_
  _space_group_symop_operation_xyz
  'x, y, z'

loop_
  _atom_site_type_symbol
  _atom_site_label
  _atom_site_symmetry_multiplicity
  _atom_site_fract_x
  _atom_site_fract_y
  _atom_site_fract_z
  _atom_site_occupancy
  Zn  Zn1       1.0  0.50000  0.00000  0.50000  1.0000
  Zn  Zn2       1.0  0.00000  0.00000  1.00000  1.0000
  H   H1        1.0  0.46966  0.18717  0.20073  1.0000
  H   H2        1.0  0.03033  0.81282  0.70073  1.0000
  H   H3        1.0  0.21741  0.18692  0.29936  1.0000
  H   H4        1.0  0.28258  0.81307  0.79936  1.0000
  H   H5        1.0  0.53033  0.81282  0.79927  1.0000
  H   H6        1.0  0.96966  0.18717  0.29927  1.0000
  H   H7        1.0  0.78258  0.81307  0.70064  1.0000
  H   H8        1.0  0.71741  0.18692  0.20064  1.0000
  H   H9        1.0  0.70324  0.40601  0.08678  1.0000
  H   H10       1.0  0.79675  0.59399  0.58678  1.0000
  H   H11       1.0  0.20324  0.40601  0.41322  1.0000
  H   H12       1.0  0.29675  0.59399  0.91322  1.0000
  H   H13       1.0  0.89823  0.54647  0.16111  1.0000
  H   H14       1.0  0.60177  0.45352  0.66111  1.0000
  H   H15       1.0  0.14910  0.54650  0.33887  1.0000
  H   H16       1.0  0.35090  0.45349  0.83887  1.0000
  H   H17       1.0  0.10176  0.45352  0.83889  1.0000
  H   H18       1.0  0.39823  0.54647  0.33889  1.0000
  H   H19       1.0  0.85090  0.45349  0.66113  1.0000
  H   H20       1.0  0.64910  0.54650  0.16113  1.0000
  H   H21       1.0  0.29832  0.24387  0.57758  1.0000
  H   H22       1.0  0.20168  0.75614  0.07758  1.0000
  H   H23       1.0  0.44605  0.24419  0.92261  1.0000
  H   H24       1.0  0.05396  0.75581  0.42262  1.0000
  H   H25       1.0  0.70168  0.75614  0.42243  1.0000
  H   H26       1.0  0.79832  0.24386  0.92242  1.0000
  H   H27       1.0  0.55396  0.75582  0.07739  1.0000
  H   H28       1.0  0.94605  0.24419  0.57739  1.0000
  C   C1        1.0  0.61754  0.23472  0.35631  1.0000
  C   C2        1.0  0.88246  0.76528  0.85631  1.0000
  C   C3        1.0  0.11754  0.23472  0.14369  1.0000
  C   C4        1.0  0.38246  0.76528  0.64369  1.0000
  C   C5        1.0  0.64057  0.28075  0.20821  1.0000
  C   C6        1.0  0.85943  0.71925  0.70821  1.0000
  C   C7        1.0  0.14057  0.28074  0.29179  1.0000
  C   C8        1.0  0.35943  0.71925  0.79179  1.0000
  C   C9        1.0  0.72830  0.45589  0.15112  1.0000
  C   C10       1.0  0.77170  0.54411  0.65112  1.0000
  C   C11       1.0  0.22830  0.45589  0.34888  1.0000
  C   C12       1.0  0.27170  0.54411  0.84888  1.0000
  C   C13       1.0  0.16421  0.13400  0.54342  1.0000
  C   C14       1.0  0.33582  0.86602  0.04341  1.0000
  C   C15       1.0  0.47002  0.13420  0.95668  1.0000
  C   C16       1.0  0.02997  0.86583  0.45670  1.0000
  C   C17       1.0  0.83583  0.86602  0.45659  1.0000
  C   C18       1.0  0.66421  0.13400  0.95658  1.0000
  C   C19       1.0  0.52997  0.86582  0.04331  1.0000
  C   C20       1.0  0.97003  0.13421  0.54332  1.0000
  S   S1        1.0  0.49335  0.98700  0.34335  1.0000
  S   S2        1.0  0.00665  0.01299  0.84334  1.0000
  S   S3        1.0  0.99335  0.98700  0.15666  1.0000
  S   S4        1.0  0.50665  0.01299  0.65666  1.0000
  S   S5        1.0  0.67285  0.34526  0.45036  1.0000
  S   S6        1.0  0.82715  0.65474  0.95036  1.0000
  S   S7        1.0  0.17285  0.34526  0.04964  1.0000
  S   S8        1.0  0.32715  0.65474  0.54964  1.0000
  N   N1        1.0  0.19287  0.99986  0.50010  1.0000
  N   N2        1.0  0.30713  0.00013  0.00010  1.0000
  N   N3        1.0  0.80712  0.00013  0.49990  1.0000
  N   N4        1.0  0.69288  0.99987  0.99990  1.0000
  O   O1        1.0  0.68018  0.35940  0.29210  1.0000
  O   O2        1.0  0.81982  0.64059  0.79210  1.0000
  O   O3        1.0  0.18018  0.35940  0.20790  1.0000
  O   O4        1.0  0.31982  0.64059  0.70790  1.0000
