data_image0
_chemical_formula_structural       Ba2H12C12N2Cl2O8
_chemical_formula_sum              "Ba2 H12 C12 N2 Cl2 O8"
_cell_length_a       5.76953
_cell_length_b       6.81103
_cell_length_c       11.4985
_cell_angle_alpha    105.272
_cell_angle_beta     100.248
_cell_angle_gamma    94.6271

_space_group_name_H-M_alt    "P 1"
_space_group_IT_number       1

loop_
  _space_group_symop_operation_xyz
  'x, y, z'

loop_
  _atom_site_type_symbol
  _atom_site_label
  _atom_site_symmetry_multiplicity
  _atom_site_fract_x
  _atom_site_fract_y
  _atom_site_fract_z
  _atom_site_occupancy
  Ba  Ba1       1.0  0.78244  0.81721  0.09125  1.0000
  Ba  Ba2       1.0  0.21757  0.18278  0.90875  1.0000
  H   H1        1.0  0.51261  0.29751  0.68524  1.0000
  H   H2        1.0  0.48738  0.70249  0.31476  1.0000
  H   H3        1.0  0.83791  0.39155  0.58352  1.0000
  H   H4        1.0  0.16208  0.60845  0.41648  1.0000
  H   H5        1.0  0.74520  0.31326  0.35182  1.0000
  H   H6        1.0  0.25481  0.68675  0.64818  1.0000
  H   H7        1.0  0.15249  0.11730  0.56448  1.0000
  H   H8        1.0  0.84749  0.88270  0.43552  1.0000
  H   H9        1.0  0.73553  0.38356  0.18550  1.0000
  H   H10       1.0  0.26446  0.61644  0.81450  1.0000
  H   H11       1.0  0.99398  0.47560  0.18968  1.0000
  H   H12       1.0  0.00601  0.52440  0.81033  1.0000
  C   C1        1.0  0.38923  0.17523  0.32951  1.0000
  C   C2        1.0  0.61078  0.82478  0.67050  1.0000
  C   C3        1.0  0.21082  0.10926  0.38994  1.0000
  C   C4        1.0  0.78917  0.89074  0.61006  1.0000
  C   C5        1.0  0.48825  0.26489  0.58540  1.0000
  C   C6        1.0  0.51173  0.73510  0.41460  1.0000
  C   C7        1.0  0.66481  0.31617  0.52838  1.0000
  C   C8        1.0  0.33521  0.68383  0.47162  1.0000
  C   C9        1.0  0.61128  0.27036  0.39969  1.0000
  C   C10       1.0  0.38871  0.72964  0.60031  1.0000
  C   C11       1.0  0.34229  0.15115  0.19392  1.0000
  C   C12       1.0  0.65776  0.84885  0.80609  1.0000
  N   N1        1.0  0.27395  0.16782  0.51804  1.0000
  N   N2        1.0  0.72606  0.83219  0.48196  1.0000
  Cl  Cl1       1.0  0.28019  0.63121  0.10291  1.0000
  Cl  Cl2       1.0  0.71981  0.36880  0.89709  1.0000
  O   O1        1.0  0.52098  0.15575  0.14166  1.0000
  O   O2        1.0  0.47901  0.84425  0.85835  1.0000
  O   O3        1.0  0.12944  0.13601  0.13540  1.0000
  O   O4        1.0  0.87055  0.86397  0.86459  1.0000
  O   O5        1.0  0.01126  0.00074  0.33979  1.0000
  O   O6        1.0  0.98874  0.99926  0.66021  1.0000
  O   O7        1.0  0.84962  0.51147  0.21970  1.0000
  O   O8        1.0  0.15038  0.48853  0.78031  1.0000
