data_image0
_chemical_formula_structural       Mn2H32C40S12N8
_chemical_formula_sum              "Mn2 H32 C40 S12 N8"
_cell_length_a       7.98634
_cell_length_b       7.98641
_cell_length_c       19.2634
_cell_angle_alpha    89.9446
_cell_angle_beta     89.9445
_cell_angle_gamma    115.955

_space_group_name_H-M_alt    "P 1"
_space_group_IT_number       1

loop_
  _space_group_symop_operation_xyz
  'x, y, z'

loop_
  _atom_site_type_symbol
  _atom_site_label
  _atom_site_symmetry_multiplicity
  _atom_site_fract_x
  _atom_site_fract_y
  _atom_site_fract_z
  _atom_site_occupancy
  Mn  Mn1       1.0  0.16585  0.83415  0.25000  1.0000
  Mn  Mn2       1.0  0.83395  0.16605  0.75000  1.0000
  H   H1        1.0  0.74108  0.61117  0.23253  1.0000
  H   H2        1.0  0.25947  0.39135  0.73298  1.0000
  H   H3        1.0  0.38885  0.25891  0.26747  1.0000
  H   H4        1.0  0.60864  0.74054  0.76702  1.0000
  H   H5        1.0  0.53400  0.34836  0.15783  1.0000
  H   H6        1.0  0.46696  0.65369  0.65770  1.0000
  H   H7        1.0  0.65165  0.46599  0.34217  1.0000
  H   H8        1.0  0.34630  0.53305  0.84229  1.0000
  H   H9        1.0  0.67877  0.22066  0.06797  1.0000
  H   H10       1.0  0.32278  0.77917  0.56682  1.0000
  H   H11       1.0  0.77934  0.32122  0.43203  1.0000
  H   H12       1.0  0.22084  0.67723  0.93319  1.0000
  H   H13       1.0  0.02335  0.37005  0.05623  1.0000
  H   H14       1.0  0.97817  0.62910  0.55525  1.0000
  H   H15       1.0  0.62995  0.97665  0.44378  1.0000
  H   H16       1.0  0.37092  0.02184  0.94476  1.0000
  H   H17       1.0  0.99834  0.41267  0.27267  1.0000
  H   H18       1.0  0.99967  0.58713  0.77226  1.0000
  H   H19       1.0  0.58734  0.00166  0.22734  1.0000
  H   H20       1.0  0.41288  0.00033  0.72774  1.0000
  H   H21       1.0  0.05627  0.20273  0.35368  1.0000
  H   H22       1.0  0.94175  0.79660  0.85355  1.0000
  H   H23       1.0  0.79728  0.94374  0.14632  1.0000
  H   H24       1.0  0.20340  0.05825  0.64644  1.0000
  H   H25       1.0  0.30828  0.34236  0.44345  1.0000
  H   H26       1.0  0.69036  0.65619  0.94385  1.0000
  H   H27       1.0  0.65765  0.69173  0.05655  1.0000
  H   H28       1.0  0.34382  0.30961  0.55614  1.0000
  H   H29       1.0  0.48698  0.68915  0.44963  1.0000
  H   H30       1.0  0.51263  0.30909  0.95009  1.0000
  H   H31       1.0  0.31085  0.51303  0.05038  1.0000
  H   H32       1.0  0.69092  0.48733  0.54989  1.0000
  C   C1        1.0  0.79844  0.55366  0.19298  1.0000
  C   C2        1.0  0.20237  0.44788  0.69300  1.0000
  C   C3        1.0  0.44635  0.20156  0.30702  1.0000
  C   C4        1.0  0.55212  0.79765  0.80700  1.0000
  C   C5        1.0  0.68454  0.40718  0.15109  1.0000
  C   C6        1.0  0.31650  0.59396  0.65078  1.0000
  C   C7        1.0  0.59283  0.31545  0.34891  1.0000
  C   C8        1.0  0.40604  0.68351  0.84922  1.0000
  C   C9        1.0  0.76445  0.33805  0.10077  1.0000
  C   C10       1.0  0.23701  0.66217  0.60000  1.0000
  C   C11       1.0  0.66195  0.23554  0.39923  1.0000
  C   C12       1.0  0.33784  0.76300  0.90000  1.0000
  C   C13       1.0  0.95672  0.42177  0.09433  1.0000
  C   C14       1.0  0.04473  0.57799  0.59358  1.0000
  C   C15       1.0  0.57822  0.04327  0.40568  1.0000
  C   C16       1.0  0.42200  0.95528  0.90642  1.0000
  C   C17       1.0  0.06494  0.56971  0.13797  1.0000
  C   C18       1.0  0.93613  0.43050  0.63754  1.0000
  C   C19       1.0  0.43029  0.93506  0.36203  1.0000
  C   C20       1.0  0.56951  0.06388  0.86246  1.0000
  C   C21       1.0  0.10488  0.46948  0.31254  1.0000
  C   C22       1.0  0.89379  0.53020  0.81247  1.0000
  C   C23       1.0  0.53052  0.89512  0.18747  1.0000
  C   C24       1.0  0.46981  0.10621  0.68752  1.0000
  C   C25       1.0  0.13743  0.35325  0.35833  1.0000
  C   C26       1.0  0.86126  0.64605  0.85841  1.0000
  C   C27       1.0  0.64675  0.86257  0.14167  1.0000
  C   C28       1.0  0.35395  0.13874  0.64158  1.0000
  C   C29       1.0  0.27691  0.43186  0.40848  1.0000
  C   C30       1.0  0.72204  0.56703  0.90880  1.0000
  C   C31       1.0  0.56814  0.72310  0.09152  1.0000
  C   C32       1.0  0.43298  0.27794  0.59119  1.0000
  C   C33       1.0  0.37652  0.62374  0.41157  1.0000
  C   C34       1.0  0.62303  0.37503  0.91197  1.0000
  C   C35       1.0  0.37626  0.62349  0.08844  1.0000
  C   C36       1.0  0.62498  0.37695  0.58802  1.0000
  C   C37       1.0  0.26613  0.66429  0.13577  1.0000
  C   C38       1.0  0.73487  0.33618  0.63542  1.0000
  C   C39       1.0  0.33571  0.73387  0.36424  1.0000
  C   C40       1.0  0.66381  0.26514  0.86457  1.0000
  S   S1        1.0  0.06672  0.14623  0.81415  1.0000
  S   S2        1.0  0.93307  0.85381  0.31427  1.0000
  S   S3        1.0  0.85377  0.93327  0.68585  1.0000
  S   S4        1.0  0.14620  0.06692  0.18573  1.0000
  S   S5        1.0  0.06857  0.23771  0.91412  1.0000
  S   S6        1.0  0.93065  0.76231  0.41434  1.0000
  S   S7        1.0  0.76229  0.93141  0.58588  1.0000
  S   S8        1.0  0.23769  0.06934  0.08566  1.0000
  S   S9        1.0  0.88947  0.03257  0.97921  1.0000
  S   S10       1.0  0.11018  0.96747  0.47903  1.0000
  S   S11       1.0  0.96742  0.11051  0.52079  1.0000
  S   S12       1.0  0.03252  0.88981  0.02097  1.0000
  N   N1        1.0  0.98691  0.63580  0.18815  1.0000
  N   N2        1.0  0.01385  0.36505  0.68807  1.0000
  N   N3        1.0  0.36420  0.01309  0.31185  1.0000
  N   N4        1.0  0.63495  0.98615  0.81193  1.0000
  N   N5        1.0  0.34289  0.79899  0.18525  1.0000
  N   N6        1.0  0.65752  0.20191  0.68519  1.0000
  N   N7        1.0  0.20101  0.65711  0.31476  1.0000
  N   N8        1.0  0.79810  0.34249  0.81481  1.0000
