data_image0
_chemical_formula_structural       Zn8H40C12S8N4O32
_chemical_formula_sum              "Zn8 H40 C12 S8 N4 O32"
_cell_length_a       8.8214
_cell_length_b       11.0769
_cell_length_c       11.0769
_cell_angle_alpha    89.9999
_cell_angle_beta     90
_cell_angle_gamma    89.9999

_space_group_name_H-M_alt    "P 1"
_space_group_IT_number       1

loop_
  _space_group_symop_operation_xyz
  'x, y, z'

loop_
  _atom_site_type_symbol
  _atom_site_label
  _atom_site_symmetry_multiplicity
  _atom_site_fract_x
  _atom_site_fract_y
  _atom_site_fract_z
  _atom_site_occupancy
  Zn  Zn1       1.0  0.74706  0.78418  0.21581  1.0000
  Zn  Zn2       1.0  0.74706  0.21581  0.78419  1.0000
  Zn  Zn3       1.0  0.24706  0.28419  0.28419  1.0000
  Zn  Zn4       1.0  0.24706  0.71582  0.71581  1.0000
  Zn  Zn5       1.0  0.49082  0.50000  1.00000  1.0000
  Zn  Zn6       1.0  0.99082  0.50000  1.00000  1.0000
  Zn  Zn7       1.0  0.99082  0.00000  0.50000  1.0000
  Zn  Zn8       1.0  0.49082  0.00000  0.50000  1.0000
  H   H1        1.0  0.97287  0.86842  0.01793  1.0000
  H   H2        1.0  0.97287  0.13158  0.98207  1.0000
  H   H3        1.0  0.47287  0.48207  0.36842  1.0000
  H   H4        1.0  0.47287  0.51793  0.63158  1.0000
  H   H5        1.0  0.47287  0.63158  0.51793  1.0000
  H   H6        1.0  0.47287  0.36842  0.48207  1.0000
  H   H7        1.0  0.97287  0.01793  0.86842  1.0000
  H   H8        1.0  0.97287  0.98207  0.13158  1.0000
  H   H9        1.0  0.56280  0.84752  0.99710  1.0000
  H   H10       1.0  0.56280  0.15248  0.00290  1.0000
  H   H11       1.0  0.06280  0.50290  0.34752  1.0000
  H   H12       1.0  0.06280  0.49710  0.65248  1.0000
  H   H13       1.0  0.06280  0.65248  0.49711  1.0000
  H   H14       1.0  0.06280  0.34752  0.50290  1.0000
  H   H15       1.0  0.56280  0.99710  0.84752  1.0000
  H   H16       1.0  0.56280  0.00290  0.15248  1.0000
  H   H17       1.0  0.73694  0.79075  0.94199  1.0000
  H   H18       1.0  0.73693  0.20925  0.05801  1.0000
  H   H19       1.0  0.23693  0.55801  0.29075  1.0000
  H   H20       1.0  0.23693  0.44199  0.70925  1.0000
  H   H21       1.0  0.23693  0.70925  0.44199  1.0000
  H   H22       1.0  0.23693  0.29075  0.55801  1.0000
  H   H23       1.0  0.73693  0.94199  0.79075  1.0000
  H   H24       1.0  0.73694  0.05801  0.20925  1.0000
  H   H25       1.0  0.45958  0.71700  0.17847  1.0000
  H   H26       1.0  0.45958  0.28300  0.82154  1.0000
  H   H27       1.0  0.95958  0.32153  0.21700  1.0000
  H   H28       1.0  0.95957  0.67848  0.78299  1.0000
  H   H29       1.0  0.95959  0.78300  0.67847  1.0000
  H   H30       1.0  0.95958  0.21701  0.32153  1.0000
  H   H31       1.0  0.45958  0.17847  0.71701  1.0000
  H   H32       1.0  0.45958  0.82153  0.28300  1.0000
  H   H33       1.0  0.02753  0.71021  0.18588  1.0000
  H   H34       1.0  0.02754  0.28978  0.81412  1.0000
  H   H35       1.0  0.52753  0.31412  0.21021  1.0000
  H   H36       1.0  0.52754  0.68588  0.78978  1.0000
  H   H37       1.0  0.52752  0.78980  0.68587  1.0000
  H   H38       1.0  0.52753  0.21021  0.31412  1.0000
  H   H39       1.0  0.02752  0.18587  0.71021  1.0000
  H   H40       1.0  0.02753  0.81413  0.28979  1.0000
  C   C1        1.0  0.91581  0.95056  0.04944  1.0000
  C   C2        1.0  0.91581  0.04944  0.95056  1.0000
  C   C3        1.0  0.41581  0.45056  0.45056  1.0000
  C   C4        1.0  0.41581  0.54944  0.54944  1.0000
  C   C5        1.0  0.67856  0.87298  0.97169  1.0000
  C   C6        1.0  0.67856  0.12702  0.02831  1.0000
  C   C7        1.0  0.17856  0.52831  0.37299  1.0000
  C   C8        1.0  0.17856  0.47169  0.62702  1.0000
  C   C9        1.0  0.17856  0.62701  0.47169  1.0000
  C   C10       1.0  0.17856  0.37298  0.52831  1.0000
  C   C11       1.0  0.67856  0.97169  0.87298  1.0000
  C   C12       1.0  0.67856  0.02831  0.12702  1.0000
  S   S1        1.0  0.74135  0.50503  0.19661  1.0000
  S   S2        1.0  0.74134  0.49497  0.80339  1.0000
  S   S3        1.0  0.24134  0.30339  0.00504  1.0000
  S   S4        1.0  0.24134  0.69661  0.99497  1.0000
  S   S5        1.0  0.24135  0.99496  0.69661  1.0000
  S   S6        1.0  0.24134  0.00504  0.30339  1.0000
  S   S7        1.0  0.74134  0.19661  0.50504  1.0000
  S   S8        1.0  0.74134  0.80339  0.49496  1.0000
  N   N1        1.0  0.75723  0.91769  0.08231  1.0000
  N   N2        1.0  0.75723  0.08231  0.91769  1.0000
  N   N3        1.0  0.25723  0.41769  0.41769  1.0000
  N   N4        1.0  0.25723  0.58231  0.58231  1.0000
  O   O1        1.0  0.59963  0.43790  0.14575  1.0000
  O   O2        1.0  0.59963  0.56210  0.85425  1.0000
  O   O3        1.0  0.09963  0.35424  0.93790  1.0000
  O   O4        1.0  0.09963  0.64575  0.06210  1.0000
  O   O5        1.0  0.09963  0.06210  0.64575  1.0000
  O   O6        1.0  0.09963  0.93790  0.35425  1.0000
  O   O7        1.0  0.59963  0.14575  0.43790  1.0000
  O   O8        1.0  0.59963  0.85425  0.56210  1.0000
  O   O9        1.0  0.88041  0.43577  0.14414  1.0000
  O   O10       1.0  0.88040  0.56423  0.85585  1.0000
  O   O11       1.0  0.38040  0.35586  0.93577  1.0000
  O   O12       1.0  0.38041  0.64414  0.06423  1.0000
  O   O13       1.0  0.38040  0.06423  0.64415  1.0000
  O   O14       1.0  0.38040  0.93577  0.35586  1.0000
  O   O15       1.0  0.88040  0.14415  0.43577  1.0000
  O   O16       1.0  0.88040  0.85586  0.56422  1.0000
  O   O17       1.0  0.74251  0.62350  0.12535  1.0000
  O   O18       1.0  0.74252  0.37650  0.87465  1.0000
  O   O19       1.0  0.24251  0.37465  0.12350  1.0000
  O   O20       1.0  0.24251  0.62536  0.87650  1.0000
  O   O21       1.0  0.24251  0.87650  0.62534  1.0000
  O   O22       1.0  0.24251  0.12350  0.37465  1.0000
  O   O23       1.0  0.74251  0.12535  0.62350  1.0000
  O   O24       1.0  0.74251  0.87465  0.37650  1.0000
  O   O25       1.0  0.51814  0.75349  0.24652  1.0000
  O   O26       1.0  0.51814  0.24651  0.75349  1.0000
  O   O27       1.0  0.01814  0.25349  0.25348  1.0000
  O   O28       1.0  0.01814  0.74653  0.74651  1.0000
  O   O29       1.0  0.97146  0.74289  0.25712  1.0000
  O   O30       1.0  0.97146  0.25710  0.74288  1.0000
  O   O31       1.0  0.47146  0.24288  0.24289  1.0000
  O   O32       1.0  0.47146  0.75712  0.75710  1.0000
