data_image0
_chemical_formula_structural       Cd2H30C40S4N10O12
_chemical_formula_sum              "Cd2 H30 C40 S4 N10 O12"
_cell_length_a       7.20724
_cell_length_b       11.5382
_cell_length_c       14.8213
_cell_angle_alpha    108.948
_cell_angle_beta     103.221
_cell_angle_gamma    92.8941

_space_group_name_H-M_alt    "P 1"
_space_group_IT_number       1

loop_
  _space_group_symop_operation_xyz
  'x, y, z'

loop_
  _atom_site_type_symbol
  _atom_site_label
  _atom_site_symmetry_multiplicity
  _atom_site_fract_x
  _atom_site_fract_y
  _atom_site_fract_z
  _atom_site_occupancy
  Cd  Cd1       1.0  0.50000  0.50000  0.50000  1.0000
  Cd  Cd2       1.0  0.50000  1.00000  0.50000  1.0000
  H   H1        1.0  0.94018  0.56057  0.62382  1.0000
  H   H2        1.0  0.05982  0.43943  0.37618  1.0000
  H   H3        1.0  0.15639  0.58683  0.79070  1.0000
  H   H4        1.0  0.84361  0.41317  0.20930  1.0000
  H   H5        1.0  0.00741  0.56370  0.92146  1.0000
  H   H6        1.0  0.99260  0.43631  0.07855  1.0000
  H   H7        1.0  0.45255  0.48938  0.71044  1.0000
  H   H8        1.0  0.54746  0.51062  0.28956  1.0000
  H   H9        1.0  0.07996  0.83459  0.38131  1.0000
  H   H10       1.0  0.92004  0.16540  0.61869  1.0000
  H   H11       1.0  0.87790  0.72993  0.20856  1.0000
  H   H12       1.0  0.12209  0.27007  0.79144  1.0000
  H   H13       1.0  0.03059  0.70432  0.06809  1.0000
  H   H14       1.0  0.96940  0.29568  0.93190  1.0000
  H   H15       1.0  0.56190  0.89065  0.28478  1.0000
  H   H16       1.0  0.43810  0.10935  0.71521  1.0000
  H   H17       1.0  0.38196  0.46933  0.92811  1.0000
  H   H18       1.0  0.61804  0.53066  0.07189  1.0000
  H   H19       1.0  0.64435  0.81994  0.05625  1.0000
  H   H20       1.0  0.35565  0.18007  0.94375  1.0000
  H   H21       1.0  0.56720  0.11256  0.10809  1.0000
  H   H22       1.0  0.43280  0.88744  0.89191  1.0000
  H   H23       1.0  0.70492  0.08469  0.25291  1.0000
  H   H24       1.0  0.29508  0.91530  0.74709  1.0000
  H   H25       1.0  0.31137  0.10792  0.27013  1.0000
  H   H26       1.0  0.68863  0.89208  0.72987  1.0000
  H   H27       1.0  0.89093  0.14221  0.02443  1.0000
  H   H28       1.0  0.10907  0.85780  0.97557  1.0000
  H   H29       1.0  0.03959  0.08292  0.34599  1.0000
  H   H30       1.0  0.96041  0.91708  0.65401  1.0000
  C   C1        1.0  0.66786  0.22436  0.42485  1.0000
  C   C2        1.0  0.33214  0.77563  0.57515  1.0000
  C   C3        1.0  0.25891  0.24932  0.51982  1.0000
  C   C4        1.0  0.74110  0.75067  0.48017  1.0000
  C   C5        1.0  0.88212  0.55035  0.68306  1.0000
  C   C6        1.0  0.11788  0.44965  0.31694  1.0000
  C   C7        1.0  0.00118  0.56502  0.77557  1.0000
  C   C8        1.0  0.99882  0.43499  0.22443  1.0000
  C   C9        1.0  0.91798  0.55273  0.84849  1.0000
  C   C10       1.0  0.08202  0.44727  0.15152  1.0000
  C   C11       1.0  0.71757  0.52571  0.82646  1.0000
  C   C12       1.0  0.28243  0.47428  0.17355  1.0000
  C   C13       1.0  0.60874  0.51123  0.73127  1.0000
  C   C14       1.0  0.39127  0.48877  0.26873  1.0000
  C   C15       1.0  0.62436  0.51495  0.90352  1.0000
  C   C16       1.0  0.37565  0.48505  0.09648  1.0000
  C   C17       1.0  0.14131  0.82159  0.31842  1.0000
  C   C18       1.0  0.85868  0.17840  0.68157  1.0000
  C   C19       1.0  0.02946  0.76280  0.22201  1.0000
  C   C20       1.0  0.97054  0.23720  0.77799  1.0000
  C   C21       1.0  0.11436  0.74885  0.14436  1.0000
  C   C22       1.0  0.88564  0.25115  0.85564  1.0000
  C   C23       1.0  0.30974  0.79322  0.16588  1.0000
  C   C24       1.0  0.69026  0.20678  0.83412  1.0000
  C   C25       1.0  0.41048  0.85311  0.26470  1.0000
  C   C26       1.0  0.58952  0.14689  0.73530  1.0000
  C   C27       1.0  0.40703  0.77602  0.08462  1.0000
  C   C28       1.0  0.59298  0.22397  0.91538  1.0000
  C   C29       1.0  0.82662  0.09680  0.22333  1.0000
  C   C30       1.0  0.17338  0.90320  0.77667  1.0000
  C   C31       1.0  0.01331  0.09454  0.27424  1.0000
  C   C32       1.0  0.98669  0.90546  0.72576  1.0000
  C   C33       1.0  0.16291  0.10797  0.23203  1.0000
  C   C34       1.0  0.83710  0.89203  0.76797  1.0000
  C   C35       1.0  0.11955  0.12372  0.13997  1.0000
  C   C36       1.0  0.88045  0.87629  0.86003  1.0000
  C   C37       1.0  0.92800  0.12721  0.09476  1.0000
  C   C38       1.0  0.07200  0.87280  0.90524  1.0000
  C   C39       1.0  0.27284  0.13751  0.08997  1.0000
  C   C40       1.0  0.72717  0.86250  0.91003  1.0000
  S   S1        1.0  0.75017  0.35551  0.41991  1.0000
  S   S2        1.0  0.24982  0.64449  0.58008  1.0000
  S   S3        1.0  0.18874  0.11921  0.53141  1.0000
  S   S4        1.0  0.81126  0.88079  0.46859  1.0000
  N   N1        1.0  0.60891  0.12677  0.42507  1.0000
  N   N2        1.0  0.39107  0.87323  0.57493  1.0000
  N   N3        1.0  0.30462  0.34350  0.51024  1.0000
  N   N4        1.0  0.69538  0.65649  0.48977  1.0000
  N   N5        1.0  0.68970  0.52372  0.66149  1.0000
  N   N6        1.0  0.31030  0.47628  0.33851  1.0000
  N   N7        1.0  0.32752  0.86737  0.33916  1.0000
  N   N8        1.0  0.67248  0.13262  0.66084  1.0000
  N   N9        1.0  0.78402  0.11371  0.13551  1.0000
  N   N10       1.0  0.21598  0.88629  0.86449  1.0000
  O   O1        1.0  0.43912  0.47129  0.87071  1.0000
  O   O2        1.0  0.56088  0.52871  0.12930  1.0000
  O   O3        1.0  0.71709  0.54450  0.99150  1.0000
  O   O4        1.0  0.28292  0.45550  0.00851  1.0000
  O   O5        1.0  0.58998  0.82826  0.11588  1.0000
  O   O6        1.0  0.41002  0.17174  0.88412  1.0000
  O   O7        1.0  0.32437  0.71839  0.99736  1.0000
  O   O8        1.0  0.67562  0.28162  0.00264  1.0000
  O   O9        1.0  0.43086  0.09773  0.12463  1.0000
  O   O10       1.0  0.56914  0.90227  0.87537  1.0000
  O   O11       1.0  0.24234  0.18133  0.02220  1.0000
  O   O12       1.0  0.75767  0.81868  0.97780  1.0000
