data_image0
_chemical_formula_structural       Cd2H24C28S4N12O4
_chemical_formula_sum              "Cd2 H24 C28 S4 N12 O4"
_cell_length_a       7.87263
_cell_length_b       9.54045
_cell_length_c       12.3815
_cell_angle_alpha    112.657
_cell_angle_beta     95.1423
_cell_angle_gamma    89.9949

_space_group_name_H-M_alt    "P 1"
_space_group_IT_number       1

loop_
  _space_group_symop_operation_xyz
  'x, y, z'

loop_
  _atom_site_type_symbol
  _atom_site_label
  _atom_site_symmetry_multiplicity
  _atom_site_fract_x
  _atom_site_fract_y
  _atom_site_fract_z
  _atom_site_occupancy
  Cd  Cd1       1.0  1.00000  0.50000  0.50000  1.0000
  Cd  Cd2       1.0  0.50000  0.00000  0.50000  1.0000
  H   H1        1.0  0.92233  0.84215  0.65181  1.0000
  H   H2        1.0  0.42274  0.80993  0.65169  1.0000
  H   H3        1.0  0.07766  0.15784  0.34818  1.0000
  H   H4        1.0  0.57726  0.19008  0.34831  1.0000
  H   H5        1.0  0.76714  0.00560  0.82305  1.0000
  H   H6        1.0  0.26742  0.81737  0.82279  1.0000
  H   H7        1.0  0.23285  0.99439  0.17694  1.0000
  H   H8        1.0  0.73259  0.18263  0.17720  1.0000
  H   H9        1.0  0.60761  0.87515  0.92947  1.0000
  H   H10       1.0  0.10782  0.05406  0.92928  1.0000
  H   H11       1.0  0.39239  0.12485  0.07052  1.0000
  H   H12       1.0  0.89217  0.94594  0.07071  1.0000
  H   H13       1.0  0.78363  0.45015  0.69336  1.0000
  H   H14       1.0  0.28361  0.24346  0.69339  1.0000
  H   H15       1.0  0.21637  0.54985  0.30663  1.0000
  H   H16       1.0  0.71640  0.75655  0.30662  1.0000
  H   H17       1.0  0.68809  0.36869  0.80572  1.0000
  H   H18       1.0  0.18806  0.43705  0.80578  1.0000
  H   H19       1.0  0.31192  0.63131  0.19428  1.0000
  H   H20       1.0  0.81193  0.56295  0.19422  1.0000
  H   H21       1.0  0.56655  0.39140  0.92434  1.0000
  H   H22       1.0  0.06642  0.53288  0.92432  1.0000
  H   H23       1.0  0.43346  0.60860  0.07566  1.0000
  H   H24       1.0  0.93358  0.46712  0.07569  1.0000
  C   C1        1.0  0.62361  0.63794  0.42998  1.0000
  C   C2        1.0  0.12348  0.79200  0.42996  1.0000
  C   C3        1.0  0.37639  0.36208  0.57003  1.0000
  C   C4        1.0  0.87652  0.20801  0.57005  1.0000
  C   C5        1.0  0.85454  0.79324  0.70271  1.0000
  C   C6        1.0  0.35479  0.90963  0.70256  1.0000
  C   C7        1.0  0.14546  0.20675  0.29728  1.0000
  C   C8        1.0  0.64520  0.09038  0.29744  1.0000
  C   C9        1.0  0.76695  0.88263  0.79694  1.0000
  C   C10       1.0  0.26716  0.91425  0.79671  1.0000
  C   C11       1.0  0.23305  0.11736  0.20306  1.0000
  C   C12       1.0  0.73283  0.08575  0.20328  1.0000
  C   C13       1.0  0.68013  0.81194  0.85609  1.0000
  C   C14       1.0  0.18031  0.04403  0.85592  1.0000
  C   C15       1.0  0.31988  0.18806  0.14391  1.0000
  C   C16       1.0  0.81969  0.95597  0.14408  1.0000
  C   C17       1.0  0.68485  0.65415  0.82114  1.0000
  C   C18       1.0  0.18498  0.16700  0.82110  1.0000
  C   C19       1.0  0.31516  0.34585  0.17886  1.0000
  C   C20       1.0  0.81501  0.83300  0.17889  1.0000
  C   C21       1.0  0.77598  0.57334  0.72606  1.0000
  C   C22       1.0  0.27612  0.15292  0.72608  1.0000
  C   C23       1.0  0.22403  0.42665  0.27393  1.0000
  C   C24       1.0  0.72388  0.84708  0.27392  1.0000
  C   C25       1.0  0.59542  0.58324  0.89054  1.0000
  C   C26       1.0  0.09544  0.30719  0.89054  1.0000
  C   C27       1.0  0.40459  0.41676  0.10946  1.0000
  C   C28       1.0  0.90456  0.69281  0.10947  1.0000
  S   S1        1.0  0.70354  0.47567  0.35461  1.0000
  S   S2        1.0  0.20358  0.87881  0.35460  1.0000
  S   S3        1.0  0.29646  0.52434  0.64540  1.0000
  S   S4        1.0  0.79643  0.12120  0.64541  1.0000
  N   N1        1.0  0.06476  0.72780  0.48374  1.0000
  N   N2        1.0  0.56500  0.75595  0.48376  1.0000
  N   N3        1.0  0.93524  0.27220  0.51626  1.0000
  N   N4        1.0  0.43502  0.24405  0.51625  1.0000
  N   N5        1.0  0.85874  0.64130  0.66804  1.0000
  N   N6        1.0  0.35887  0.02698  0.66798  1.0000
  N   N7        1.0  0.14125  0.35870  0.33195  1.0000
  N   N8        1.0  0.64112  0.97303  0.33203  1.0000
  N   N9        1.0  0.61289  0.43491  0.86702  1.0000
  N   N10       1.0  0.11283  0.43205  0.86704  1.0000
  N   N11       1.0  0.38711  0.56508  0.13298  1.0000
  N   N12       1.0  0.88717  0.56795  0.13297  1.0000
  O   O1        1.0  0.50921  0.66649  0.97002  1.0000
  O   O2        1.0  0.00931  0.30336  0.97003  1.0000
  O   O3        1.0  0.49080  0.33351  0.02998  1.0000
  O   O4        1.0  0.99069  0.69664  0.02998  1.0000
