data_image0
_chemical_formula_structural       Cd4H24C28S4N8O12
_chemical_formula_sum              "Cd4 H24 C28 S4 N8 O12"
_cell_length_a       5.96422
_cell_length_b       11.3743
_cell_length_c       14.8616
_cell_angle_alpha    90.0003
_cell_angle_beta     89.9997
_cell_angle_gamma    93.7074

_space_group_name_H-M_alt    "P 1"
_space_group_IT_number       1

loop_
  _space_group_symop_operation_xyz
  'x, y, z'

loop_
  _atom_site_type_symbol
  _atom_site_label
  _atom_site_symmetry_multiplicity
  _atom_site_fract_x
  _atom_site_fract_y
  _atom_site_fract_z
  _atom_site_occupancy
  Cd  Cd1       1.0  0.82321  0.70519  0.98363  1.0000
  Cd  Cd2       1.0  0.32322  0.20519  0.51637  1.0000
  Cd  Cd3       1.0  0.17676  0.29481  0.01637  1.0000
  Cd  Cd4       1.0  0.67677  0.79481  0.48363  1.0000
  H   H1        1.0  0.68261  0.95551  0.90118  1.0000
  H   H2        1.0  0.18260  0.45551  0.59883  1.0000
  H   H3        1.0  0.31740  0.04450  0.09883  1.0000
  H   H4        1.0  0.81740  0.54449  0.40117  1.0000
  H   H5        1.0  0.79100  0.08845  0.77120  1.0000
  H   H6        1.0  0.29100  0.58845  0.72880  1.0000
  H   H7        1.0  0.20902  0.91156  0.22880  1.0000
  H   H8        1.0  0.70901  0.41156  0.27119  1.0000
  H   H9        1.0  0.39209  0.90040  0.74264  1.0000
  H   H10       1.0  0.89208  0.40039  0.75736  1.0000
  H   H11       1.0  0.60792  0.09960  0.25737  1.0000
  H   H12       1.0  0.10792  0.59960  0.24263  1.0000
  H   H13       1.0  0.24890  0.76567  0.86677  1.0000
  H   H14       1.0  0.74889  0.26566  0.63324  1.0000
  H   H15       1.0  0.75110  0.23434  0.13325  1.0000
  H   H16       1.0  0.25110  0.73434  0.36676  1.0000
  H   H17       1.0  0.80770  0.45681  0.98949  1.0000
  H   H18       1.0  0.30769  0.95681  0.51051  1.0000
  H   H19       1.0  0.19230  0.54320  0.01051  1.0000
  H   H20       1.0  0.69231  0.04319  0.48949  1.0000
  H   H21       1.0  0.66020  0.46876  0.07558  1.0000
  H   H22       1.0  0.16020  0.96876  0.42442  1.0000
  H   H23       1.0  0.33980  0.53123  0.92442  1.0000
  H   H24       1.0  0.83980  0.03124  0.57558  1.0000
  C   C1        1.0  0.34394  0.75695  0.07143  1.0000
  C   C2        1.0  0.84395  0.25696  0.42856  1.0000
  C   C3        1.0  0.65602  0.24304  0.92856  1.0000
  C   C4        1.0  0.15605  0.74305  0.57143  1.0000
  C   C5        1.0  0.83726  0.94531  0.86348  1.0000
  C   C6        1.0  0.33726  0.44531  0.63652  1.0000
  C   C7        1.0  0.16275  0.05470  0.13652  1.0000
  C   C8        1.0  0.66275  0.55470  0.36348  1.0000
  C   C9        1.0  0.89953  0.02021  0.79246  1.0000
  C   C10       1.0  0.39954  0.52022  0.70754  1.0000
  C   C11       1.0  0.10047  0.97979  0.20755  1.0000
  C   C12       1.0  0.60047  0.47978  0.29245  1.0000
  C   C13       1.0  0.10295  0.00500  0.74855  1.0000
  C   C14       1.0  0.60295  0.50501  0.75145  1.0000
  C   C15       1.0  0.89706  0.99500  0.25146  1.0000
  C   C16       1.0  0.39706  0.49500  0.24855  1.0000
  C   C17       1.0  0.23377  0.91396  0.77636  1.0000
  C   C18       1.0  0.73378  0.41395  0.72364  1.0000
  C   C19       1.0  0.76623  0.08604  0.22365  1.0000
  C   C20       1.0  0.26623  0.58605  0.27636  1.0000
  C   C21       1.0  0.15554  0.84031  0.84562  1.0000
  C   C22       1.0  0.65554  0.34030  0.65439  1.0000
  C   C23       1.0  0.84445  0.15969  0.15440  1.0000
  C   C24       1.0  0.34446  0.65969  0.34561  1.0000
  C   C25       1.0  0.18106  0.08293  0.67172  1.0000
  C   C26       1.0  0.68106  0.58294  0.82828  1.0000
  C   C27       1.0  0.81895  0.91706  0.32828  1.0000
  C   C28       1.0  0.31895  0.41706  0.17172  1.0000
  S   S1        1.0  0.58736  0.82306  0.09576  1.0000
  S   S2        1.0  0.08740  0.32306  0.40422  1.0000
  S   S3        1.0  0.41259  0.17694  0.90423  1.0000
  S   S4        1.0  0.91260  0.67694  0.59577  1.0000
  N   N1        1.0  0.16557  0.70926  0.05629  1.0000
  N   N2        1.0  0.66560  0.20928  0.44371  1.0000
  N   N3        1.0  0.83439  0.29072  0.94371  1.0000
  N   N4        1.0  0.33438  0.79072  0.55629  1.0000
  N   N5        1.0  0.96144  0.85658  0.88895  1.0000
  N   N6        1.0  0.46142  0.35657  0.61105  1.0000
  N   N7        1.0  0.03857  0.14343  0.11105  1.0000
  N   N8        1.0  0.53856  0.64342  0.38895  1.0000
  O   O1        1.0  0.03070  0.13216  0.62531  1.0000
  O   O2        1.0  0.53069  0.63216  0.87469  1.0000
  O   O3        1.0  0.96932  0.86783  0.37469  1.0000
  O   O4        1.0  0.46932  0.36784  0.12531  1.0000
  O   O5        1.0  0.38842  0.09395  0.65451  1.0000
  O   O6        1.0  0.88842  0.59396  0.84549  1.0000
  O   O7        1.0  0.61159  0.90604  0.34549  1.0000
  O   O8        1.0  0.11159  0.40604  0.15451  1.0000
  O   O9        1.0  0.76783  0.51386  0.03530  1.0000
  O   O10       1.0  0.26783  0.01386  0.46470  1.0000
  O   O11       1.0  0.23218  0.48614  0.96471  1.0000
  O   O12       1.0  0.73218  0.98614  0.53529  1.0000
