data_image0
_chemical_formula_structural       Ag4H68C48S4N16O8
_chemical_formula_sum              "Ag4 H68 C48 S4 N16 O8"
_cell_length_a       6.43158
_cell_length_b       11.0607
_cell_length_c       18.8894
_cell_angle_alpha    90.0008
_cell_angle_beta     90.0004
_cell_angle_gamma    102.166

_space_group_name_H-M_alt    "P 1"
_space_group_IT_number       1

loop_
  _space_group_symop_operation_xyz
  'x, y, z'

loop_
  _atom_site_type_symbol
  _atom_site_label
  _atom_site_symmetry_multiplicity
  _atom_site_fract_x
  _atom_site_fract_y
  _atom_site_fract_z
  _atom_site_occupancy
  Ag  Ag1       1.0  0.38680  0.39363  0.46090  1.0000
  Ag  Ag2       1.0  0.11319  0.10638  0.96090  1.0000
  Ag  Ag3       1.0  0.61319  0.60637  0.53909  1.0000
  Ag  Ag4       1.0  0.88683  0.89363  0.03910  1.0000
  H   H1        1.0  0.65766  0.30418  0.33117  1.0000
  H   H2        1.0  0.84234  0.19584  0.83118  1.0000
  H   H3        1.0  0.34233  0.69583  0.66882  1.0000
  H   H4        1.0  0.15767  0.80417  0.16883  1.0000
  H   H5        1.0  0.46412  0.17519  0.36305  1.0000
  H   H6        1.0  0.03588  0.32481  0.86306  1.0000
  H   H7        1.0  0.53587  0.82481  0.63694  1.0000
  H   H8        1.0  0.96414  0.67519  0.13695  1.0000
  H   H9        1.0  0.89961  0.38481  0.50409  1.0000
  H   H10       1.0  0.60039  0.11520  0.00410  1.0000
  H   H11       1.0  0.10038  0.61519  0.49590  1.0000
  H   H12       1.0  0.39964  0.88482  0.99591  1.0000
  H   H13       1.0  0.90871  0.42634  0.41210  1.0000
  H   H14       1.0  0.59130  0.07367  0.91210  1.0000
  H   H15       1.0  0.09130  0.57366  0.58789  1.0000
  H   H16       1.0  0.40872  0.92634  0.08791  1.0000
  H   H17       1.0  0.45658  0.12242  0.48777  1.0000
  H   H18       1.0  0.04343  0.37760  0.98777  1.0000
  H   H19       1.0  0.54340  0.87759  0.51222  1.0000
  H   H20       1.0  0.95660  0.62242  0.01223  1.0000
  H   H21       1.0  0.64517  0.21413  0.54663  1.0000
  H   H22       1.0  0.85483  0.28587  0.04663  1.0000
  H   H23       1.0  0.35481  0.78586  0.45336  1.0000
  H   H24       1.0  0.14521  0.71414  0.95337  1.0000
  H   H25       1.0  0.02243  0.29245  0.32552  1.0000
  H   H26       1.0  0.47756  0.20756  0.82552  1.0000
  H   H27       1.0  0.97756  0.70755  0.67448  1.0000
  H   H28       1.0  0.52245  0.79244  0.17449  1.0000
  H   H29       1.0  0.10403  0.15490  0.35363  1.0000
  H   H30       1.0  0.39597  0.34511  0.85363  1.0000
  H   H31       1.0  0.89596  0.84509  0.64637  1.0000
  H   H32       1.0  0.60404  0.65491  0.14638  1.0000
  H   H33       1.0  0.84299  0.98220  0.39779  1.0000
  H   H34       1.0  0.65701  0.51780  0.89780  1.0000
  H   H35       1.0  0.15699  0.01779  0.60220  1.0000
  H   H36       1.0  0.34301  0.48221  0.10221  1.0000
  H   H37       1.0  0.56999  0.99376  0.40244  1.0000
  H   H38       1.0  0.93001  0.50625  0.90245  1.0000
  H   H39       1.0  0.42999  0.00624  0.59755  1.0000
  H   H40       1.0  0.07002  0.49376  0.09755  1.0000
  H   H41       1.0  0.01529  0.20148  0.54105  1.0000
  H   H42       1.0  0.48472  0.29852  0.04105  1.0000
  H   H43       1.0  0.98470  0.79851  0.45894  1.0000
  H   H44       1.0  0.51531  0.70149  0.95896  1.0000
  H   H45       1.0  0.09692  0.10231  0.47681  1.0000
  H   H46       1.0  0.40309  0.39770  0.97681  1.0000
  H   H47       1.0  0.90306  0.89768  0.52318  1.0000
  H   H48       1.0  0.59695  0.60232  0.02320  1.0000
  H   H49       1.0  0.26086  0.44539  0.27718  1.0000
  H   H50       1.0  0.23913  0.05457  0.77718  1.0000
  H   H51       1.0  0.73912  0.55458  0.72282  1.0000
  H   H52       1.0  0.76086  0.94543  0.22282  1.0000
  H   H53       1.0  0.37097  0.31454  0.18156  1.0000
  H   H54       1.0  0.12903  0.18542  0.68156  1.0000
  H   H55       1.0  0.62904  0.68543  0.81845  1.0000
  H   H56       1.0  0.87095  0.81459  0.31845  1.0000
  H   H57       1.0  0.75557  0.33471  0.15461  1.0000
  H   H58       1.0  0.74445  0.16527  0.65460  1.0000
  H   H59       1.0  0.24444  0.66527  0.84540  1.0000
  H   H60       1.0  0.25552  0.83473  0.34541  1.0000
  H   H61       1.0  0.02718  0.48815  0.22045  1.0000
  H   H62       1.0  0.47282  0.01186  0.72044  1.0000
  H   H63       1.0  0.97281  0.51184  0.77956  1.0000
  H   H64       1.0  0.52716  0.98813  0.27957  1.0000
  H   H65       1.0  0.91559  0.61367  0.31668  1.0000
  H   H66       1.0  0.58437  0.88634  0.81669  1.0000
  H   H67       1.0  0.08440  0.38632  0.68331  1.0000
  H   H68       1.0  0.41563  0.11365  0.18331  1.0000
  C   C1        1.0  0.62839  0.22758  0.36914  1.0000
  C   C2        1.0  0.87161  0.27244  0.86915  1.0000
  C   C3        1.0  0.37161  0.77242  0.63085  1.0000
  C   C4        1.0  0.12841  0.72757  0.13086  1.0000
  C   C5        1.0  0.87834  0.34908  0.44979  1.0000
  C   C6        1.0  0.62167  0.15093  0.94980  1.0000
  C   C7        1.0  0.12166  0.65092  0.55020  1.0000
  C   C8        1.0  0.37834  0.84908  0.05021  1.0000
  C   C9        1.0  0.62060  0.17528  0.49311  1.0000
  C   C10       1.0  0.87940  0.32472  0.99312  1.0000
  C   C11       1.0  0.37938  0.82472  0.50688  1.0000
  C   C12       1.0  0.12063  0.67529  0.00688  1.0000
  C   C13       1.0  0.99317  0.21617  0.36389  1.0000
  C   C14       1.0  0.50683  0.28384  0.86389  1.0000
  C   C15       1.0  0.00683  0.78383  0.63611  1.0000
  C   C16       1.0  0.49319  0.71617  0.13612  1.0000
  C   C17       1.0  0.73524  0.04516  0.40795  1.0000
  C   C18       1.0  0.76476  0.45485  0.90795  1.0000
  C   C19       1.0  0.26474  0.95483  0.59204  1.0000
  C   C20       1.0  0.23526  0.54516  0.09205  1.0000
  C   C21       1.0  0.98642  0.16374  0.48742  1.0000
  C   C22       1.0  0.51358  0.33627  0.98742  1.0000
  C   C23       1.0  0.01355  0.83624  0.51257  1.0000
  C   C24       1.0  0.48646  0.66375  0.01259  1.0000
  C   C25       1.0  0.58111  0.53791  0.30095  1.0000
  C   C26       1.0  0.91884  0.96208  0.80095  1.0000
  C   C27       1.0  0.41882  0.46207  0.69905  1.0000
  C   C28       1.0  0.08118  0.03792  0.19906  1.0000
  C   C29       1.0  0.42779  0.45362  0.26369  1.0000
  C   C30       1.0  0.07221  0.04636  0.76371  1.0000
  C   C31       1.0  0.57220  0.54634  0.73631  1.0000
  C   C32       1.0  0.92777  0.95364  0.23630  1.0000
  C   C33       1.0  0.48992  0.38059  0.21082  1.0000
  C   C34       1.0  0.01008  0.11937  0.71080  1.0000
  C   C35       1.0  0.51006  0.61939  0.78918  1.0000
  C   C36       1.0  0.98994  0.88063  0.28920  1.0000
  C   C37       1.0  0.70584  0.39267  0.19519  1.0000
  C   C38       1.0  0.79420  0.10730  0.69518  1.0000
  C   C39       1.0  0.29420  0.60731  0.80481  1.0000
  C   C40       1.0  0.20577  0.89270  0.30482  1.0000
  C   C41       1.0  0.85881  0.47674  0.23285  1.0000
  C   C42       1.0  0.64116  0.02328  0.73285  1.0000
  C   C43       1.0  0.14118  0.52326  0.76715  1.0000
  C   C44       1.0  0.35882  0.97672  0.26716  1.0000
  C   C45       1.0  0.79719  0.54961  0.28608  1.0000
  C   C46       1.0  0.70277  0.95038  0.78608  1.0000
  C   C47       1.0  0.20278  0.45038  0.71392  1.0000
  C   C48       1.0  0.29722  0.04962  0.21392  1.0000
  S   S1        1.0  0.49583  0.64247  0.36332  1.0000
  S   S2        1.0  0.00414  0.85753  0.86333  1.0000
  S   S3        1.0  0.50415  0.35752  0.63667  1.0000
  S   S4        1.0  0.99588  0.14248  0.13668  1.0000
  N   N1        1.0  0.65456  0.28013  0.44204  1.0000
  N   N2        1.0  0.84544  0.21987  0.94205  1.0000
  N   N3        1.0  0.34544  0.71986  0.55795  1.0000
  N   N4        1.0  0.15458  0.78013  0.05796  1.0000
  N   N5        1.0  0.77475  0.14542  0.35528  1.0000
  N   N6        1.0  0.72524  0.35459  0.85528  1.0000
  N   N7        1.0  0.22524  0.85458  0.64471  1.0000
  N   N8        1.0  0.27478  0.64542  0.14472  1.0000
  N   N9        1.0  0.03141  0.26838  0.43642  1.0000
  N   N10       1.0  0.46860  0.23163  0.93642  1.0000
  N   N11       1.0  0.96859  0.73161  0.56358  1.0000
  N   N12       1.0  0.53142  0.76839  0.06359  1.0000
  N   N13       1.0  0.76722  0.09235  0.48098  1.0000
  N   N14       1.0  0.73279  0.40766  0.98098  1.0000
  N   N15       1.0  0.23276  0.90765  0.51902  1.0000
  N   N16       1.0  0.26725  0.59235  0.01902  1.0000
  O   O1        1.0  0.30208  0.55982  0.39840  1.0000
  O   O2        1.0  0.19791  0.94019  0.89840  1.0000
  O   O3        1.0  0.69791  0.44018  0.60159  1.0000
  O   O4        1.0  0.80211  0.05982  0.10160  1.0000
  O   O5        1.0  0.68340  0.67201  0.41400  1.0000
  O   O6        1.0  0.81656  0.82800  0.91401  1.0000
  O   O7        1.0  0.31658  0.32799  0.58599  1.0000
  O   O8        1.0  0.18345  0.17201  0.08599  1.0000
