data_image0
_chemical_formula_structural       Ag2H36C26N8O6
_chemical_formula_sum              "Ag2 H36 C26 N8 O6"
_cell_length_a       6.62385
_cell_length_b       10.6382
_cell_length_c       10.7422
_cell_angle_alpha    87.2547
_cell_angle_beta     108.042
_cell_angle_gamma    90.0049

_space_group_name_H-M_alt    "P 1"
_space_group_IT_number       1

loop_
  _space_group_symop_operation_xyz
  'x, y, z'

loop_
  _atom_site_type_symbol
  _atom_site_label
  _atom_site_symmetry_multiplicity
  _atom_site_fract_x
  _atom_site_fract_y
  _atom_site_fract_z
  _atom_site_occupancy
  Ag  Ag1       1.0  0.19612  0.13312  0.39268  1.0000
  Ag  Ag2       1.0  0.80387  0.86688  0.60733  1.0000
  H   H1        1.0  0.40625  0.77142  0.16514  1.0000
  H   H2        1.0  0.24113  0.22943  0.83444  1.0000
  H   H3        1.0  0.59378  0.22859  0.83487  1.0000
  H   H4        1.0  0.75891  0.77058  0.16557  1.0000
  H   H5        1.0  0.34993  0.57572  0.04766  1.0000
  H   H6        1.0  0.30187  0.42515  0.95200  1.0000
  H   H7        1.0  0.65009  0.42430  0.95234  1.0000
  H   H8        1.0  0.69816  0.57486  0.04801  1.0000
  H   H9        1.0  0.60076  0.29228  0.56367  1.0000
  H   H10       1.0  0.03684  0.70776  0.43624  1.0000
  H   H11       1.0  0.39920  0.70772  0.43632  1.0000
  H   H12       1.0  0.96314  0.29225  0.56376  1.0000
  H   H13       1.0  0.41196  0.39951  0.45522  1.0000
  H   H14       1.0  0.95667  0.60045  0.54452  1.0000
  H   H15       1.0  0.58801  0.60049  0.54477  1.0000
  H   H16       1.0  0.04330  0.39955  0.45547  1.0000
  H   H17       1.0  0.65129  0.09770  0.30303  1.0000
  H   H18       1.0  0.34869  0.90229  0.69698  1.0000
  H   H19       1.0  0.73808  0.11618  0.47600  1.0000
  H   H20       1.0  0.26190  0.88382  0.52401  1.0000
  H   H21       1.0  0.29659  0.37081  0.22384  1.0000
  H   H22       1.0  0.07322  0.62919  0.77598  1.0000
  H   H23       1.0  0.70338  0.62918  0.77615  1.0000
  H   H24       1.0  0.92676  0.37080  0.22401  1.0000
  H   H25       1.0  0.39673  0.24090  0.15950  1.0000
  H   H26       1.0  0.23804  0.75903  0.84044  1.0000
  H   H27       1.0  0.60325  0.75908  0.84049  1.0000
  H   H28       1.0  0.76194  0.24096  0.15956  1.0000
  H   H29       1.0  0.78907  0.54257  0.30936  1.0000
  H   H30       1.0  0.48016  0.45742  0.69077  1.0000
  H   H31       1.0  0.21090  0.45742  0.69063  1.0000
  H   H32       1.0  0.51981  0.54258  0.30922  1.0000
  H   H33       1.0  0.45392  0.11832  0.66678  1.0000
  H   H34       1.0  0.78684  0.88151  0.33331  1.0000
  H   H35       1.0  0.54610  0.88168  0.33323  1.0000
  H   H36       1.0  0.21318  0.11849  0.66670  1.0000
  C   C1        1.0  0.12286  0.90465  0.24627  1.0000
  C   C2        1.0  0.87717  0.09535  0.75374  1.0000
  C   C3        1.0  0.08628  0.78572  0.17274  1.0000
  C   C4        1.0  0.91374  0.21428  0.82727  1.0000
  C   C5        1.0  0.25058  0.72832  0.13826  1.0000
  C   C6        1.0  0.11226  0.27217  0.86144  1.0000
  C   C7        1.0  0.74945  0.27169  0.86174  1.0000
  C   C8        1.0  0.88778  0.72783  0.13857  1.0000
  C   C9        1.0  0.21753  0.61731  0.07188  1.0000
  C   C10       1.0  0.14537  0.38318  0.92780  1.0000
  C   C11       1.0  0.78250  0.38270  0.92811  1.0000
  C   C12       1.0  0.85466  0.61683  0.07220  1.0000
  C   C13       1.0  0.01818  0.55865  0.03624  1.0000
  C   C14       1.0  0.98186  0.44137  0.96377  1.0000
  C   C15       1.0  0.55335  0.34064  0.46626  1.0000
  C   C16       1.0  0.08704  0.65936  0.53363  1.0000
  C   C17       1.0  0.44663  0.65936  0.53373  1.0000
  C   C18       1.0  0.91293  0.34063  0.46636  1.0000
  C   C19       1.0  0.68958  0.16647  0.37940  1.0000
  C   C20       1.0  0.31040  0.83352  0.62061  1.0000
  C   C21       1.0  0.43708  0.31121  0.23460  1.0000
  C   C22       1.0  0.20301  0.68874  0.76532  1.0000
  C   C23       1.0  0.56290  0.68877  0.76539  1.0000
  C   C24       1.0  0.79697  0.31125  0.23468  1.0000
  C   C25       1.0  0.66023  0.48277  0.32083  1.0000
  C   C26       1.0  0.33975  0.51723  0.67916  1.0000
  N   N1        1.0  0.49756  0.24446  0.36575  1.0000
  N   N2        1.0  0.13197  0.75552  0.63416  1.0000
  N   N3        1.0  0.50241  0.75554  0.63425  1.0000
  N   N4        1.0  0.86801  0.24448  0.36584  1.0000
  N   N5        1.0  0.72651  0.42074  0.45311  1.0000
  N   N6        1.0  0.27347  0.57926  0.54688  1.0000
  N   N7        1.0  0.60824  0.39090  0.21712  1.0000
  N   N8        1.0  0.39174  0.60909  0.78287  1.0000
  O   O1        1.0  0.30683  0.95308  0.27692  1.0000
  O   O2        1.0  0.03071  0.04727  0.72320  1.0000
  O   O3        1.0  0.69320  0.04693  0.72309  1.0000
  O   O4        1.0  0.96933  0.95274  0.27680  1.0000
  O   O5        1.0  0.31397  0.16224  0.62753  1.0000
  O   O6        1.0  0.68605  0.83776  0.37248  1.0000
