data_image0
_chemical_formula_structural       Ag2H28C16N8O4
_chemical_formula_sum              "Ag2 H28 C16 N8 O4"
_cell_length_a       6.41966
_cell_length_b       9.27613
_cell_length_c       10.3026
_cell_angle_alpha    69.0897
_cell_angle_beta     79.351
_cell_angle_gamma    87.5786

_space_group_name_H-M_alt    "P 1"
_space_group_IT_number       1

loop_
  _space_group_symop_operation_xyz
  'x, y, z'

loop_
  _atom_site_type_symbol
  _atom_site_label
  _atom_site_symmetry_multiplicity
  _atom_site_fract_x
  _atom_site_fract_y
  _atom_site_fract_z
  _atom_site_occupancy
  Ag  Ag1       1.0  0.14396  0.06804  0.37708  1.0000
  Ag  Ag2       1.0  0.85604  0.93197  0.62291  1.0000
  H   H1        1.0  0.40701  0.10681  0.06101  1.0000
  H   H2        1.0  0.59298  0.89319  0.93899  1.0000
  H   H3        1.0  0.51442  0.94848  0.18529  1.0000
  H   H4        1.0  0.48558  0.05152  0.81471  1.0000
  H   H5        1.0  0.62311  0.16058  0.40259  1.0000
  H   H6        1.0  0.37689  0.83943  0.59741  1.0000
  H   H7        1.0  0.64151  0.97831  0.37796  1.0000
  H   H8        1.0  0.35849  0.02169  0.62204  1.0000
  H   H9        1.0  0.47501  0.37541  0.23877  1.0000
  H   H10       1.0  0.52499  0.62458  0.76123  1.0000
  H   H11       1.0  0.38412  0.35727  0.09146  1.0000
  H   H12       1.0  0.61588  0.64273  0.90854  1.0000
  H   H13       1.0  0.88760  0.94616  0.18913  1.0000
  H   H14       1.0  0.11240  0.05384  0.81087  1.0000
  H   H15       1.0  0.05728  0.10126  0.06802  1.0000
  H   H16       1.0  0.94272  0.89875  0.93198  1.0000
  H   H17       1.0  0.03372  0.35256  0.09873  1.0000
  H   H18       1.0  0.96629  0.64744  0.90126  1.0000
  H   H19       1.0  0.84640  0.37331  0.24224  1.0000
  H   H20       1.0  0.15360  0.62670  0.75776  1.0000
  H   H21       1.0  0.91071  0.31910  0.90363  1.0000
  H   H22       1.0  0.08929  0.68089  0.09637  1.0000
  H   H23       1.0  0.63287  0.32114  0.90022  1.0000
  H   H24       1.0  0.36712  0.67886  0.09978  1.0000
  H   H25       1.0  0.07452  0.57040  0.33892  1.0000
  H   H26       1.0  0.92552  0.42959  0.66109  1.0000
  H   H27       1.0  0.24337  0.52325  0.46206  1.0000
  H   H28       1.0  0.75664  0.47675  0.53797  1.0000
  C   C1        1.0  0.52812  0.07390  0.12832  1.0000
  C   C2        1.0  0.47188  0.92609  0.87167  1.0000
  C   C3        1.0  0.65013  0.10422  0.32370  1.0000
  C   C4        1.0  0.34987  0.89579  0.67630  1.0000
  C   C5        1.0  0.50453  0.31999  0.15911  1.0000
  C   C6        1.0  0.49547  0.68001  0.84088  1.0000
  C   C7        1.0  0.89766  0.07164  0.13211  1.0000
  C   C8        1.0  0.10235  0.92836  0.86788  1.0000
  C   C9        1.0  0.87468  0.31755  0.16281  1.0000
  C   C10       1.0  0.12532  0.68245  0.83719  1.0000
  C   C11       1.0  0.75206  0.28589  0.96917  1.0000
  C   C12       1.0  0.24793  0.71411  0.03083  1.0000
  C   C13       1.0  0.05238  0.72025  0.45684  1.0000
  C   C14       1.0  0.94764  0.27975  0.54317  1.0000
  C   C15       1.0  0.08157  0.55995  0.44801  1.0000
  C   C16       1.0  0.91845  0.44005  0.55200  1.0000
  N   N1        1.0  0.48533  0.15063  0.23421  1.0000
  N   N2        1.0  0.51467  0.84937  0.76579  1.0000
  N   N3        1.0  0.73915  0.11669  0.03968  1.0000
  N   N4        1.0  0.26084  0.88330  0.96032  1.0000
  N   N5        1.0  0.86554  0.14821  0.23811  1.0000
  N   N6        1.0  0.13445  0.85179  0.76189  1.0000
  N   N7        1.0  0.71565  0.36789  0.07071  1.0000
  N   N8        1.0  0.28434  0.63211  0.92929  1.0000
  O   O1        1.0  0.20999  0.81459  0.39888  1.0000
  O   O2        1.0  0.78998  0.18542  0.60111  1.0000
  O   O3        1.0  0.87409  0.74761  0.52069  1.0000
  O   O4        1.0  0.12591  0.25239  0.47933  1.0000
