data_image0
_chemical_formula_structural       Cu6H24C34I6N12
_chemical_formula_sum              "Cu6 H24 C34 I6 N12"
_cell_length_a       7.57265
_cell_length_b       9.63252
_cell_length_c       15.6056
_cell_angle_alpha    87.4107
_cell_angle_beta     78.6097
_cell_angle_gamma    84.3921

_space_group_name_H-M_alt    "P 1"
_space_group_IT_number       1

loop_
  _space_group_symop_operation_xyz
  'x, y, z'

loop_
  _atom_site_type_symbol
  _atom_site_label
  _atom_site_symmetry_multiplicity
  _atom_site_fract_x
  _atom_site_fract_y
  _atom_site_fract_z
  _atom_site_occupancy
  Cu  Cu1       1.0  0.46295  0.42363  0.44452  1.0000
  Cu  Cu2       1.0  0.53704  0.57635  0.55548  1.0000
  Cu  Cu3       1.0  0.30334  0.52703  0.03409  1.0000
  Cu  Cu4       1.0  0.69665  0.47298  0.96591  1.0000
  Cu  Cu5       1.0  0.04235  0.62407  0.96330  1.0000
  Cu  Cu6       1.0  0.95766  0.37596  0.03670  1.0000
  H   H1        1.0  0.81491  0.88488  0.93193  1.0000
  H   H2        1.0  0.18516  0.11517  0.06807  1.0000
  H   H3        1.0  0.72007  0.01299  0.80651  1.0000
  H   H4        1.0  0.27995  0.98704  0.19349  1.0000
  H   H5        1.0  0.05228  0.69700  0.64118  1.0000
  H   H6        1.0  0.94768  0.30299  0.35883  1.0000
  H   H7        1.0  0.12751  0.58210  0.77356  1.0000
  H   H8        1.0  0.87248  0.41790  0.22645  1.0000
  H   H9        1.0  0.70871  0.13198  0.68893  1.0000
  H   H10       1.0  0.29127  0.86803  0.31107  1.0000
  H   H11       1.0  0.61382  0.23566  0.55592  1.0000
  H   H12       1.0  0.38617  0.76435  0.44407  1.0000
  H   H13       1.0  0.82704  0.85519  0.42017  1.0000
  H   H14       1.0  0.17294  0.14478  0.57983  1.0000
  H   H15       1.0  0.91472  0.75337  0.55007  1.0000
  H   H16       1.0  0.08524  0.24661  0.44995  1.0000
  H   H17       1.0  0.48927  0.29861  0.13417  1.0000
  H   H18       1.0  0.51076  0.70137  0.86582  1.0000
  H   H19       1.0  0.15559  0.66503  0.19524  1.0000
  H   H20       1.0  0.84446  0.33496  0.80476  1.0000
  H   H21       1.0  0.19137  0.63487  0.35325  1.0000
  H   H22       1.0  0.80864  0.36512  0.64675  1.0000
  H   H23       1.0  0.73708  0.94579  0.30755  1.0000
  H   H24       1.0  0.26291  0.05420  0.69244  1.0000
  C   C1        1.0  0.86460  0.84707  0.86593  1.0000
  C   C2        1.0  0.13544  0.15296  0.13407  1.0000
  C   C3        1.0  0.81340  0.91944  0.79424  1.0000
  C   C4        1.0  0.18662  0.08058  0.20576  1.0000
  C   C5        1.0  0.87676  0.86830  0.70961  1.0000
  C   C6        1.0  0.12323  0.13171  0.29038  1.0000
  C   C7        1.0  0.99376  0.74480  0.70347  1.0000
  C   C8        1.0  0.00622  0.25521  0.29652  1.0000
  C   C9        1.0  0.03848  0.67888  0.77790  1.0000
  C   C10       1.0  0.96151  0.32113  0.22210  1.0000
  C   C11       1.0  0.82281  0.93500  0.63056  1.0000
  C   C12       1.0  0.17718  0.06500  0.36945  1.0000
  C   C13       1.0  0.73639  0.07136  0.62967  1.0000
  C   C14       1.0  0.26359  0.92863  0.37033  1.0000
  C   C15       1.0  0.68317  0.13071  0.55478  1.0000
  C   C16       1.0  0.31682  0.86927  0.44522  1.0000
  C   C17       1.0  0.71527  0.05454  0.47749  1.0000
  C   C18       1.0  0.28471  0.94545  0.52250  1.0000
  C   C19       1.0  0.80302  0.91943  0.47773  1.0000
  C   C20       1.0  0.19697  0.08055  0.52228  1.0000
  C   C21       1.0  0.85428  0.86072  0.55256  1.0000
  C   C22       1.0  0.14569  0.13927  0.44746  1.0000
  C   C23       1.0  0.65522  0.11119  0.39926  1.0000
  C   C24       1.0  0.34477  0.88881  0.60074  1.0000
  C   C25       1.0  0.53998  0.23696  0.30373  1.0000
  C   C26       1.0  0.46003  0.76298  0.69629  1.0000
  C   C27       1.0  0.43847  0.35626  0.27040  1.0000
  C   C28       1.0  0.56155  0.64371  0.72960  1.0000
  C   C29       1.0  0.42049  0.37331  0.18321  1.0000
  C   C30       1.0  0.57951  0.62668  0.81679  1.0000
  C   C31       1.0  0.23710  0.57640  0.21785  1.0000
  C   C32       1.0  0.76292  0.42360  0.78215  1.0000
  C   C33       1.0  0.25857  0.56025  0.30411  1.0000
  C   C34       1.0  0.74144  0.43975  0.69588  1.0000
  I   I1        1.0  0.74782  0.57341  0.40645  1.0000
  I   I2        1.0  0.25217  0.42658  0.59355  1.0000
  I   I3        1.0  0.26284  0.79656  0.01308  1.0000
  I   I4        1.0  0.73716  0.20345  0.98691  1.0000
  I   I5        1.0  0.75548  0.61756  0.08969  1.0000
  I   I6        1.0  0.24454  0.38246  0.91031  1.0000
  N   N1        1.0  0.97430  0.72727  0.85889  1.0000
  N   N2        1.0  0.02573  0.27274  0.14112  1.0000
  N   N3        1.0  0.67906  0.04364  0.32205  1.0000
  N   N4        1.0  0.32094  0.95635  0.67794  1.0000
  N   N5        1.0  0.60750  0.12074  0.26101  1.0000
  N   N6        1.0  0.39251  0.87922  0.73897  1.0000
  N   N7        1.0  0.56610  0.23564  0.38819  1.0000
  N   N8        1.0  0.43389  0.76436  0.61183  1.0000
  N   N9        1.0  0.36122  0.45170  0.33123  1.0000
  N   N10       1.0  0.63877  0.54829  0.66878  1.0000
  N   N11       1.0  0.32099  0.48429  0.15654  1.0000
  N   N12       1.0  0.67902  0.51574  0.84345  1.0000
