data_image0
_chemical_formula_structural       Bi8H16C64N8O48
_chemical_formula_sum              "Bi8 H16 C64 N8 O48"
_cell_length_a       10.0702
_cell_length_b       12.2721
_cell_length_c       13.4405
_cell_angle_alpha    90.0002
_cell_angle_beta     89.9996
_cell_angle_gamma    89.9998

_space_group_name_H-M_alt    "P 1"
_space_group_IT_number       1

loop_
  _space_group_symop_operation_xyz
  'x, y, z'

loop_
  _atom_site_type_symbol
  _atom_site_label
  _atom_site_symmetry_multiplicity
  _atom_site_fract_x
  _atom_site_fract_y
  _atom_site_fract_z
  _atom_site_occupancy
  Bi  Bi1       1.0  0.21858  0.21090  0.57622  1.0000
  Bi  Bi2       1.0  0.71857  0.28910  0.92379  1.0000
  Bi  Bi3       1.0  0.78143  0.71090  0.92378  1.0000
  Bi  Bi4       1.0  0.28142  0.78911  0.57622  1.0000
  Bi  Bi5       1.0  0.78143  0.78910  0.42379  1.0000
  Bi  Bi6       1.0  0.28142  0.71089  0.07621  1.0000
  Bi  Bi7       1.0  0.21858  0.28910  0.07622  1.0000
  Bi  Bi8       1.0  0.71858  0.21089  0.42378  1.0000
  H   H1        1.0  0.62047  0.49478  0.64037  1.0000
  H   H2        1.0  0.12047  0.00522  0.85962  1.0000
  H   H3        1.0  0.37953  0.99478  0.85962  1.0000
  H   H4        1.0  0.87954  0.50522  0.64038  1.0000
  H   H5        1.0  0.37953  0.50522  0.35962  1.0000
  H   H6        1.0  0.87953  0.99478  0.14038  1.0000
  H   H7        1.0  0.62047  0.00522  0.14038  1.0000
  H   H8        1.0  0.12047  0.49478  0.35963  1.0000
  H   H9        1.0  0.36889  0.43915  0.89559  1.0000
  H   H10       1.0  0.86888  0.06084  0.60442  1.0000
  H   H11       1.0  0.63111  0.93916  0.60441  1.0000
  H   H12       1.0  0.13112  0.56084  0.89559  1.0000
  H   H13       1.0  0.63111  0.56085  0.10441  1.0000
  H   H14       1.0  0.13112  0.93916  0.39558  1.0000
  H   H15       1.0  0.36889  0.06085  0.39558  1.0000
  H   H16       1.0  0.86889  0.43915  0.10442  1.0000
  C   C1        1.0  0.48926  0.34233  0.52157  1.0000
  C   C2        1.0  0.98926  0.15767  0.97843  1.0000
  C   C3        1.0  0.51074  0.84233  0.97843  1.0000
  C   C4        1.0  0.01074  0.65767  0.52157  1.0000
  C   C5        1.0  0.51073  0.65767  0.47843  1.0000
  C   C6        1.0  0.01074  0.84233  0.02157  1.0000
  C   C7        1.0  0.48927  0.15767  0.02157  1.0000
  C   C8        1.0  0.98926  0.34233  0.47844  1.0000
  C   C9        1.0  0.45158  0.38895  0.62082  1.0000
  C   C10       1.0  0.95157  0.11105  0.87918  1.0000
  C   C11       1.0  0.54842  0.88895  0.87918  1.0000
  C   C12       1.0  0.04843  0.61105  0.62082  1.0000
  C   C13       1.0  0.54842  0.61105  0.37918  1.0000
  C   C14       1.0  0.04843  0.88895  0.12082  1.0000
  C   C15       1.0  0.45157  0.11105  0.12082  1.0000
  C   C16       1.0  0.95158  0.38895  0.37918  1.0000
  C   C17       1.0  0.53255  0.45965  0.67464  1.0000
  C   C18       1.0  0.03254  0.04035  0.82536  1.0000
  C   C19       1.0  0.46745  0.95965  0.82536  1.0000
  C   C20       1.0  0.96746  0.54035  0.67464  1.0000
  C   C21       1.0  0.46745  0.54035  0.32536  1.0000
  C   C22       1.0  0.96746  0.95965  0.17464  1.0000
  C   C23       1.0  0.53254  0.04035  0.17464  1.0000
  C   C24       1.0  0.03254  0.45965  0.32536  1.0000
  C   C25       1.0  0.50272  0.47721  0.77473  1.0000
  C   C26       1.0  0.00272  0.02280  0.72527  1.0000
  C   C27       1.0  0.49728  0.97721  0.72527  1.0000
  C   C28       1.0  0.99729  0.52279  0.77473  1.0000
  C   C29       1.0  0.49728  0.52279  0.22527  1.0000
  C   C30       1.0  0.99728  0.97721  0.27473  1.0000
  C   C31       1.0  0.50272  0.02279  0.27473  1.0000
  C   C32       1.0  0.00272  0.47720  0.22528  1.0000
  C   C33       1.0  0.59493  0.54008  0.84100  1.0000
  C   C34       1.0  0.09492  0.95993  0.65900  1.0000
  C   C35       1.0  0.40507  0.04008  0.65900  1.0000
  C   C36       1.0  0.90508  0.45992  0.84100  1.0000
  C   C37       1.0  0.40507  0.45992  0.15900  1.0000
  C   C38       1.0  0.90508  0.04007  0.34100  1.0000
  C   C39       1.0  0.59492  0.95993  0.34100  1.0000
  C   C40       1.0  0.09492  0.54007  0.15901  1.0000
  C   C41       1.0  0.39088  0.42804  0.81695  1.0000
  C   C42       1.0  0.89088  0.07196  0.68305  1.0000
  C   C43       1.0  0.60912  0.92804  0.68305  1.0000
  C   C44       1.0  0.10913  0.57196  0.81695  1.0000
  C   C45       1.0  0.60912  0.57196  0.18305  1.0000
  C   C46       1.0  0.10913  0.92804  0.31695  1.0000
  C   C47       1.0  0.39088  0.07196  0.31695  1.0000
  C   C48       1.0  0.89088  0.42804  0.18305  1.0000
  C   C49       1.0  0.30933  0.36495  0.75632  1.0000
  C   C50       1.0  0.80932  0.13505  0.74369  1.0000
  C   C51       1.0  0.69067  0.86495  0.74368  1.0000
  C   C52       1.0  0.19068  0.63506  0.75631  1.0000
  C   C53       1.0  0.69067  0.63505  0.24369  1.0000
  C   C54       1.0  0.19068  0.86495  0.25631  1.0000
  C   C55       1.0  0.30933  0.13505  0.25631  1.0000
  C   C56       1.0  0.80933  0.36495  0.24369  1.0000
  C   C57       1.0  0.18412  0.30976  0.79213  1.0000
  C   C58       1.0  0.68412  0.19024  0.70787  1.0000
  C   C59       1.0  0.81588  0.80976  0.70786  1.0000
  C   C60       1.0  0.31588  0.69024  0.79213  1.0000
  C   C61       1.0  0.81588  0.69024  0.20787  1.0000
  C   C62       1.0  0.31588  0.80976  0.29214  1.0000
  C   C63       1.0  0.18412  0.19024  0.29214  1.0000
  C   C64       1.0  0.68412  0.30976  0.20786  1.0000
  N   N1        1.0  0.34146  0.34700  0.66108  1.0000
  N   N2        1.0  0.84146  0.15301  0.83892  1.0000
  N   N3        1.0  0.65854  0.84700  0.83892  1.0000
  N   N4        1.0  0.15854  0.65300  0.66108  1.0000
  N   N5        1.0  0.65854  0.65300  0.33892  1.0000
  N   N6        1.0  0.15854  0.84699  0.16108  1.0000
  N   N7        1.0  0.34146  0.15300  0.16108  1.0000
  N   N8        1.0  0.84146  0.34700  0.33892  1.0000
  O   O1        1.0  0.41330  0.26940  0.48441  1.0000
  O   O2        1.0  0.91330  0.23060  0.01559  1.0000
  O   O3        1.0  0.58670  0.76940  0.01559  1.0000
  O   O4        1.0  0.08669  0.73060  0.48441  1.0000
  O   O5        1.0  0.58669  0.73060  0.51559  1.0000
  O   O6        1.0  0.08669  0.76940  0.98440  1.0000
  O   O7        1.0  0.41331  0.23060  0.98441  1.0000
  O   O8        1.0  0.91330  0.26940  0.51559  1.0000
  O   O9        1.0  0.59868  0.37255  0.48349  1.0000
  O   O10       1.0  0.09868  0.12745  0.01651  1.0000
  O   O11       1.0  0.40132  0.87255  0.01651  1.0000
  O   O12       1.0  0.90132  0.62745  0.48349  1.0000
  O   O13       1.0  0.40132  0.62745  0.51650  1.0000
  O   O14       1.0  0.90132  0.87255  0.98349  1.0000
  O   O15       1.0  0.59868  0.12745  0.98349  1.0000
  O   O16       1.0  0.09867  0.37255  0.51651  1.0000
  O   O17       1.0  0.65504  0.62187  0.80150  1.0000
  O   O18       1.0  0.15504  0.87813  0.69850  1.0000
  O   O19       1.0  0.34496  0.12187  0.69849  1.0000
  O   O20       1.0  0.84496  0.37813  0.80151  1.0000
  O   O21       1.0  0.34496  0.37813  0.19849  1.0000
  O   O22       1.0  0.84496  0.12187  0.30151  1.0000
  O   O23       1.0  0.65503  0.87813  0.30151  1.0000
  O   O24       1.0  0.15504  0.62187  0.19850  1.0000
  O   O25       1.0  0.61069  0.50800  0.92898  1.0000
  O   O26       1.0  0.11069  0.99200  0.57102  1.0000
  O   O27       1.0  0.38931  0.00800  0.57102  1.0000
  O   O28       1.0  0.88932  0.49200  0.92898  1.0000
  O   O29       1.0  0.38931  0.49200  0.07102  1.0000
  O   O30       1.0  0.88931  0.00800  0.42898  1.0000
  O   O31       1.0  0.61069  0.99200  0.42898  1.0000
  O   O32       1.0  0.11069  0.50800  0.07102  1.0000
  O   O33       1.0  0.14950  0.32136  0.88079  1.0000
  O   O34       1.0  0.64950  0.17864  0.61921  1.0000
  O   O35       1.0  0.85050  0.82136  0.61921  1.0000
  O   O36       1.0  0.35050  0.67864  0.88079  1.0000
  O   O37       1.0  0.85050  0.67864  0.11921  1.0000
  O   O38       1.0  0.35050  0.82136  0.38078  1.0000
  O   O39       1.0  0.14950  0.17864  0.38078  1.0000
  O   O40       1.0  0.64950  0.32136  0.11922  1.0000
  O   O41       1.0  0.11840  0.25555  0.72631  1.0000
  O   O42       1.0  0.61840  0.24446  0.77369  1.0000
  O   O43       1.0  0.88160  0.75555  0.77369  1.0000
  O   O44       1.0  0.38160  0.74445  0.72630  1.0000
  O   O45       1.0  0.88160  0.74445  0.27369  1.0000
  O   O46       1.0  0.38160  0.75554  0.22630  1.0000
  O   O47       1.0  0.11839  0.24446  0.22631  1.0000
  O   O48       1.0  0.61839  0.25555  0.27369  1.0000
