data_image0
_chemical_formula_structural       Bi4H8C32N4O24
_chemical_formula_sum              "Bi4 H8 C32 N4 O24"
_cell_length_a       5.275
_cell_length_b       9.80819
_cell_length_c       15.0875
_cell_angle_alpha    94.4314
_cell_angle_beta     90.0005
_cell_angle_gamma    90.0005

_space_group_name_H-M_alt    "P 1"
_space_group_IT_number       1

loop_
  _space_group_symop_operation_xyz
  'x, y, z'

loop_
  _atom_site_type_symbol
  _atom_site_label
  _atom_site_symmetry_multiplicity
  _atom_site_fract_x
  _atom_site_fract_y
  _atom_site_fract_z
  _atom_site_occupancy
  Bi  Bi1       1.0  0.81813  0.35387  0.58211  1.0000
  Bi  Bi2       1.0  0.31813  0.14612  0.91789  1.0000
  Bi  Bi3       1.0  0.18185  0.64613  0.41789  1.0000
  Bi  Bi4       1.0  0.68187  0.85387  0.08211  1.0000
  H   H1        1.0  0.78459  0.53478  0.93516  1.0000
  H   H2        1.0  0.28458  0.96521  0.56484  1.0000
  H   H3        1.0  0.21542  0.46522  0.06484  1.0000
  H   H4        1.0  0.71541  0.03479  0.43517  1.0000
  H   H5        1.0  0.42839  0.68656  0.79587  1.0000
  H   H6        1.0  0.92838  0.81344  0.70413  1.0000
  H   H7        1.0  0.57162  0.31344  0.20413  1.0000
  H   H8        1.0  0.07162  0.18656  0.29587  1.0000
  C   C1        1.0  0.61546  0.36215  0.79081  1.0000
  C   C2        1.0  0.11545  0.13784  0.70918  1.0000
  C   C3        1.0  0.38454  0.63785  0.20919  1.0000
  C   C4        1.0  0.88455  0.86216  0.29082  1.0000
  C   C5        1.0  0.83250  0.46290  0.79760  1.0000
  C   C6        1.0  0.33249  0.03709  0.70240  1.0000
  C   C7        1.0  0.16750  0.53710  0.20240  1.0000
  C   C8        1.0  0.66751  0.96291  0.29760  1.0000
  C   C9        1.0  0.89951  0.53986  0.87576  1.0000
  C   C10       1.0  0.39949  0.96013  0.62423  1.0000
  C   C11       1.0  0.10050  0.46014  0.12424  1.0000
  C   C12       1.0  0.60051  0.03987  0.37577  1.0000
  C   C13       1.0  0.11670  0.62163  0.87589  1.0000
  C   C14       1.0  0.61669  0.87836  0.62411  1.0000
  C   C15       1.0  0.88330  0.37837  0.12411  1.0000
  C   C16       1.0  0.38330  0.12163  0.37589  1.0000
  C   C17       1.0  0.20603  0.70038  0.96023  1.0000
  C   C18       1.0  0.70602  0.79962  0.53977  1.0000
  C   C19       1.0  0.79398  0.29962  0.03977  1.0000
  C   C20       1.0  0.29397  0.20038  0.46023  1.0000
  C   C21       1.0  0.25629  0.62589  0.79747  1.0000
  C   C22       1.0  0.75628  0.87410  0.70253  1.0000
  C   C23       1.0  0.74373  0.37411  0.20253  1.0000
  C   C24       1.0  0.24373  0.12590  0.29747  1.0000
  C   C25       1.0  0.17179  0.55027  0.72131  1.0000
  C   C26       1.0  0.67178  0.94972  0.77869  1.0000
  C   C27       1.0  0.82820  0.44973  0.27869  1.0000
  C   C28       1.0  0.32823  0.05028  0.22130  1.0000
  C   C29       1.0  0.31131  0.54439  0.63419  1.0000
  C   C30       1.0  0.81132  0.95561  0.86581  1.0000
  C   C31       1.0  0.68868  0.45561  0.36581  1.0000
  C   C32       1.0  0.18871  0.04439  0.13419  1.0000
  N   N1        1.0  0.96496  0.47145  0.72259  1.0000
  N   N2        1.0  0.46494  0.02854  0.77741  1.0000
  N   N3        1.0  0.03504  0.52855  0.27741  1.0000
  N   N4        1.0  0.53507  0.97146  0.22259  1.0000
  O   O1        1.0  0.55568  0.30978  0.71461  1.0000
  O   O2        1.0  0.05567  0.19022  0.78539  1.0000
  O   O3        1.0  0.44431  0.69022  0.28539  1.0000
  O   O4        1.0  0.94432  0.80978  0.21461  1.0000
  O   O5        1.0  0.50827  0.33892  0.86410  1.0000
  O   O6        1.0  0.00825  0.16106  0.63590  1.0000
  O   O7        1.0  0.49173  0.66108  0.13591  1.0000
  O   O8        1.0  0.99174  0.83894  0.36410  1.0000
  O   O9        1.0  0.04932  0.72060  0.02335  1.0000
  O   O10       1.0  0.54932  0.77940  0.47665  1.0000
  O   O11       1.0  0.95068  0.27940  0.97665  1.0000
  O   O12       1.0  0.45067  0.22060  0.52335  1.0000
  O   O13       1.0  0.43891  0.73505  0.96115  1.0000
  O   O14       1.0  0.93890  0.76495  0.53885  1.0000
  O   O15       1.0  0.56110  0.26495  0.03885  1.0000
  O   O16       1.0  0.06109  0.23505  0.46115  1.0000
  O   O17       1.0  0.53939  0.58011  0.63347  1.0000
  O   O18       1.0  0.03937  0.91989  0.86653  1.0000
  O   O19       1.0  0.46061  0.41989  0.36653  1.0000
  O   O20       1.0  0.96063  0.08011  0.13347  1.0000
  O   O21       1.0  0.18641  0.49734  0.56495  1.0000
  O   O22       1.0  0.68641  0.00266  0.93505  1.0000
  O   O23       1.0  0.81357  0.50266  0.43505  1.0000
  O   O24       1.0  0.31360  0.99734  0.06495  1.0000
