data_image0
_chemical_formula_structural       Zn2H16C28N16
_chemical_formula_sum              "Zn2 H16 C28 N16"
_cell_length_a       8.71803
_cell_length_b       9.34451
_cell_length_c       9.34449
_cell_angle_alpha    76.7002
_cell_angle_beta     81.4172
_cell_angle_gamma    81.4172

_space_group_name_H-M_alt    "P 1"
_space_group_IT_number       1

loop_
  _space_group_symop_operation_xyz
  'x, y, z'

loop_
  _atom_site_type_symbol
  _atom_site_label
  _atom_site_symmetry_multiplicity
  _atom_site_fract_x
  _atom_site_fract_y
  _atom_site_fract_z
  _atom_site_occupancy
  Zn  Zn1       1.0  0.75000  0.30644  0.69356  1.0000
  Zn  Zn2       1.0  0.25000  0.69356  0.30644  1.0000
  H   H1        1.0  0.12302  0.96307  0.42171  1.0000
  H   H2        1.0  0.37698  0.57829  0.03693  1.0000
  H   H3        1.0  0.87699  0.03693  0.57829  1.0000
  H   H4        1.0  0.62302  0.42171  0.96307  1.0000
  H   H5        1.0  0.54132  0.84617  0.17726  1.0000
  H   H6        1.0  0.95869  0.82275  0.15383  1.0000
  H   H7        1.0  0.45868  0.15383  0.82274  1.0000
  H   H8        1.0  0.04131  0.17725  0.84617  1.0000
  H   H9        1.0  0.63794  0.08825  0.17253  1.0000
  H   H10       1.0  0.86206  0.82748  0.91175  1.0000
  H   H11       1.0  0.36206  0.91175  0.82746  1.0000
  H   H12       1.0  0.13794  0.17253  0.08825  1.0000
  H   H13       1.0  0.46404  0.27390  0.29843  1.0000
  H   H14       1.0  0.03595  0.70157  0.72610  1.0000
  H   H15       1.0  0.53596  0.72611  0.70156  1.0000
  H   H16       1.0  0.96404  0.29843  0.27390  1.0000
  C   C1        1.0  0.03107  0.42468  0.49663  1.0000
  C   C2        1.0  0.46893  0.50337  0.57532  1.0000
  C   C3        1.0  0.96892  0.57532  0.50337  1.0000
  C   C4        1.0  0.53108  0.49663  0.42468  1.0000
  C   C5        1.0  0.16853  0.23349  0.44539  1.0000
  C   C6        1.0  0.33146  0.55461  0.76651  1.0000
  C   C7        1.0  0.83147  0.76651  0.55461  1.0000
  C   C8        1.0  0.66853  0.44538  0.23349  1.0000
  C   C9        1.0  0.28109  0.13229  0.37299  1.0000
  C   C10       1.0  0.21891  0.62701  0.86771  1.0000
  C   C11       1.0  0.71892  0.86772  0.62701  1.0000
  C   C12       1.0  0.78109  0.37299  0.13229  1.0000
  C   C13       1.0  0.23718  0.99469  0.36972  1.0000
  C   C14       1.0  0.26282  0.63029  0.00531  1.0000
  C   C15       1.0  0.76282  0.00531  0.63029  1.0000
  C   C16       1.0  0.73718  0.36971  0.99469  1.0000
  C   C17       1.0  0.47062  0.93020  0.23082  1.0000
  C   C18       1.0  0.02939  0.76918  0.06980  1.0000
  C   C19       1.0  0.52938  0.06980  0.76917  1.0000
  C   C20       1.0  0.97062  0.23082  0.93020  1.0000
  C   C21       1.0  0.52297  0.06439  0.22899  1.0000
  C   C22       1.0  0.97703  0.77101  0.93561  1.0000
  C   C23       1.0  0.47703  0.93562  0.77100  1.0000
  C   C24       1.0  0.02297  0.22899  0.06439  1.0000
  C   C25       1.0  0.42710  0.16745  0.29961  1.0000
  C   C26       1.0  0.07290  0.70039  0.83255  1.0000
  C   C27       1.0  0.57290  0.83255  0.70039  1.0000
  C   C28       1.0  0.92710  0.29960  0.16746  1.0000
  N   N1        1.0  0.95833  0.30710  0.57287  1.0000
  N   N2        1.0  0.54168  0.42713  0.69291  1.0000
  N   N3        1.0  0.04168  0.69290  0.42713  1.0000
  N   N4        1.0  0.45833  0.57287  0.30710  1.0000
  N   N5        1.0  0.04677  0.18339  0.54131  1.0000
  N   N6        1.0  0.45323  0.45869  0.81661  1.0000
  N   N7        1.0  0.95323  0.81661  0.45869  1.0000
  N   N8        1.0  0.54677  0.54130  0.18339  1.0000
  N   N9        1.0  0.16412  0.38373  0.41473  1.0000
  N   N10       1.0  0.33588  0.58527  0.61627  1.0000
  N   N11       1.0  0.83589  0.61627  0.58527  1.0000
  N   N12       1.0  0.66412  0.41473  0.38373  1.0000
  N   N13       1.0  0.32853  0.89704  0.29936  1.0000
  N   N14       1.0  0.17147  0.70064  0.10296  1.0000
  N   N15       1.0  0.67147  0.10296  0.70064  1.0000
  N   N16       1.0  0.82853  0.29936  0.89704  1.0000
