data_image0
_chemical_formula_structural       Ni2H16C28N16
_chemical_formula_sum              "Ni2 H16 C28 N16"
_cell_length_a       8.87554
_cell_length_b       8.87555
_cell_length_c       8.93466
_cell_angle_alpha    84.9913
_cell_angle_beta     84.9911
_cell_angle_gamma    76.9201

_space_group_name_H-M_alt    "P 1"
_space_group_IT_number       1

loop_
  _space_group_symop_operation_xyz
  'x, y, z'

loop_
  _atom_site_type_symbol
  _atom_site_label
  _atom_site_symmetry_multiplicity
  _atom_site_fract_x
  _atom_site_fract_y
  _atom_site_fract_z
  _atom_site_occupancy
  Ni  Ni1       1.0  0.66262  0.33737  0.75000  1.0000
  Ni  Ni2       1.0  0.33738  0.66262  0.25000  1.0000
  H   H1        1.0  0.26474  0.30423  0.43473  1.0000
  H   H2        1.0  0.69577  0.73526  0.06527  1.0000
  H   H3        1.0  0.73526  0.69576  0.56527  1.0000
  H   H4        1.0  0.30423  0.26474  0.93472  1.0000
  H   H5        1.0  0.13149  0.11731  0.59031  1.0000
  H   H6        1.0  0.88269  0.86851  0.90970  1.0000
  H   H7        1.0  0.86850  0.88269  0.40969  1.0000
  H   H8        1.0  0.11731  0.13150  0.09031  1.0000
  H   H9        1.0  0.16527  0.84736  0.50819  1.0000
  H   H10       1.0  0.15263  0.83473  0.99181  1.0000
  H   H11       1.0  0.83473  0.15263  0.49181  1.0000
  H   H12       1.0  0.84737  0.16527  0.00819  1.0000
  H   H13       1.0  0.46538  0.93658  0.14577  1.0000
  H   H14       1.0  0.06342  0.53462  0.35423  1.0000
  H   H15       1.0  0.53462  0.06341  0.85423  1.0000
  H   H16       1.0  0.93658  0.46538  0.64577  1.0000
  C   C1        1.0  0.49830  0.42412  0.03280  1.0000
  C   C2        1.0  0.57588  0.50170  0.46720  1.0000
  C   C3        1.0  0.50170  0.57587  0.96721  1.0000
  C   C4        1.0  0.42413  0.49830  0.53280  1.0000
  C   C5        1.0  0.45284  0.23371  0.17261  1.0000
  C   C6        1.0  0.76629  0.54716  0.32739  1.0000
  C   C7        1.0  0.54716  0.76629  0.82739  1.0000
  C   C8        1.0  0.23371  0.45284  0.67261  1.0000
  C   C9        1.0  0.37961  0.13342  0.27976  1.0000
  C   C10       1.0  0.86658  0.62039  0.22024  1.0000
  C   C11       1.0  0.62039  0.86658  0.72024  1.0000
  C   C12       1.0  0.13342  0.37961  0.77975  1.0000
  C   C13       1.0  0.28269  0.18471  0.40581  1.0000
  C   C14       1.0  0.81529  0.71731  0.09419  1.0000
  C   C15       1.0  0.71731  0.81529  0.59419  1.0000
  C   C16       1.0  0.18470  0.28270  0.90581  1.0000
  C   C17       1.0  0.20686  0.08104  0.49100  1.0000
  C   C18       1.0  0.91896  0.79314  0.00900  1.0000
  C   C19       1.0  0.79313  0.91896  0.50900  1.0000
  C   C20       1.0  0.08104  0.20687  0.99100  1.0000
  C   C21       1.0  0.22503  0.93097  0.44698  1.0000
  C   C22       1.0  0.06903  0.77497  0.05302  1.0000
  C   C23       1.0  0.77496  0.06903  0.55302  1.0000
  C   C24       1.0  0.93097  0.22504  0.94698  1.0000
  C   C25       1.0  0.39476  0.97895  0.24546  1.0000
  C   C26       1.0  0.02105  0.60524  0.25454  1.0000
  C   C27       1.0  0.60524  0.02105  0.75454  1.0000
  C   C28       1.0  0.97895  0.39476  0.74546  1.0000
  N   N1        1.0  0.57320  0.29689  0.96464  1.0000
  N   N2        1.0  0.70311  0.42680  0.53536  1.0000
  N   N3        1.0  0.42680  0.70311  0.03536  1.0000
  N   N4        1.0  0.29689  0.57320  0.46464  1.0000
  N   N5        1.0  0.54633  0.17311  0.05462  1.0000
  N   N6        1.0  0.82689  0.45367  0.44538  1.0000
  N   N7        1.0  0.45367  0.82688  0.94538  1.0000
  N   N8        1.0  0.17311  0.54634  0.55462  1.0000
  N   N9        1.0  0.42045  0.39250  0.16376  1.0000
  N   N10       1.0  0.60750  0.57956  0.33624  1.0000
  N   N11       1.0  0.57956  0.60750  0.83624  1.0000
  N   N12       1.0  0.39250  0.42044  0.66376  1.0000
  N   N13       1.0  0.31725  0.88169  0.32429  1.0000
  N   N14       1.0  0.11831  0.68275  0.17571  1.0000
  N   N15       1.0  0.68274  0.11831  0.67571  1.0000
  N   N16       1.0  0.88168  0.31726  0.82429  1.0000
