data_image0
_chemical_formula_structural       Cd2H8C14N8Cl2
_chemical_formula_sum              "Cd2 H8 C14 N8 Cl2"
_cell_length_a       6.99627
_cell_length_b       7.5496
_cell_length_c       8.46778
_cell_angle_alpha    95.8742
_cell_angle_beta     104.775
_cell_angle_gamma    113.609

_space_group_name_H-M_alt    "P 1"
_space_group_IT_number       1

loop_
  _space_group_symop_operation_xyz
  'x, y, z'

loop_
  _atom_site_type_symbol
  _atom_site_label
  _atom_site_symmetry_multiplicity
  _atom_site_fract_x
  _atom_site_fract_y
  _atom_site_fract_z
  _atom_site_occupancy
  Cd  Cd1       1.0  0.00475  0.21250  0.37907  1.0000
  Cd  Cd2       1.0  0.99525  0.78750  0.62093  1.0000
  H   H1        1.0  0.20404  0.07687  0.99364  1.0000
  H   H2        1.0  0.79596  0.92313  0.00636  1.0000
  H   H3        1.0  0.11562  0.50313  0.83211  1.0000
  H   H4        1.0  0.88438  0.49687  0.16789  1.0000
  H   H5        1.0  0.35591  0.51324  0.11055  1.0000
  H   H6        1.0  0.64409  0.48676  0.88945  1.0000
  H   H7        1.0  0.52951  0.82406  0.33862  1.0000
  H   H8        1.0  0.47049  0.17594  0.66137  1.0000
  C   C1        1.0  0.52249  0.42484  0.46100  1.0000
  C   C2        1.0  0.47751  0.57517  0.53900  1.0000
  C   C3        1.0  0.47810  0.16110  0.31131  1.0000
  C   C4        1.0  0.52190  0.83890  0.68869  1.0000
  C   C5        1.0  0.37856  0.97405  0.18525  1.0000
  C   C6        1.0  0.62144  0.02595  0.81475  1.0000
  C   C7        1.0  0.23928  0.95442  0.02600  1.0000
  C   C8        1.0  0.76072  0.04558  0.97400  1.0000
  C   C9        1.0  0.19152  0.63474  0.93488  1.0000
  C   C10       1.0  0.80848  0.36526  0.06511  1.0000
  C   C11       1.0  0.32670  0.64153  0.08972  1.0000
  C   C12       1.0  0.67329  0.35847  0.91028  1.0000
  C   C13       1.0  0.42194  0.81349  0.21654  1.0000
  C   C14       1.0  0.57807  0.18651  0.78347  1.0000
  N   N1        1.0  0.36303  0.25835  0.34844  1.0000
  N   N2        1.0  0.63698  0.74165  0.65157  1.0000
  N   N3        1.0  0.72452  0.43461  0.49414  1.0000
  N   N4        1.0  0.27548  0.56539  0.50586  1.0000
  N   N5        1.0  0.69615  0.26391  0.39753  1.0000
  N   N6        1.0  0.30385  0.73609  0.60246  1.0000
  N   N7        1.0  0.14906  0.78929  0.90381  1.0000
  N   N8        1.0  0.85094  0.21071  0.09619  1.0000
  Cl  Cl1       1.0  0.09301  0.17228  0.69152  1.0000
  Cl  Cl2       1.0  0.90698  0.82772  0.30848  1.0000
