data_image0
_chemical_formula_structural       Cd2H36C46N20O8
_chemical_formula_sum              "Cd2 H36 C46 N20 O8"
_cell_length_a       8.58289
_cell_length_b       10.4813
_cell_length_c       13.7954
_cell_angle_alpha    80.953
_cell_angle_beta     78.1438
_cell_angle_gamma    80.1513

_space_group_name_H-M_alt    "P 1"
_space_group_IT_number       1

loop_
  _space_group_symop_operation_xyz
  'x, y, z'

loop_
  _atom_site_type_symbol
  _atom_site_label
  _atom_site_symmetry_multiplicity
  _atom_site_fract_x
  _atom_site_fract_y
  _atom_site_fract_z
  _atom_site_occupancy
  Cd  Cd1       1.0  0.64706  0.61442  0.53345  1.0000
  Cd  Cd2       1.0  0.35294  0.38559  0.46655  1.0000
  H   H1        1.0  0.97548  0.25014  0.64506  1.0000
  H   H2        1.0  0.02452  0.74986  0.35494  1.0000
  H   H3        1.0  0.12839  0.02674  0.67539  1.0000
  H   H4        1.0  0.87161  0.97326  0.32461  1.0000
  H   H5        1.0  0.01756  0.83410  0.64082  1.0000
  H   H6        1.0  0.98244  0.16590  0.35918  1.0000
  H   H7        1.0  0.61385  0.09051  0.54705  1.0000
  H   H8        1.0  0.38615  0.90949  0.45295  1.0000
  H   H9        1.0  0.67094  0.77837  0.32046  1.0000
  H   H10       1.0  0.32906  0.22163  0.67954  1.0000
  H   H11       1.0  0.07126  0.60711  0.11208  1.0000
  H   H12       1.0  0.92874  0.39289  0.88792  1.0000
  H   H13       1.0  0.11722  0.42350  0.25001  1.0000
  H   H14       1.0  0.88278  0.57649  0.74999  1.0000
  H   H15       1.0  0.93897  0.42959  0.41504  1.0000
  H   H16       1.0  0.06103  0.57041  0.58496  1.0000
  H   H17       1.0  0.93669  0.94333  0.85061  1.0000
  H   H18       1.0  0.06331  0.05667  0.14939  1.0000
  H   H19       1.0  0.81664  0.09203  0.88329  1.0000
  H   H20       1.0  0.18336  0.90797  0.11671  1.0000
  H   H21       1.0  0.68496  0.99904  0.77942  1.0000
  H   H22       1.0  0.31504  0.00096  0.22058  1.0000
  H   H23       1.0  0.56664  0.99574  0.89991  1.0000
  H   H24       1.0  0.43336  0.00426  0.10009  1.0000
  H   H25       1.0  0.58936  0.79678  0.80792  1.0000
  H   H26       1.0  0.41064  0.20322  0.19208  1.0000
  H   H27       1.0  0.79268  0.75534  0.82346  1.0000
  H   H28       1.0  0.20732  0.24466  0.17654  1.0000
  H   H29       1.0  0.43815  0.56125  0.26322  1.0000
  H   H30       1.0  0.56185  0.43875  0.73678  1.0000
  H   H31       1.0  0.80459  0.35828  0.05367  1.0000
  H   H32       1.0  0.19541  0.64172  0.94633  1.0000
  H   H33       1.0  0.82031  0.16906  0.18836  1.0000
  H   H34       1.0  0.17969  0.83094  0.81164  1.0000
  H   H35       1.0  0.64603  0.18795  0.35704  1.0000
  H   H36       1.0  0.35397  0.81204  0.64296  1.0000
  C   C1        1.0  0.70245  0.32106  0.57588  1.0000
  C   C2        1.0  0.29755  0.67894  0.42412  1.0000
  C   C3        1.0  0.78630  0.18408  0.59579  1.0000
  C   C4        1.0  0.21370  0.81592  0.40421  1.0000
  C   C5        1.0  0.93071  0.16468  0.63205  1.0000
  C   C6        1.0  0.06929  0.83532  0.36795  1.0000
  C   C7        1.0  0.01483  0.03974  0.64881  1.0000
  C   C8        1.0  0.98517  0.96026  0.35119  1.0000
  C   C9        1.0  0.95414  0.93307  0.62949  1.0000
  C   C10       1.0  0.04586  0.06693  0.37051  1.0000
  C   C11       1.0  0.81003  0.95114  0.59286  1.0000
  C   C12       1.0  0.18997  0.04886  0.40714  1.0000
  C   C13       1.0  0.74973  0.83444  0.57124  1.0000
  C   C14       1.0  0.25027  0.16556  0.42876  1.0000
  C   C15       1.0  0.72559  0.07694  0.57598  1.0000
  C   C16       1.0  0.27441  0.92306  0.42402  1.0000
  C   C17       1.0  0.77111  0.70198  0.30095  1.0000
  C   C18       1.0  0.22889  0.29802  0.69905  1.0000
  C   C19       1.0  0.86808  0.70821  0.20586  1.0000
  C   C20       1.0  0.13192  0.29179  0.79414  1.0000
  C   C21       1.0  0.99331  0.60543  0.18522  1.0000
  C   C22       1.0  0.00669  0.39457  0.81477  1.0000
  C   C23       1.0  0.01875  0.50340  0.26018  1.0000
  C   C24       1.0  0.98125  0.49660  0.73982  1.0000
  C   C25       1.0  0.91914  0.50586  0.35360  1.0000
  C   C26       1.0  0.08086  0.49414  0.64640  1.0000
  C   C27       1.0  0.83865  0.82098  0.13195  1.0000
  C   C28       1.0  0.16135  0.17902  0.86805  1.0000
  C   C29       1.0  0.82200  0.98569  0.89270  1.0000
  C   C30       1.0  0.17800  0.01431  0.10730  1.0000
  C   C31       1.0  0.67901  0.95146  0.85666  1.0000
  C   C32       1.0  0.32099  0.04854  0.14334  1.0000
  C   C33       1.0  0.67512  0.80680  0.85452  1.0000
  C   C34       1.0  0.32488  0.19320  0.14547  1.0000
  C   C35       1.0  0.60064  0.59422  0.07692  1.0000
  C   C36       1.0  0.39936  0.40578  0.92308  1.0000
  C   C37       1.0  0.52574  0.47656  0.24399  1.0000
  C   C38       1.0  0.47426  0.52344  0.75601  1.0000
  C   C39       1.0  0.61956  0.47604  0.14783  1.0000
  C   C40       1.0  0.38044  0.52397  0.85217  1.0000
  C   C41       1.0  0.72877  0.36371  0.12707  1.0000
  C   C42       1.0  0.27123  0.63629  0.87293  1.0000
  C   C43       1.0  0.73958  0.25877  0.20231  1.0000
  C   C44       1.0  0.26042  0.74123  0.79769  1.0000
  C   C45       1.0  0.64291  0.26793  0.29604  1.0000
  C   C46       1.0  0.35709  0.73207  0.70396  1.0000
  N   N1        1.0  0.53790  0.37573  0.31589  1.0000
  N   N2        1.0  0.46211  0.62426  0.68411  1.0000
  N   N3        1.0  0.79724  0.60289  0.37287  1.0000
  N   N4        1.0  0.20276  0.39711  0.62713  1.0000
  N   N5        1.0  0.50340  0.70522  0.10394  1.0000
  N   N6        1.0  0.49660  0.29478  0.89606  1.0000
  N   N7        1.0  0.52038  0.79415  0.02544  1.0000
  N   N8        1.0  0.47962  0.20585  0.97456  1.0000
  N   N9        1.0  0.62487  0.73670  0.95395  1.0000
  N   N10       1.0  0.37513  0.26330  0.04605  1.0000
  N   N11       1.0  0.67840  0.61201  0.98173  1.0000
  N   N12       1.0  0.32160  0.38799  0.01827  1.0000
  N   N13       1.0  0.82436  0.94163  0.99830  1.0000
  N   N14       1.0  0.17564  0.05837  0.00170  1.0000
  N   N15       1.0  0.75868  0.01689  0.06997  1.0000
  N   N16       1.0  0.24132  0.98311  0.93003  1.0000
  N   N17       1.0  0.87742  0.81926  0.03268  1.0000
  N   N18       1.0  0.12258  0.18074  0.96732  1.0000
  N   N19       1.0  0.76717  0.94172  0.15538  1.0000
  N   N20       1.0  0.23283  0.05828  0.84462  1.0000
  O   O1        1.0  0.77764  0.41358  0.58349  1.0000
  O   O2        1.0  0.22236  0.58642  0.41651  1.0000
  O   O3        1.0  0.56375  0.33899  0.55369  1.0000
  O   O4        1.0  0.43625  0.66101  0.44631  1.0000
  O   O5        1.0  0.64161  0.85051  0.51785  1.0000
  O   O6        1.0  0.35839  0.14949  0.48215  1.0000
  O   O7        1.0  0.81110  0.72167  0.60810  1.0000
  O   O8        1.0  0.18890  0.27833  0.39190  1.0000
