data_image0
_chemical_formula_structural       Cu4H16C32N8O16
_chemical_formula_sum              "Cu4 H16 C32 N8 O16"
_cell_length_a       6.6919
_cell_length_b       7.43854
_cell_length_c       15.733
_cell_angle_alpha    90.0009
_cell_angle_beta     90.0005
_cell_angle_gamma    90.0002

_space_group_name_H-M_alt    "P 1"
_space_group_IT_number       1

loop_
  _space_group_symop_operation_xyz
  'x, y, z'

loop_
  _atom_site_type_symbol
  _atom_site_label
  _atom_site_symmetry_multiplicity
  _atom_site_fract_x
  _atom_site_fract_y
  _atom_site_fract_z
  _atom_site_occupancy
  Cu  Cu1       1.0  0.25002  0.93017  0.31966  1.0000
  Cu  Cu2       1.0  0.24999  0.43018  0.18035  1.0000
  Cu  Cu3       1.0  0.75000  0.57056  0.82041  1.0000
  Cu  Cu4       1.0  0.74999  0.07060  0.67958  1.0000
  H   H1        1.0  0.56342  0.00447  0.44297  1.0000
  H   H2        1.0  0.56338  0.50455  0.05705  1.0000
  H   H3        1.0  0.93663  0.00446  0.44297  1.0000
  H   H4        1.0  0.06323  0.49492  0.94299  1.0000
  H   H5        1.0  0.43680  0.99491  0.55701  1.0000
  H   H6        1.0  0.43679  0.49492  0.94299  1.0000
  H   H7        1.0  0.06318  0.99490  0.55701  1.0000
  H   H8        1.0  0.93660  0.50455  0.05705  1.0000
  H   H9        1.0  0.56302  0.82034  0.19308  1.0000
  H   H10       1.0  0.56298  0.32024  0.30689  1.0000
  H   H11       1.0  0.93700  0.82033  0.19309  1.0000
  H   H12       1.0  0.06271  0.68020  0.69334  1.0000
  H   H13       1.0  0.43729  0.18020  0.80666  1.0000
  H   H14       1.0  0.43728  0.68020  0.69334  1.0000
  H   H15       1.0  0.06270  0.18020  0.80666  1.0000
  H   H16       1.0  0.93700  0.32024  0.30689  1.0000
  C   C1        1.0  0.24999  0.36402  0.42038  1.0000
  C   C2        1.0  0.25000  0.86406  0.07962  1.0000
  C   C3        1.0  0.75001  0.13614  0.92004  1.0000
  C   C4        1.0  0.75000  0.63618  0.57996  1.0000
  C   C5        1.0  0.25000  0.47922  0.50004  1.0000
  C   C6        1.0  0.25000  0.97927  0.99997  1.0000
  C   C7        1.0  0.75001  0.01933  0.99925  1.0000
  C   C8        1.0  0.75000  0.51939  0.50075  1.0000
  C   C9        1.0  0.25000  0.64255  0.44390  1.0000
  C   C10       1.0  0.24999  0.14262  0.05610  1.0000
  C   C11       1.0  0.75000  0.85758  0.94228  1.0000
  C   C12       1.0  0.75000  0.35762  0.55771  1.0000
  C   C13       1.0  0.24998  0.52989  0.36827  1.0000
  C   C14       1.0  0.25000  0.02994  0.13174  1.0000
  C   C15       1.0  0.75000  0.97134  0.86727  1.0000
  C   C16       1.0  0.75000  0.47136  0.63273  1.0000
  C   C17       1.0  0.64629  0.96019  0.38765  1.0000
  C   C18       1.0  0.64628  0.46026  0.11237  1.0000
  C   C19       1.0  0.85374  0.96018  0.38765  1.0000
  C   C20       1.0  0.14631  0.53946  0.88777  1.0000
  C   C21       1.0  0.35369  0.03941  0.61223  1.0000
  C   C22       1.0  0.35370  0.53946  0.88777  1.0000
  C   C23       1.0  0.14630  0.03941  0.61223  1.0000
  C   C24       1.0  0.85369  0.46026  0.11237  1.0000
  C   C25       1.0  0.64620  0.85860  0.24957  1.0000
  C   C26       1.0  0.64617  0.35854  0.25044  1.0000
  C   C27       1.0  0.85382  0.85860  0.24956  1.0000
  C   C28       1.0  0.14619  0.64173  0.74970  1.0000
  C   C29       1.0  0.35380  0.14172  0.75029  1.0000
  C   C30       1.0  0.35380  0.64173  0.74970  1.0000
  C   C31       1.0  0.14619  0.14172  0.75029  1.0000
  C   C32       1.0  0.85380  0.35854  0.25043  1.0000
  N   N1        1.0  0.54200  0.90980  0.31870  1.0000
  N   N2        1.0  0.54197  0.40979  0.18130  1.0000
  N   N3        1.0  0.95803  0.90980  0.31870  1.0000
  N   N4        1.0  0.04240  0.59012  0.81884  1.0000
  N   N5        1.0  0.45759  0.09009  0.68116  1.0000
  N   N6        1.0  0.45760  0.59012  0.81884  1.0000
  N   N7        1.0  0.04239  0.09009  0.68116  1.0000
  N   N8        1.0  0.95800  0.40979  0.18130  1.0000
  O   O1        1.0  0.24999  0.19903  0.40705  1.0000
  O   O2        1.0  0.25000  0.69910  0.09294  1.0000
  O   O3        1.0  0.75001  0.30144  0.90744  1.0000
  O   O4        1.0  0.75000  0.80148  0.59257  1.0000
  O   O5        1.0  0.25002  0.45057  0.57716  1.0000
  O   O6        1.0  0.25000  0.95058  0.92284  1.0000
  O   O7        1.0  0.75001  0.04654  0.07652  1.0000
  O   O8        1.0  0.74999  0.54665  0.42348  1.0000
  O   O9        1.0  0.25001  0.81012  0.45184  1.0000
  O   O10       1.0  0.24998  0.31017  0.04817  1.0000
  O   O11       1.0  0.75000  0.68933  0.94940  1.0000
  O   O12       1.0  0.75000  0.18936  0.55059  1.0000
  O   O13       1.0  0.24998  0.57931  0.29117  1.0000
  O   O14       1.0  0.25001  0.07937  0.20884  1.0000
  O   O15       1.0  0.75000  0.92292  0.78987  1.0000
  O   O16       1.0  0.75000  0.42291  0.71011  1.0000
