data_image0
_chemical_formula_structural       V8Zn4H28C32N12O24
_chemical_formula_sum              "V8 Zn4 H28 C32 N12 O24"
_cell_length_a       8.47992
_cell_length_b       10.3652
_cell_length_c       15.4395
_cell_angle_alpha    92.8847
_cell_angle_beta     105.738
_cell_angle_gamma    111.966

_space_group_name_H-M_alt    "P 1"
_space_group_IT_number       1

loop_
  _space_group_symop_operation_xyz
  'x, y, z'

loop_
  _atom_site_type_symbol
  _atom_site_label
  _atom_site_symmetry_multiplicity
  _atom_site_fract_x
  _atom_site_fract_y
  _atom_site_fract_z
  _atom_site_occupancy
  V   V1        1.0  0.91960  0.55277  0.39391  1.0000
  V   V2        1.0  0.08039  0.44723  0.60609  1.0000
  V   V3        1.0  0.08156  0.44889  0.10657  1.0000
  V   V4        1.0  0.91844  0.55110  0.89343  1.0000
  V   V5        1.0  0.51818  0.54616  0.39202  1.0000
  V   V6        1.0  0.48182  0.45385  0.60798  1.0000
  V   V7        1.0  0.48242  0.45581  0.10840  1.0000
  V   V8        1.0  0.51758  0.54419  0.89161  1.0000
  Zn  Zn1       1.0  0.74928  0.26441  0.20220  1.0000
  Zn  Zn2       1.0  0.25072  0.73559  0.79780  1.0000
  Zn  Zn3       1.0  0.25234  0.73790  0.29842  1.0000
  Zn  Zn4       1.0  0.74766  0.26211  0.70159  1.0000
  H   H1        1.0  0.54195  0.73934  0.16471  1.0000
  H   H2        1.0  0.45805  0.26066  0.83529  1.0000
  H   H3        1.0  0.45559  0.26305  0.33404  1.0000
  H   H4        1.0  0.54442  0.73695  0.66596  1.0000
  H   H5        1.0  0.09847  0.32366  0.37985  1.0000
  H   H6        1.0  0.90153  0.67634  0.62015  1.0000
  H   H7        1.0  0.22512  0.17609  0.47475  1.0000
  H   H8        1.0  0.77488  0.82391  0.52525  1.0000
  H   H9        1.0  0.06474  0.90939  0.43160  1.0000
  H   H10       1.0  0.93526  0.09061  0.56840  1.0000
  H   H11       1.0  0.78485  0.80542  0.30041  1.0000
  H   H12       1.0  0.21515  0.19458  0.69959  1.0000
  H   H13       1.0  0.35104  0.03242  0.03950  1.0000
  H   H14       1.0  0.64896  0.96758  0.96049  1.0000
  H   H15       1.0  0.28381  0.74696  0.03293  1.0000
  H   H16       1.0  0.71619  0.25304  0.96707  1.0000
  H   H17       1.0  0.90255  0.67652  0.12084  1.0000
  H   H18       1.0  0.09745  0.32348  0.87916  1.0000
  H   H19       1.0  0.77444  0.82228  0.02501  1.0000
  H   H20       1.0  0.22557  0.17772  0.97499  1.0000
  H   H21       1.0  0.93327  0.08926  0.06690  1.0000
  H   H22       1.0  0.06674  0.91074  0.93311  1.0000
  H   H23       1.0  0.21359  0.19508  0.19768  1.0000
  H   H24       1.0  0.78641  0.80492  0.80233  1.0000
  H   H25       1.0  0.64971  0.97294  0.46118  1.0000
  H   H26       1.0  0.35029  0.02707  0.53882  1.0000
  H   H27       1.0  0.71367  0.25754  0.46658  1.0000
  H   H28       1.0  0.28632  0.74246  0.53342  1.0000
  C   C1        1.0  0.03337  0.20887  0.36457  1.0000
  C   C2        1.0  0.96663  0.79113  0.63543  1.0000
  C   C3        1.0  0.10337  0.12556  0.41692  1.0000
  C   C4        1.0  0.89663  0.87444  0.58308  1.0000
  C   C5        1.0  0.01420  0.97894  0.39353  1.0000
  C   C6        1.0  0.98580  0.02106  0.60647  1.0000
  C   C7        1.0  0.85770  0.91958  0.31969  1.0000
  C   C8        1.0  0.14230  0.08042  0.68031  1.0000
  C   C9        1.0  0.79639  0.01061  0.27100  1.0000
  C   C10       1.0  0.20360  0.98939  0.72900  1.0000
  C   C11       1.0  0.63475  0.96428  0.19329  1.0000
  C   C12       1.0  0.36525  0.03572  0.80671  1.0000
  C   C13       1.0  0.42358  0.98099  0.08286  1.0000
  C   C14       1.0  0.57641  0.01901  0.91714  1.0000
  C   C15       1.0  0.38891  0.83932  0.07958  1.0000
  C   C16       1.0  0.61109  0.16068  0.92042  1.0000
  C   C17       1.0  0.96699  0.79133  0.13561  1.0000
  C   C18       1.0  0.03302  0.20867  0.86439  1.0000
  C   C19       1.0  0.89613  0.87371  0.08274  1.0000
  C   C20       1.0  0.10388  0.12629  0.91726  1.0000
  C   C21       1.0  0.98444  0.02043  0.10545  1.0000
  C   C22       1.0  0.01557  0.97957  0.89455  1.0000
  C   C23       1.0  0.14114  0.08081  0.17910  1.0000
  C   C24       1.0  0.85887  0.91919  0.82090  1.0000
  C   C25       1.0  0.20323  0.99064  0.22840  1.0000
  C   C26       1.0  0.79677  0.00936  0.77160  1.0000
  C   C27       1.0  0.36489  0.03806  0.30613  1.0000
  C   C28       1.0  0.63511  0.96194  0.69388  1.0000
  C   C29       1.0  0.57636  0.02334  0.41731  1.0000
  C   C30       1.0  0.42364  0.97666  0.58269  1.0000
  C   C31       1.0  0.60953  0.16469  0.42001  1.0000
  C   C32       1.0  0.39048  0.83531  0.58000  1.0000
  N   N1        1.0  0.88387  0.15289  0.29304  1.0000
  N   N2        1.0  0.11613  0.84711  0.70696  1.0000
  N   N3        1.0  0.57655  0.05719  0.15363  1.0000
  N   N4        1.0  0.42344  0.94281  0.84636  1.0000
  N   N5        1.0  0.52291  0.83121  0.14994  1.0000
  N   N6        1.0  0.47708  0.16879  0.85006  1.0000
  N   N7        1.0  0.11652  0.84826  0.20705  1.0000
  N   N8        1.0  0.88348  0.15174  0.79295  1.0000
  N   N9        1.0  0.42405  0.94600  0.34640  1.0000
  N   N10       1.0  0.57595  0.05400  0.65360  1.0000
  N   N11       1.0  0.47539  0.17155  0.34917  1.0000
  N   N12       1.0  0.52461  0.82844  0.65083  1.0000
  O   O1        1.0  0.50000  0.50000  0.50000  1.0000
  O   O2        1.0  0.50000  0.50000  0.00000  1.0000
  O   O3        1.0  0.59532  0.60127  0.18508  1.0000
  O   O4        1.0  0.40468  0.39873  0.81493  1.0000
  O   O5        1.0  0.40429  0.40183  0.31444  1.0000
  O   O6        1.0  0.59572  0.59817  0.68556  1.0000
  O   O7        1.0  0.44007  0.67029  0.36783  1.0000
  O   O8        1.0  0.55993  0.32971  0.63216  1.0000
  O   O9        1.0  0.56158  0.33256  0.13354  1.0000
  O   O10       1.0  0.43841  0.66744  0.86646  1.0000
  O   O11       1.0  0.00000  0.50000  0.50000  1.0000
  O   O12       1.0  1.00000  0.50000  0.00000  1.0000
  O   O13       1.0  0.91185  0.31805  0.12565  1.0000
  O   O14       1.0  0.08815  0.68195  0.87435  1.0000
  O   O15       1.0  0.08972  0.68381  0.37518  1.0000
  O   O16       1.0  0.91029  0.31618  0.62482  1.0000
  O   O17       1.0  0.16905  0.58743  0.18927  1.0000
  O   O18       1.0  0.83095  0.41257  0.81073  1.0000
  O   O19       1.0  0.83280  0.41479  0.31096  1.0000
  O   O20       1.0  0.16719  0.58521  0.68903  1.0000
  O   O21       1.0  0.75489  0.61479  0.40345  1.0000
  O   O22       1.0  0.24511  0.38521  0.59655  1.0000
  O   O23       1.0  0.24570  0.38633  0.09690  1.0000
  O   O24       1.0  0.75430  0.61368  0.90310  1.0000
