data_image0
_chemical_formula_structural       Na4H40C32S2O24
_chemical_formula_sum              "Na4 H40 C32 S2 O24"
_cell_length_a       7.9728
_cell_length_b       8.32722
_cell_length_c       15.2261
_cell_angle_alpha    75.6134
_cell_angle_beta     87.5167
_cell_angle_gamma    86.7532

_space_group_name_H-M_alt    "P 1"
_space_group_IT_number       1

loop_
  _space_group_symop_operation_xyz
  'x, y, z'

loop_
  _atom_site_type_symbol
  _atom_site_label
  _atom_site_symmetry_multiplicity
  _atom_site_fract_x
  _atom_site_fract_y
  _atom_site_fract_z
  _atom_site_occupancy
  Na  Na1       1.0  0.31400  0.10840  0.96861  1.0000
  Na  Na2       1.0  0.66728  0.79440  0.97121  1.0000
  Na  Na3       1.0  0.97111  0.67499  0.13233  1.0000
  Na  Na4       1.0  0.27408  0.38530  0.09670  1.0000
  H   H1        1.0  0.34204  0.75695  0.04217  1.0000
  H   H2        1.0  0.31545  0.74777  0.94199  1.0000
  H   H3        1.0  0.66785  0.17530  0.94443  1.0000
  H   H4        1.0  0.65771  0.08935  0.04695  1.0000
  H   H5        1.0  0.95143  0.11863  0.03664  1.0000
  H   H6        1.0  0.93842  0.20298  0.93367  1.0000
  H   H7        1.0  0.15495  0.03217  0.15060  1.0000
  H   H8        1.0  0.34526  0.00536  0.16430  1.0000
  H   H9        1.0  0.64328  0.56244  0.13577  1.0000
  H   H10       1.0  0.58936  0.72781  0.16249  1.0000
  H   H11       1.0  0.03762  0.75749  0.93446  1.0000
  H   H12       1.0  0.98984  0.92305  0.96705  1.0000
  H   H13       1.0  0.92694  0.31333  0.11648  1.0000
  H   H14       1.0  0.90814  0.45843  0.03241  1.0000
  H   H15       1.0  0.61299  0.41346  0.05241  1.0000
  H   H16       1.0  0.63021  0.27743  0.14292  1.0000
  H   H17       1.0  0.06044  0.48645  0.78437  1.0000
  H   H18       1.0  0.26821  0.51550  0.73677  1.0000
  H   H19       1.0  0.07174  0.42672  0.64823  1.0000
  H   H20       1.0  0.98096  0.27316  0.54110  1.0000
  H   H21       1.0  0.14772  0.80977  0.72060  1.0000
  H   H22       1.0  0.23892  0.96164  0.82826  1.0000
  H   H23       1.0  0.32031  0.73151  0.52747  1.0000
  H   H24       1.0  0.56609  0.78495  0.42271  1.0000
  H   H25       1.0  0.33230  0.25481  0.28409  1.0000
  H   H26       1.0  0.08186  0.19853  0.38900  1.0000
  H   H27       1.0  0.68929  0.82346  0.28875  1.0000
  H   H28       1.0  0.80470  0.94105  0.34744  1.0000
  H   H29       1.0  0.78193  0.59944  0.73751  1.0000
  H   H30       1.0  0.56736  0.58325  0.77559  1.0000
  H   H31       1.0  0.75403  0.05669  0.82528  1.0000
  H   H32       1.0  0.66443  0.32201  0.72167  1.0000
  H   H33       1.0  0.46375  0.05485  0.54348  1.0000
  H   H34       1.0  0.54914  0.78783  0.64841  1.0000
  H   H35       1.0  0.78735  0.59088  0.55082  1.0000
  H   H36       1.0  0.03248  0.64450  0.44724  1.0000
  H   H37       1.0  0.82500  0.36308  0.27740  1.0000
  H   H38       1.0  0.58024  0.30121  0.38597  1.0000
  H   H39       1.0  0.28704  0.55951  0.35964  1.0000
  H   H40       1.0  0.15741  0.74545  0.32406  1.0000
  C   C1        1.0  0.24449  0.50304  0.88047  1.0000
  C   C2        1.0  0.19387  0.45017  0.79644  1.0000
  C   C3        1.0  0.16107  0.20307  0.74600  1.0000
  C   C4        1.0  0.08631  0.29188  0.66550  1.0000
  C   C5        1.0  0.03602  0.20537  0.60448  1.0000
  C   C6        1.0  0.05863  0.03299  0.62376  1.0000
  C   C7        1.0  0.13075  0.94418  0.70474  1.0000
  C   C8        1.0  0.18080  0.02949  0.76569  1.0000
  C   C9        1.0  0.18518  0.96042  0.46378  1.0000
  C   C10       1.0  0.32151  0.84523  0.47353  1.0000
  C   C11       1.0  0.46081  0.87577  0.41426  1.0000
  C   C12       1.0  0.46315  0.02281  0.34520  1.0000
  C   C13       1.0  0.32673  0.13972  0.33693  1.0000
  C   C14       1.0  0.18795  0.10862  0.39561  1.0000
  C   C15       1.0  0.73209  0.94788  0.28651  1.0000
  C   C16       1.0  0.84582  0.00034  0.20256  1.0000
  C   C17       1.0  0.74205  0.47605  0.87973  1.0000
  C   C18       1.0  0.69391  0.60813  0.79410  1.0000
  C   C19       1.0  0.65112  0.90640  0.74559  1.0000
  C   C20       1.0  0.68581  0.05729  0.76482  1.0000
  C   C21       1.0  0.63767  0.20602  0.70582  1.0000
  C   C22       1.0  0.55526  0.20389  0.62676  1.0000
  C   C23       1.0  0.52550  0.05440  0.60581  1.0000
  C   C24       1.0  0.57315  0.90395  0.66530  1.0000
  C   C25       1.0  0.66899  0.44284  0.47461  1.0000
  C   C26       1.0  0.79494  0.54010  0.49135  1.0000
  C   C27       1.0  0.93330  0.57273  0.43157  1.0000
  C   C28       1.0  0.94291  0.50887  0.35452  1.0000
  C   C29       1.0  0.81510  0.41157  0.33775  1.0000
  C   C30       1.0  0.67886  0.37773  0.39796  1.0000
  C   C31       1.0  0.20707  0.63244  0.30526  1.0000
  C   C32       1.0  0.30891  0.68766  0.21718  1.0000
  S   S1        1.0  0.01126  0.92647  0.54181  1.0000
  S   S2        1.0  0.49647  0.39525  0.55200  1.0000
  O   O1        1.0  0.22049  0.27416  0.80967  1.0000
  O   O2        1.0  0.31827  0.39963  0.94341  1.0000
  O   O3        1.0  0.20671  0.65502  0.87788  1.0000
  O   O4        1.0  0.86432  0.00651  0.49265  1.0000
  O   O5        1.0  0.01211  0.75004  0.58686  1.0000
  O   O6        1.0  0.59133  0.06396  0.28260  1.0000
  O   O7        1.0  0.80409  0.12927  0.14015  1.0000
  O   O8        1.0  0.97766  0.91084  0.19882  1.0000
  O   O9        1.0  0.69693  0.76855  0.81183  1.0000
  O   O10       1.0  0.73754  0.51636  0.95496  1.0000
  O   O11       1.0  0.78091  0.33264  0.86809  1.0000
  O   O12       1.0  0.48288  0.51921  0.60532  1.0000
  O   O13       1.0  0.35490  0.37306  0.49988  1.0000
  O   O14       1.0  0.07170  0.53510  0.29115  1.0000
  O   O15       1.0  0.27037  0.63891  0.14808  1.0000
  O   O16       1.0  0.42533  0.78413  0.21957  1.0000
  O   O17       1.0  0.37092  0.81427  0.97818  1.0000
  O   O18       1.0  0.61426  0.08257  0.98874  1.0000
  O   O19       1.0  0.00895  0.12141  0.97759  1.0000
  O   O20       1.0  0.26215  0.08748  0.13088  1.0000
  O   O21       1.0  0.68283  0.67516  0.13180  1.0000
  O   O22       1.0  0.96112  0.80533  0.97488  1.0000
  O   O23       1.0  0.97661  0.41998  0.08727  1.0000
  O   O24       1.0  0.56420  0.38043  0.11494  1.0000
