data_image0
_chemical_formula_structural       Cd4H16C32S4N40O4
_chemical_formula_sum              "Cd4 H16 C32 S4 N40 O4"
_cell_length_a       7.1733
_cell_length_b       11.6753
_cell_length_c       14.7249
_cell_angle_alpha    89.9991
_cell_angle_beta     99.7032
_cell_angle_gamma    90.0019

_space_group_name_H-M_alt    "P 1"
_space_group_IT_number       1

loop_
  _space_group_symop_operation_xyz
  'x, y, z'

loop_
  _atom_site_type_symbol
  _atom_site_label
  _atom_site_symmetry_multiplicity
  _atom_site_fract_x
  _atom_site_fract_y
  _atom_site_fract_z
  _atom_site_occupancy
  Cd  Cd1       1.0  0.62738  0.43658  0.13722  1.0000
  Cd  Cd2       1.0  0.87262  0.93658  0.86278  1.0000
  Cd  Cd3       1.0  0.37261  0.56342  0.86278  1.0000
  Cd  Cd4       1.0  0.12738  0.06343  0.13722  1.0000
  H   H1        1.0  0.00287  0.40133  0.08156  1.0000
  H   H2        1.0  0.49713  0.90134  0.91845  1.0000
  H   H3        1.0  0.99715  0.59866  0.91845  1.0000
  H   H4        1.0  0.50286  0.09866  0.08155  1.0000
  H   H5        1.0  0.98165  0.53875  0.09134  1.0000
  H   H6        1.0  0.51836  0.03875  0.90865  1.0000
  H   H7        1.0  0.01836  0.46125  0.90866  1.0000
  H   H8        1.0  0.48164  0.96125  0.09134  1.0000
  H   H9        1.0  0.84717  0.97508  0.37061  1.0000
  H   H10       1.0  0.65283  0.47509  0.62940  1.0000
  H   H11       1.0  0.15282  0.02491  0.62939  1.0000
  H   H12       1.0  0.34718  0.52492  0.37061  1.0000
  H   H13       1.0  0.68610  0.93002  0.21673  1.0000
  H   H14       1.0  0.81389  0.43003  0.78327  1.0000
  H   H15       1.0  0.31389  0.06997  0.78326  1.0000
  H   H16       1.0  0.18611  0.56998  0.21674  1.0000
  C   C1        1.0  0.76601  0.65699  0.29405  1.0000
  C   C2        1.0  0.73398  0.15699  0.70595  1.0000
  C   C3        1.0  0.23397  0.34300  0.70594  1.0000
  C   C4        1.0  0.26603  0.84301  0.29406  1.0000
  C   C5        1.0  0.86367  0.68381  0.38549  1.0000
  C   C6        1.0  0.63632  0.18382  0.61451  1.0000
  C   C7        1.0  0.13632  0.31618  0.61450  1.0000
  C   C8        1.0  0.36369  0.81619  0.38549  1.0000
  C   C9        1.0  0.89249  0.79979  0.41459  1.0000
  C   C10       1.0  0.60749  0.29979  0.58540  1.0000
  C   C11       1.0  0.10750  0.20021  0.58540  1.0000
  C   C12       1.0  0.39252  0.70022  0.41460  1.0000
  C   C13       1.0  0.82502  0.88510  0.35178  1.0000
  C   C14       1.0  0.67497  0.38510  0.64823  1.0000
  C   C15       1.0  0.17497  0.11490  0.64822  1.0000
  C   C16       1.0  0.32504  0.61490  0.35179  1.0000
  C   C17       1.0  0.73046  0.85838  0.26264  1.0000
  C   C18       1.0  0.76953  0.35838  0.73736  1.0000
  C   C19       1.0  0.26952  0.14162  0.73735  1.0000
  C   C20       1.0  0.23047  0.64163  0.26265  1.0000
  C   C21       1.0  0.69709  0.74647  0.23109  1.0000
  C   C22       1.0  0.80289  0.24647  0.76892  1.0000
  C   C23       1.0  0.30288  0.25353  0.76891  1.0000
  C   C24       1.0  0.19710  0.75353  0.23109  1.0000
  C   C25       1.0  0.99030  0.82702  0.50399  1.0000
  C   C26       1.0  0.50970  0.32703  0.49602  1.0000
  C   C27       1.0  0.00969  0.17297  0.49600  1.0000
  C   C28       1.0  0.49032  0.67298  0.50400  1.0000
  C   C29       1.0  0.60057  0.72807  0.13697  1.0000
  C   C30       1.0  0.89942  0.22807  0.86304  1.0000
  C   C31       1.0  0.39941  0.27193  0.86303  1.0000
  C   C32       1.0  0.10058  0.77193  0.13697  1.0000
  S   S1        1.0  0.86006  0.47927  0.37281  1.0000
  S   S2        1.0  0.63994  0.97928  0.62720  1.0000
  S   S3        1.0  0.13993  0.52072  0.62718  1.0000
  S   S4        1.0  0.36006  0.02073  0.37281  1.0000
  N   N1        1.0  0.34410  0.40048  0.18384  1.0000
  N   N2        1.0  0.15590  0.90048  0.81616  1.0000
  N   N3        1.0  0.65589  0.59952  0.81616  1.0000
  N   N4        1.0  0.84409  0.09953  0.18383  1.0000
  N   N5        1.0  0.30414  0.30665  0.20479  1.0000
  N   N6        1.0  0.19585  0.80665  0.79522  1.0000
  N   N7        1.0  0.69585  0.69336  0.79522  1.0000
  N   N8        1.0  0.80415  0.19336  0.20478  1.0000
  N   N9        1.0  0.26046  0.21506  0.22769  1.0000
  N   N10       1.0  0.23952  0.71505  0.77231  1.0000
  N   N11       1.0  0.73952  0.78495  0.77232  1.0000
  N   N12       1.0  0.76048  0.28495  0.22769  1.0000
  N   N13       1.0  0.75515  0.54277  0.27957  1.0000
  N   N14       1.0  0.74485  0.04277  0.72043  1.0000
  N   N15       1.0  0.24485  0.45722  0.72043  1.0000
  N   N16       1.0  0.25515  0.95723  0.27957  1.0000
  N   N17       1.0  0.92259  0.59059  0.43591  1.0000
  N   N18       1.0  0.57739  0.09060  0.56409  1.0000
  N   N19       1.0  0.07740  0.40940  0.56408  1.0000
  N   N20       1.0  0.42261  0.90941  0.43592  1.0000
  N   N21       1.0  0.07259  0.85179  0.57668  1.0000
  N   N22       1.0  0.42742  0.35180  0.42331  1.0000
  N   N23       1.0  0.92741  0.14820  0.42330  1.0000
  N   N24       1.0  0.57261  0.64820  0.57670  1.0000
  N   N25       1.0  0.53755  0.81617  0.08047  1.0000
  N   N26       1.0  0.96250  0.31617  0.91953  1.0000
  N   N27       1.0  0.46247  0.18383  0.91952  1.0000
  N   N28       1.0  0.03754  0.68383  0.08048  1.0000
  N   N29       1.0  0.46235  0.76998  0.00013  1.0000
  N   N30       1.0  0.03771  0.26998  0.99987  1.0000
  N   N31       1.0  0.53768  0.23002  0.99986  1.0000
  N   N32       1.0  0.96233  0.73002  0.00014  1.0000
  N   N33       1.0  0.47721  0.65722  0.00644  1.0000
  N   N34       1.0  0.02280  0.15721  0.99356  1.0000
  N   N35       1.0  0.52280  0.34278  0.99355  1.0000
  N   N36       1.0  0.97720  0.84278  0.00644  1.0000
  N   N37       1.0  0.56277  0.62795  0.09136  1.0000
  N   N38       1.0  0.93719  0.12795  0.90865  1.0000
  N   N39       1.0  0.43721  0.37205  0.90863  1.0000
  N   N40       1.0  0.06277  0.87205  0.09137  1.0000
  O   O1        1.0  0.92570  0.46260  0.10187  1.0000
  O   O2        1.0  0.57429  0.96260  0.89813  1.0000
  O   O3        1.0  0.07429  0.53739  0.89812  1.0000
  O   O4        1.0  0.42571  0.03740  0.10188  1.0000
