data_image0
_chemical_formula_structural       Cd4H28C20O28
_chemical_formula_sum              "Cd4 H28 C20 O28"
_cell_length_a       6.15106
_cell_length_b       9.63239
_cell_length_c       15.2105
_cell_angle_alpha    89.9998
_cell_angle_beta     90
_cell_angle_gamma    102.31

_space_group_name_H-M_alt    "P 1"
_space_group_IT_number       1

loop_
  _space_group_symop_operation_xyz
  'x, y, z'

loop_
  _atom_site_type_symbol
  _atom_site_label
  _atom_site_symmetry_multiplicity
  _atom_site_fract_x
  _atom_site_fract_y
  _atom_site_fract_z
  _atom_site_occupancy
  Cd  Cd1       1.0  0.82728  0.53443  0.34836  1.0000
  Cd  Cd2       1.0  0.17271  0.96558  0.84835  1.0000
  Cd  Cd3       1.0  0.17273  0.46558  0.65165  1.0000
  Cd  Cd4       1.0  0.82727  0.03442  0.15165  1.0000
  H   H1        1.0  0.02969  0.72885  0.23956  1.0000
  H   H2        1.0  0.97030  0.77114  0.73957  1.0000
  H   H3        1.0  0.97031  0.27115  0.76043  1.0000
  H   H4        1.0  0.02969  0.22885  0.26044  1.0000
  H   H5        1.0  0.78537  0.69870  0.20008  1.0000
  H   H6        1.0  0.21463  0.80129  0.70008  1.0000
  H   H7        1.0  0.21463  0.30129  0.79993  1.0000
  H   H8        1.0  0.78536  0.19870  0.29993  1.0000
  H   H9        1.0  0.47895  0.32303  0.36775  1.0000
  H   H10       1.0  0.52105  0.17696  0.86775  1.0000
  H   H11       1.0  0.52106  0.67696  0.63225  1.0000
  H   H12       1.0  0.47896  0.82303  0.13226  1.0000
  H   H13       1.0  0.46108  0.34400  0.26518  1.0000
  H   H14       1.0  0.53892  0.15600  0.76518  1.0000
  H   H15       1.0  0.53892  0.65599  0.73481  1.0000
  H   H16       1.0  0.46110  0.84399  0.23482  1.0000
  H   H17       1.0  0.09935  0.37389  0.43683  1.0000
  H   H18       1.0  0.90064  0.12611  0.93683  1.0000
  H   H19       1.0  0.90067  0.62610  0.56316  1.0000
  H   H20       1.0  0.09936  0.87389  0.06317  1.0000
  H   H21       1.0  0.87591  0.34988  0.49093  1.0000
  H   H22       1.0  0.12408  0.15013  0.99094  1.0000
  H   H23       1.0  0.12410  0.65012  0.50906  1.0000
  H   H24       1.0  0.87592  0.84988  0.00907  1.0000
  H   H25       1.0  0.21219  0.07271  0.40602  1.0000
  H   H26       1.0  0.78780  0.42728  0.90601  1.0000
  H   H27       1.0  0.78790  0.92727  0.59400  1.0000
  H   H28       1.0  0.21211  0.57273  0.09400  1.0000
  C   C1        1.0  0.24936  0.80373  0.37257  1.0000
  C   C2        1.0  0.75064  0.69626  0.87258  1.0000
  C   C3        1.0  0.75070  0.19626  0.62743  1.0000
  C   C4        1.0  0.24930  0.30373  0.12744  1.0000
  C   C5        1.0  0.38613  0.90639  0.43605  1.0000
  C   C6        1.0  0.61386  0.59363  0.93606  1.0000
  C   C7        1.0  0.61383  0.09367  0.56392  1.0000
  C   C8        1.0  0.38617  0.40635  0.06393  1.0000
  C   C9        1.0  0.34006  0.04121  0.44644  1.0000
  C   C10       1.0  0.65993  0.45881  0.94644  1.0000
  C   C11       1.0  0.65993  0.95883  0.55356  1.0000
  C   C12       1.0  0.34006  0.54119  0.05356  1.0000
  C   C13       1.0  0.45200  0.13424  0.51027  1.0000
  C   C14       1.0  0.54798  0.36576  0.01027  1.0000
  C   C15       1.0  0.54792  0.86578  0.48970  1.0000
  C   C16       1.0  0.45206  0.63423  0.98971  1.0000
  C   C17       1.0  0.38107  0.27170  0.52536  1.0000
  C   C18       1.0  0.61894  0.22829  0.02538  1.0000
  C   C19       1.0  0.61902  0.72828  0.47462  1.0000
  C   C20       1.0  0.38101  0.77173  0.97464  1.0000
  O   O1        1.0  0.15721  0.68151  0.40305  1.0000
  O   O2        1.0  0.84279  0.81849  0.90304  1.0000
  O   O3        1.0  0.84278  0.31851  0.59695  1.0000
  O   O4        1.0  0.15720  0.18150  0.09695  1.0000
  O   O5        1.0  0.22674  0.84411  0.29426  1.0000
  O   O6        1.0  0.77327  0.65591  0.79426  1.0000
  O   O7        1.0  0.77326  0.15590  0.70575  1.0000
  O   O8        1.0  0.22674  0.34410  0.20576  1.0000
  O   O9        1.0  0.34823  0.30068  0.60510  1.0000
  O   O10       1.0  0.65177  0.19931  0.10510  1.0000
  O   O11       1.0  0.65179  0.69933  0.39488  1.0000
  O   O12       1.0  0.34821  0.80068  0.89489  1.0000
  O   O13       1.0  0.35049  0.34543  0.45876  1.0000
  O   O14       1.0  0.64949  0.15457  0.95875  1.0000
  O   O15       1.0  0.64951  0.65457  0.54127  1.0000
  O   O16       1.0  0.35051  0.84544  0.04127  1.0000
  O   O17       1.0  0.90413  0.65056  0.21866  1.0000
  O   O18       1.0  0.09586  0.84943  0.71866  1.0000
  O   O19       1.0  0.09587  0.34943  0.78134  1.0000
  O   O20       1.0  0.90413  0.15056  0.28134  1.0000
  O   O21       1.0  0.57028  0.33319  0.31180  1.0000
  O   O22       1.0  0.42972  0.16681  0.81179  1.0000
  O   O23       1.0  0.42973  0.66681  0.68820  1.0000
  O   O24       1.0  0.57029  0.83318  0.18821  1.0000
  O   O25       1.0  0.93642  0.36885  0.42978  1.0000
  O   O26       1.0  0.06356  0.13115  0.92978  1.0000
  O   O27       1.0  0.06359  0.63113  0.57022  1.0000
  O   O28       1.0  0.93643  0.86886  0.07022  1.0000
