data_image0
_chemical_formula_structural       Cd2H36C42S2N8O12
_chemical_formula_sum              "Cd2 H36 C42 S2 N8 O12"
_cell_length_a       9.31388
_cell_length_b       10.6053
_cell_length_c       12.4601
_cell_angle_alpha    102.473
_cell_angle_beta     98.152
_cell_angle_gamma    106.691

_space_group_name_H-M_alt    "P 1"
_space_group_IT_number       1

loop_
  _space_group_symop_operation_xyz
  'x, y, z'

loop_
  _atom_site_type_symbol
  _atom_site_label
  _atom_site_symmetry_multiplicity
  _atom_site_fract_x
  _atom_site_fract_y
  _atom_site_fract_z
  _atom_site_occupancy
  Cd  Cd1       1.0  0.08182  0.86824  0.90648  1.0000
  Cd  Cd2       1.0  0.91817  0.13176  0.09353  1.0000
  H   H1        1.0  0.48767  0.78608  0.44113  1.0000
  H   H2        1.0  0.51233  0.21392  0.55887  1.0000
  H   H3        1.0  0.23307  0.78923  0.66234  1.0000
  H   H4        1.0  0.76693  0.21076  0.33766  1.0000
  H   H5        1.0  0.24969  0.45207  0.65603  1.0000
  H   H6        1.0  0.75032  0.54793  0.34398  1.0000
  H   H7        1.0  0.26034  0.21363  0.68831  1.0000
  H   H8        1.0  0.73966  0.78637  0.31170  1.0000
  H   H9        1.0  0.76316  0.64002  0.84262  1.0000
  H   H10       1.0  0.23684  0.35998  0.15738  1.0000
  H   H11       1.0  0.51302  0.54323  0.69767  1.0000
  H   H12       1.0  0.48698  0.45677  0.30233  1.0000
  H   H13       1.0  0.69580  0.86142  0.53943  1.0000
  H   H14       1.0  0.30420  0.13858  0.46057  1.0000
  H   H15       1.0  0.93373  0.94181  0.68818  1.0000
  H   H16       1.0  0.06627  0.05819  0.31182  1.0000
  H   H17       1.0  0.17647  0.58001  0.39655  1.0000
  H   H18       1.0  0.82354  0.42000  0.60345  1.0000
  H   H19       1.0  0.25513  0.63718  0.28769  1.0000
  H   H20       1.0  0.74487  0.36282  0.71231  1.0000
  H   H21       1.0  0.28192  0.88328  0.39643  1.0000
  H   H22       1.0  0.71808  0.11672  0.60357  1.0000
  H   H23       1.0  0.09564  0.77066  0.32820  1.0000
  H   H24       1.0  0.90437  0.22934  0.67180  1.0000
  H   H25       1.0  0.08538  0.90011  0.50986  1.0000
  H   H26       1.0  0.91462  0.09989  0.49013  1.0000
  H   H27       1.0  0.04290  0.72521  0.50858  1.0000
  H   H28       1.0  0.95710  0.27479  0.49142  1.0000
  H   H29       1.0  0.76215  0.27587  0.93936  1.0000
  H   H30       1.0  0.23785  0.72412  0.06064  1.0000
  H   H31       1.0  0.55347  0.22135  0.76698  1.0000
  H   H32       1.0  0.44653  0.77864  0.23301  1.0000
  H   H33       1.0  0.42102  0.80038  0.77785  1.0000
  H   H34       1.0  0.57898  0.19961  0.22215  1.0000
  H   H35       1.0  0.63149  0.87132  0.94753  1.0000
  H   H36       1.0  0.36851  0.12868  0.05248  1.0000
  C   C1        1.0  0.12233  0.61007  0.81685  1.0000
  C   C2        1.0  0.87767  0.38993  0.18316  1.0000
  C   C3        1.0  0.14701  0.47610  0.80266  1.0000
  C   C4        1.0  0.85299  0.52391  0.19734  1.0000
  C   C5        1.0  0.21079  0.40996  0.72345  1.0000
  C   C6        1.0  0.78922  0.59004  0.27655  1.0000
  C   C7        1.0  0.21623  0.28387  0.74046  1.0000
  C   C8        1.0  0.78377  0.71614  0.25955  1.0000
  C   C9        1.0  0.15701  0.25617  0.83246  1.0000
  C   C10       1.0  0.84299  0.74383  0.16755  1.0000
  C   C11       1.0  0.14026  0.13280  0.87269  1.0000
  C   C12       1.0  0.85973  0.86720  0.12731  1.0000
  C   C13       1.0  0.74155  0.68503  0.77366  1.0000
  C   C14       1.0  0.25845  0.31497  0.22634  1.0000
  C   C15       1.0  0.60445  0.63186  0.69363  1.0000
  C   C16       1.0  0.39555  0.36814  0.30637  1.0000
  C   C17       1.0  0.58333  0.69368  0.60679  1.0000
  C   C18       1.0  0.41667  0.30633  0.39321  1.0000
  C   C19       1.0  0.70311  0.80735  0.60404  1.0000
  C   C20       1.0  0.29689  0.19265  0.39596  1.0000
  C   C21       1.0  0.83706  0.85404  0.68732  1.0000
  C   C22       1.0  0.16295  0.14596  0.31268  1.0000
  C   C23       1.0  0.42994  0.63558  0.52511  1.0000
  C   C24       1.0  0.57006  0.36443  0.47489  1.0000
  C   C25       1.0  0.25218  0.66880  0.37731  1.0000
  C   C26       1.0  0.74782  0.33120  0.62269  1.0000
  C   C27       1.0  0.19254  0.79033  0.39819  1.0000
  C   C28       1.0  0.80746  0.20968  0.60181  1.0000
  C   C29       1.0  0.13459  0.81688  0.50739  1.0000
  C   C30       1.0  0.86541  0.18312  0.49260  1.0000
  C   C31       1.0  0.36007  0.97602  0.64757  1.0000
  C   C32       1.0  0.63993  0.02397  0.35242  1.0000
  C   C33       1.0  0.68323  0.17220  0.90008  1.0000
  C   C34       1.0  0.31677  0.82779  0.09992  1.0000
  C   C35       1.0  0.56898  0.14140  0.80463  1.0000
  C   C36       1.0  0.43102  0.85859  0.19536  1.0000
  C   C37       1.0  0.47345  0.00609  0.75605  1.0000
  C   C38       1.0  0.52655  0.99390  0.24394  1.0000
  C   C39       1.0  0.49390  0.90697  0.80910  1.0000
  C   C40       1.0  0.50610  0.09302  0.19089  1.0000
  C   C41       1.0  0.61052  0.94596  0.90485  1.0000
  C   C42       1.0  0.38949  0.05403  0.09515  1.0000
  S   S1        1.0  0.09445  0.38460  0.89743  1.0000
  S   S2        1.0  0.90554  0.61540  0.10257  1.0000
  N   N1        1.0  0.85614  0.79492  0.77095  1.0000
  N   N2        1.0  0.14386  0.20508  0.22905  1.0000
  N   N3        1.0  0.40472  0.70127  0.44645  1.0000
  N   N4        1.0  0.59528  0.29873  0.55355  1.0000
  N   N5        1.0  0.25100  0.85312  0.61064  1.0000
  N   N6        1.0  0.74900  0.14687  0.38936  1.0000
  N   N7        1.0  0.70513  0.07556  0.94892  1.0000
  N   N8        1.0  0.29487  0.92443  0.05107  1.0000
  O   O1        1.0  0.05143  0.64111  0.89462  1.0000
  O   O2        1.0  0.94857  0.35889  0.10537  1.0000
  O   O3        1.0  0.17327  0.68786  0.75704  1.0000
  O   O4        1.0  0.82674  0.31214  0.24296  1.0000
  O   O5        1.0  0.08366  0.12188  0.95938  1.0000
  O   O6        1.0  0.91632  0.87813  0.04062  1.0000
  O   O7        1.0  0.18216  0.03833  0.81739  1.0000
  O   O8        1.0  0.81783  0.96167  0.18262  1.0000
  O   O9        1.0  0.33118  0.53279  0.53390  1.0000
  O   O10       1.0  0.66882  0.46722  0.46610  1.0000
  O   O11       1.0  0.37289  0.06469  0.59372  1.0000
  O   O12       1.0  0.62711  0.93530  0.40628  1.0000
