data_image0
_chemical_formula_structural       Cu2H16C16N28
_chemical_formula_sum              "Cu2 H16 C16 N28"
_cell_length_a       6.1429
_cell_length_b       9.79
_cell_length_c       10.0548
_cell_angle_alpha    90.7317
_cell_angle_beta     90.0003
_cell_angle_gamma    89.9999

_space_group_name_H-M_alt    "P 1"
_space_group_IT_number       1

loop_
  _space_group_symop_operation_xyz
  'x, y, z'

loop_
  _atom_site_type_symbol
  _atom_site_label
  _atom_site_symmetry_multiplicity
  _atom_site_fract_x
  _atom_site_fract_y
  _atom_site_fract_z
  _atom_site_occupancy
  Cu  Cu1       1.0  0.50000  1.00000  0.50000  1.0000
  Cu  Cu2       1.0  0.00000  0.00000  1.00000  1.0000
  H   H1        1.0  0.15259  0.87438  0.42869  1.0000
  H   H2        1.0  0.65259  0.12563  0.07131  1.0000
  H   H3        1.0  0.84740  0.12562  0.57131  1.0000
  H   H4        1.0  0.34742  0.87438  0.92869  1.0000
  H   H5        1.0  0.13022  0.91896  0.58802  1.0000
  H   H6        1.0  0.63022  0.08104  0.91198  1.0000
  H   H7        1.0  0.86977  0.08104  0.41198  1.0000
  H   H8        1.0  0.36978  0.91895  0.08802  1.0000
  H   H9        1.0  0.49666  0.47119  0.70493  1.0000
  H   H10       1.0  0.99667  0.52881  0.79507  1.0000
  H   H11       1.0  0.50332  0.52881  0.29508  1.0000
  H   H12       1.0  0.00334  0.47118  0.20493  1.0000
  H   H13       1.0  0.84453  0.57409  0.43183  1.0000
  H   H14       1.0  0.34455  0.42590  0.06817  1.0000
  H   H15       1.0  0.15546  0.42591  0.56817  1.0000
  H   H16       1.0  0.65547  0.57410  0.93183  1.0000
  C   C1        1.0  0.61420  0.77554  0.68997  1.0000
  C   C2        1.0  0.11420  0.22446  0.81002  1.0000
  C   C3        1.0  0.38579  0.22446  0.31003  1.0000
  C   C4        1.0  0.88580  0.77554  0.18997  1.0000
  C   C5        1.0  0.44020  0.68992  0.64167  1.0000
  C   C6        1.0  0.94021  0.31008  0.85834  1.0000
  C   C7        1.0  0.55978  0.31008  0.35834  1.0000
  C   C8        1.0  0.05980  0.68992  0.14166  1.0000
  C   C9        1.0  0.26905  0.73384  0.55807  1.0000
  C   C10       1.0  0.76906  0.26616  0.94194  1.0000
  C   C11       1.0  0.73094  0.26616  0.44193  1.0000
  C   C12       1.0  0.23095  0.73384  0.05806  1.0000
  C   C13       1.0  0.40668  0.54966  0.65368  1.0000
  C   C14       1.0  0.90669  0.45035  0.84632  1.0000
  C   C15       1.0  0.59330  0.45034  0.34633  1.0000
  C   C16       1.0  0.09333  0.54966  0.15367  1.0000
  N   N1        1.0  0.67151  0.89264  0.62903  1.0000
  N   N2        1.0  0.17151  0.10736  0.87097  1.0000
  N   N3        1.0  0.32849  0.10736  0.37097  1.0000
  N   N4        1.0  0.82850  0.89264  0.12903  1.0000
  N   N5        1.0  0.83995  0.94468  0.69846  1.0000
  N   N6        1.0  0.33995  0.05532  0.80154  1.0000
  N   N7        1.0  0.16005  0.05532  0.30154  1.0000
  N   N8        1.0  0.66006  0.94467  0.19846  1.0000
  N   N9        1.0  0.88282  0.86174  0.79784  1.0000
  N   N10       1.0  0.38282  0.13826  0.70217  1.0000
  N   N11       1.0  0.11718  0.13826  0.20216  1.0000
  N   N12       1.0  0.61719  0.86173  0.29783  1.0000
  N   N13       1.0  0.74349  0.75524  0.79590  1.0000
  N   N14       1.0  0.24349  0.24476  0.70411  1.0000
  N   N15       1.0  0.25650  0.24476  0.20411  1.0000
  N   N16       1.0  0.75652  0.75523  0.29589  1.0000
  N   N17       1.0  0.22952  0.51956  0.58004  1.0000
  N   N18       1.0  0.72954  0.48045  0.91996  1.0000
  N   N19       1.0  0.77047  0.48045  0.41997  1.0000
  N   N20       1.0  0.27047  0.51956  0.08003  1.0000
  N   N21       1.0  0.14043  0.63000  0.52100  1.0000
  N   N22       1.0  0.64044  0.37001  0.97900  1.0000
  N   N23       1.0  0.85956  0.37000  0.47901  1.0000
  N   N24       1.0  0.35958  0.62999  0.02099  1.0000
  N   N25       1.0  0.22976  0.87068  0.51926  1.0000
  N   N26       1.0  0.72977  0.12933  0.98074  1.0000
  N   N27       1.0  0.77023  0.12932  0.48074  1.0000
  N   N28       1.0  0.27024  0.87067  0.01925  1.0000
