data_image0
_chemical_formula_structural       FeH4C14S2N6
_chemical_formula_sum              "Fe1 H4 C14 S2 N6"
_cell_length_a       5.52579
_cell_length_b       5.93543
_cell_length_c       11.2675
_cell_angle_alpha    77.3287
_cell_angle_beta     82.4337
_cell_angle_gamma    75.9581

_space_group_name_H-M_alt    "P 1"
_space_group_IT_number       1

loop_
  _space_group_symop_operation_xyz
  'x, y, z'

loop_
  _atom_site_type_symbol
  _atom_site_label
  _atom_site_symmetry_multiplicity
  _atom_site_fract_x
  _atom_site_fract_y
  _atom_site_fract_z
  _atom_site_occupancy
  Fe  Fe1       1.0  0.97719  0.01923  0.00905  1.0000
  H   H1        1.0  0.44738  0.79685  0.30546  1.0000
  H   H2        1.0  0.55935  0.19475  0.69216  1.0000
  H   H3        1.0  0.28117  0.16245  0.54737  1.0000
  H   H4        1.0  0.72628  0.82887  0.45012  1.0000
  C   C1        1.0  0.47229  0.66636  0.39017  1.0000
  C   C2        1.0  0.53549  0.32476  0.60724  1.0000
  C   C3        1.0  0.34347  0.47750  0.41507  1.0000
  C   C4        1.0  0.66448  0.51358  0.58224  1.0000
  C   C5        1.0  0.38079  0.30623  0.52605  1.0000
  C   C6        1.0  0.62752  0.68447  0.47117  1.0000
  C   C7        1.0  0.17820  0.46111  0.33259  1.0000
  C   C8        1.0  0.82558  0.53362  0.66562  1.0000
  C   C9        1.0  0.06104  0.26728  0.35083  1.0000
  C   C10       1.0  0.94236  0.72796  0.64672  1.0000
  C   C11       1.0  0.11524  0.63561  0.22930  1.0000
  C   C12       1.0  0.87652  0.36928  0.77380  1.0000
  C   C13       1.0  0.59740  0.80864  0.92223  1.0000
  C   C14       1.0  0.40152  0.19772  0.07770  1.0000
  S   S1        1.0  0.36958  0.74843  0.86678  1.0000
  S   S2        1.0  0.65592  0.24069  0.12078  1.0000
  N   N1        1.0  0.96502  0.10745  0.36303  1.0000
  N   N2        1.0  0.03787  0.88815  0.63437  1.0000
  N   N3        1.0  0.05613  0.78116  0.14320  1.0000
  N   N4        1.0  0.92235  0.23818  0.86627  1.0000
  N   N5        1.0  0.76062  0.85780  0.96233  1.0000
  N   N6        1.0  0.21925  0.16187  0.04838  1.0000
