data_image0
_chemical_formula_structural       Zn4H40C24S8N16O16
_chemical_formula_sum              "Zn4 H40 C24 S8 N16 O16"
_cell_length_a       6.7462
_cell_length_b       11.4976
_cell_length_c       14.6725
_cell_angle_alpha    90
_cell_angle_beta     90
_cell_angle_gamma    89.9998

_space_group_name_H-M_alt    "P 1"
_space_group_IT_number       1

loop_
  _space_group_symop_operation_xyz
  'x, y, z'

loop_
  _atom_site_type_symbol
  _atom_site_label
  _atom_site_symmetry_multiplicity
  _atom_site_fract_x
  _atom_site_fract_y
  _atom_site_fract_z
  _atom_site_occupancy
  Zn  Zn1       1.0  0.20026  0.25000  0.00000  1.0000
  Zn  Zn2       1.0  0.29974  0.75000  0.50000  1.0000
  Zn  Zn3       1.0  0.79974  0.75000  0.00000  1.0000
  Zn  Zn4       1.0  0.70026  0.25000  0.50000  1.0000
  H   H1        1.0  0.89821  0.23390  0.30308  1.0000
  H   H2        1.0  0.89821  0.26610  0.69692  1.0000
  H   H3        1.0  0.60179  0.73390  0.19692  1.0000
  H   H4        1.0  0.60179  0.76610  0.80308  1.0000
  H   H5        1.0  0.10179  0.76610  0.69692  1.0000
  H   H6        1.0  0.10179  0.73390  0.30308  1.0000
  H   H7        1.0  0.39821  0.26610  0.80308  1.0000
  H   H8        1.0  0.39821  0.23390  0.19692  1.0000
  H   H9        1.0  0.99819  0.09816  0.26814  1.0000
  H   H10       1.0  0.99819  0.40184  0.73186  1.0000
  H   H11       1.0  0.50181  0.59816  0.23186  1.0000
  H   H12       1.0  0.50181  0.90184  0.76814  1.0000
  H   H13       1.0  0.00181  0.90184  0.73186  1.0000
  H   H14       1.0  0.00181  0.59816  0.26814  1.0000
  H   H15       1.0  0.49819  0.40184  0.76814  1.0000
  H   H16       1.0  0.49819  0.09816  0.23186  1.0000
  H   H17       1.0  0.85910  0.38052  0.19684  1.0000
  H   H18       1.0  0.85910  0.11948  0.80316  1.0000
  H   H19       1.0  0.64090  0.88052  0.30316  1.0000
  H   H20       1.0  0.64090  0.61948  0.69684  1.0000
  H   H21       1.0  0.14090  0.61948  0.80316  1.0000
  H   H22       1.0  0.14090  0.88052  0.19684  1.0000
  H   H23       1.0  0.35910  0.11948  0.69684  1.0000
  H   H24       1.0  0.35910  0.38052  0.30316  1.0000
  H   H25       1.0  0.87116  0.34721  0.07911  1.0000
  H   H26       1.0  0.87116  0.15279  0.92089  1.0000
  H   H27       1.0  0.62885  0.84721  0.42089  1.0000
  H   H28       1.0  0.62884  0.65279  0.57911  1.0000
  H   H29       1.0  0.12885  0.65279  0.92089  1.0000
  H   H30       1.0  0.12885  0.84721  0.07911  1.0000
  H   H31       1.0  0.37115  0.15279  0.57911  1.0000
  H   H32       1.0  0.37115  0.34721  0.42089  1.0000
  H   H33       1.0  0.46124  0.60723  0.06055  1.0000
  H   H34       1.0  0.46124  0.89277  0.93945  1.0000
  H   H35       1.0  0.03876  0.10723  0.43945  1.0000
  H   H36       1.0  0.03876  0.39277  0.56055  1.0000
  H   H37       1.0  0.53876  0.39277  0.93945  1.0000
  H   H38       1.0  0.53876  0.10723  0.06055  1.0000
  H   H39       1.0  0.96124  0.89277  0.56055  1.0000
  H   H40       1.0  0.96124  0.60723  0.43945  1.0000
  C   C1        1.0  0.41107  0.43110  0.11400  1.0000
  C   C2        1.0  0.41107  0.06890  0.88600  1.0000
  C   C3        1.0  0.08893  0.93110  0.38600  1.0000
  C   C4        1.0  0.08893  0.56890  0.61400  1.0000
  C   C5        1.0  0.58893  0.56890  0.88600  1.0000
  C   C6        1.0  0.58893  0.93110  0.11400  1.0000
  C   C7        1.0  0.91107  0.06890  0.61400  1.0000
  C   C8        1.0  0.91107  0.43110  0.38600  1.0000
  C   C9        1.0  0.93560  0.21339  0.16535  1.0000
  C   C10       1.0  0.93560  0.28661  0.83465  1.0000
  C   C11       1.0  0.56440  0.71339  0.33465  1.0000
  C   C12       1.0  0.56440  0.78661  0.66535  1.0000
  C   C13       1.0  0.06440  0.78661  0.83465  1.0000
  C   C14       1.0  0.06440  0.71339  0.16535  1.0000
  C   C15       1.0  0.43560  0.28661  0.66535  1.0000
  C   C16       1.0  0.43560  0.21339  0.33465  1.0000
  C   C17       1.0  0.46760  0.51564  0.04150  1.0000
  C   C18       1.0  0.46759  0.98436  0.95850  1.0000
  C   C19       1.0  0.03240  0.01564  0.45850  1.0000
  C   C20       1.0  0.03241  0.48436  0.54150  1.0000
  C   C21       1.0  0.53241  0.48436  0.95850  1.0000
  C   C22       1.0  0.53240  0.01564  0.04150  1.0000
  C   C23       1.0  0.96760  0.98436  0.54150  1.0000
  C   C24       1.0  0.96760  0.51564  0.45850  1.0000
  S   S1        1.0  0.01328  0.11615  0.08094  1.0000
  S   S2        1.0  0.01328  0.38385  0.91906  1.0000
  S   S3        1.0  0.48672  0.61615  0.41906  1.0000
  S   S4        1.0  0.48671  0.88385  0.58094  1.0000
  S   S5        1.0  0.98672  0.88385  0.91906  1.0000
  S   S6        1.0  0.98672  0.61615  0.08095  1.0000
  S   S7        1.0  0.51328  0.38385  0.58094  1.0000
  S   S8        1.0  0.51328  0.11615  0.41906  1.0000
  N   N1        1.0  0.94050  0.17875  0.25113  1.0000
  N   N2        1.0  0.94050  0.32125  0.74887  1.0000
  N   N3        1.0  0.55950  0.67875  0.24887  1.0000
  N   N4        1.0  0.55950  0.82125  0.75113  1.0000
  N   N5        1.0  0.05950  0.82125  0.74887  1.0000
  N   N6        1.0  0.05950  0.67875  0.25113  1.0000
  N   N7        1.0  0.44050  0.32125  0.75113  1.0000
  N   N8        1.0  0.44050  0.17875  0.24887  1.0000
  N   N9        1.0  0.87076  0.32009  0.14515  1.0000
  N   N10       1.0  0.87076  0.17991  0.85485  1.0000
  N   N11       1.0  0.62924  0.82009  0.35485  1.0000
  N   N12       1.0  0.62924  0.67991  0.64515  1.0000
  N   N13       1.0  0.12924  0.67991  0.85485  1.0000
  N   N14       1.0  0.12925  0.82009  0.14515  1.0000
  N   N15       1.0  0.37075  0.17991  0.64515  1.0000
  N   N16       1.0  0.37076  0.32009  0.35485  1.0000
  O   O1        1.0  0.37328  0.32393  0.09267  1.0000
  O   O2        1.0  0.37327  0.17607  0.90733  1.0000
  O   O3        1.0  0.12673  0.82393  0.40733  1.0000
  O   O4        1.0  0.12672  0.67607  0.59267  1.0000
  O   O5        1.0  0.62673  0.67607  0.90733  1.0000
  O   O6        1.0  0.62673  0.82393  0.09267  1.0000
  O   O7        1.0  0.87328  0.17607  0.59267  1.0000
  O   O8        1.0  0.87328  0.32393  0.40733  1.0000
  O   O9        1.0  0.40991  0.46548  0.19538  1.0000
  O   O10       1.0  0.40992  0.03452  0.80462  1.0000
  O   O11       1.0  0.09009  0.96548  0.30462  1.0000
  O   O12       1.0  0.09009  0.53452  0.69538  1.0000
  O   O13       1.0  0.59008  0.53452  0.80462  1.0000
  O   O14       1.0  0.59008  0.96548  0.19538  1.0000
  O   O15       1.0  0.90992  0.03452  0.69538  1.0000
  O   O16       1.0  0.90992  0.46548  0.30462  1.0000
