data_image0
_chemical_formula_structural       Zn4H48C28S8N16O16
_chemical_formula_sum              "Zn4 H48 C28 S8 N16 O16"
_cell_length_a       8.38109
_cell_length_b       10.838
_cell_length_c       14.6857
_cell_angle_alpha    90.0001
_cell_angle_beta     90.0001
_cell_angle_gamma    90

_space_group_name_H-M_alt    "P 1"
_space_group_IT_number       1

loop_
  _space_group_symop_operation_xyz
  'x, y, z'

loop_
  _atom_site_type_symbol
  _atom_site_label
  _atom_site_symmetry_multiplicity
  _atom_site_fract_x
  _atom_site_fract_y
  _atom_site_fract_z
  _atom_site_occupancy
  Zn  Zn1       1.0  0.18024  0.86946  0.82904  1.0000
  Zn  Zn2       1.0  0.31976  0.13054  0.32904  1.0000
  Zn  Zn3       1.0  0.81976  0.36946  0.67096  1.0000
  Zn  Zn4       1.0  0.68024  0.63054  0.17096  1.0000
  H   H1        1.0  0.60168  0.01932  0.97712  1.0000
  H   H2        1.0  0.89832  0.98068  0.47712  1.0000
  H   H3        1.0  0.39832  0.51932  0.52288  1.0000
  H   H4        1.0  0.10168  0.48068  0.02288  1.0000
  H   H5        1.0  0.79473  0.30138  0.00054  1.0000
  H   H6        1.0  0.70527  0.69862  0.50054  1.0000
  H   H7        1.0  0.20527  0.80138  0.49946  1.0000
  H   H8        1.0  0.29473  0.19862  0.99946  1.0000
  H   H9        1.0  0.92531  0.21446  0.93164  1.0000
  H   H10       1.0  0.57469  0.78554  0.43164  1.0000
  H   H11       1.0  0.07469  0.71446  0.56836  1.0000
  H   H12       1.0  0.42531  0.28554  0.06836  1.0000
  H   H13       1.0  0.82523  0.14142  0.02440  1.0000
  H   H14       1.0  0.67477  0.85858  0.52440  1.0000
  H   H15       1.0  0.17477  0.64142  0.47560  1.0000
  H   H16       1.0  0.32523  0.35858  0.97560  1.0000
  H   H17       1.0  0.71944  0.06918  0.72077  1.0000
  H   H18       1.0  0.78057  0.93082  0.22077  1.0000
  H   H19       1.0  0.28056  0.56918  0.77923  1.0000
  H   H20       1.0  0.21943  0.43082  0.27923  1.0000
  H   H21       1.0  0.61416  0.93213  0.69305  1.0000
  H   H22       1.0  0.88585  0.06786  0.19305  1.0000
  H   H23       1.0  0.38584  0.43213  0.80695  1.0000
  H   H24       1.0  0.11416  0.56787  0.30695  1.0000
  H   H25       1.0  0.96084  0.74431  0.72546  1.0000
  H   H26       1.0  0.53916  0.25569  0.22546  1.0000
  H   H27       1.0  0.03916  0.24431  0.77454  1.0000
  H   H28       1.0  0.46084  0.75569  0.27454  1.0000
  H   H29       1.0  0.75595  0.73902  0.70817  1.0000
  H   H30       1.0  0.74406  0.26098  0.20817  1.0000
  H   H31       1.0  0.24405  0.23902  0.79183  1.0000
  H   H32       1.0  0.25595  0.76098  0.29183  1.0000
  H   H33       1.0  0.97623  0.70076  0.11217  1.0000
  H   H34       1.0  0.52377  0.29924  0.61217  1.0000
  H   H35       1.0  0.02377  0.20076  0.38783  1.0000
  H   H36       1.0  0.47623  0.79924  0.88783  1.0000
  H   H37       1.0  0.05480  0.82151  0.17930  1.0000
  H   H38       1.0  0.44520  0.17849  0.67931  1.0000
  H   H39       1.0  0.94520  0.32151  0.32070  1.0000
  H   H40       1.0  0.55480  0.67849  0.82070  1.0000
  H   H41       1.0  0.26904  0.95236  0.99606  1.0000
  H   H42       1.0  0.23096  0.04764  0.49606  1.0000
  H   H43       1.0  0.73096  0.45236  0.50394  1.0000
  H   H44       1.0  0.76904  0.54764  0.00394  1.0000
  H   H45       1.0  0.18501  0.98538  0.10366  1.0000
  H   H46       1.0  0.31499  0.01462  0.60366  1.0000
  H   H47       1.0  0.81499  0.48538  0.39634  1.0000
  H   H48       1.0  0.68501  0.51462  0.89633  1.0000
  C   C1        1.0  0.85476  0.91433  0.72223  1.0000
  C   C2        1.0  0.64524  0.08567  0.22223  1.0000
  C   C3        1.0  0.14524  0.41433  0.77777  1.0000
  C   C4        1.0  0.35476  0.58567  0.27777  1.0000
  C   C5        1.0  0.11203  0.82426  0.04271  1.0000
  C   C6        1.0  0.38798  0.17574  0.54271  1.0000
  C   C7        1.0  0.88798  0.32426  0.45729  1.0000
  C   C8        1.0  0.61202  0.67574  0.95729  1.0000
  C   C9        1.0  0.44311  0.05310  0.86148  1.0000
  C   C10       1.0  0.05689  0.94690  0.36148  1.0000
  C   C11       1.0  0.55689  0.55310  0.63852  1.0000
  C   C12       1.0  0.94311  0.44690  0.13852  1.0000
  C   C13       1.0  0.65895  0.26847  0.82944  1.0000
  C   C14       1.0  0.84105  0.73152  0.32944  1.0000
  C   C15       1.0  0.34105  0.76847  0.67056  1.0000
  C   C16       1.0  0.15895  0.23153  0.17056  1.0000
  C   C17       1.0  0.67643  0.18023  0.90791  1.0000
  C   C18       1.0  0.82357  0.81977  0.40790  1.0000
  C   C19       1.0  0.32357  0.68023  0.59210  1.0000
  C   C20       1.0  0.17643  0.31977  0.09210  1.0000
  C   C21       1.0  0.58012  0.08239  0.92042  1.0000
  C   C22       1.0  0.91988  0.91761  0.42042  1.0000
  C   C23       1.0  0.41988  0.58239  0.57958  1.0000
  C   C24       1.0  0.08012  0.41761  0.07958  1.0000
  C   C25       1.0  0.81258  0.20976  0.96990  1.0000
  C   C26       1.0  0.68742  0.79024  0.46990  1.0000
  C   C27       1.0  0.18742  0.70976  0.53010  1.0000
  C   C28       1.0  0.31258  0.29025  0.03010  1.0000
  S   S1        1.0  0.02622  0.99915  0.74333  1.0000
  S   S2        1.0  0.47378  0.00086  0.24332  1.0000
  S   S3        1.0  0.97378  0.49914  0.75667  1.0000
  S   S4        1.0  0.52622  0.50085  0.25667  1.0000
  S   S5        1.0  0.09518  0.73881  0.94368  1.0000
  S   S6        1.0  0.40483  0.26119  0.44368  1.0000
  S   S7        1.0  0.90483  0.23881  0.55632  1.0000
  S   S8        1.0  0.59517  0.76119  0.05632  1.0000
  N   N1        1.0  0.71954  0.97589  0.70873  1.0000
  N   N2        1.0  0.78046  0.02411  0.20873  1.0000
  N   N3        1.0  0.28046  0.47589  0.79127  1.0000
  N   N4        1.0  0.21954  0.52411  0.29127  1.0000
  N   N5        1.0  0.85749  0.79146  0.71557  1.0000
  N   N6        1.0  0.64251  0.20854  0.21557  1.0000
  N   N7        1.0  0.14251  0.29146  0.78443  1.0000
  N   N8        1.0  0.35749  0.70854  0.28443  1.0000
  N   N9        1.0  0.04004  0.78076  0.11693  1.0000
  N   N10       1.0  0.45997  0.21924  0.61693  1.0000
  N   N11       1.0  0.95997  0.28076  0.38307  1.0000
  N   N12       1.0  0.54003  0.71924  0.88307  1.0000
  N   N13       1.0  0.19193  0.93022  0.04739  1.0000
  N   N14       1.0  0.30807  0.06978  0.54739  1.0000
  N   N15       1.0  0.80807  0.43022  0.45261  1.0000
  N   N16       1.0  0.69193  0.56978  0.95261  1.0000
  O   O1        1.0  0.36840  0.95213  0.88521  1.0000
  O   O2        1.0  0.13160  0.04787  0.38520  1.0000
  O   O3        1.0  0.63160  0.45213  0.61480  1.0000
  O   O4        1.0  0.86840  0.54788  0.11479  1.0000
  O   O5        1.0  0.40021  0.12003  0.79590  1.0000
  O   O6        1.0  0.09979  0.87997  0.29589  1.0000
  O   O7        1.0  0.59979  0.62003  0.70411  1.0000
  O   O8        1.0  0.90021  0.37997  0.20410  1.0000
  O   O9        1.0  0.73971  0.23730  0.75796  1.0000
  O   O10       1.0  0.76028  0.76270  0.25796  1.0000
  O   O11       1.0  0.26028  0.73730  0.74204  1.0000
  O   O12       1.0  0.23971  0.26270  0.24204  1.0000
  O   O13       1.0  0.58399  0.36740  0.83936  1.0000
  O   O14       1.0  0.91601  0.63260  0.33936  1.0000
  O   O15       1.0  0.41601  0.86740  0.66064  1.0000
  O   O16       1.0  0.08399  0.13260  0.16064  1.0000
