data_image0
_chemical_formula_structural       Zn4H48C40S8N16O16
_chemical_formula_sum              "Zn4 H48 C40 S8 N16 O16"
_cell_length_a       8.29422
_cell_length_b       10.7935
_cell_length_c       15.8416
_cell_angle_alpha    90.0002
_cell_angle_beta     90.0001
_cell_angle_gamma    90

_space_group_name_H-M_alt    "P 1"
_space_group_IT_number       1

loop_
  _space_group_symop_operation_xyz
  'x, y, z'

loop_
  _atom_site_type_symbol
  _atom_site_label
  _atom_site_symmetry_multiplicity
  _atom_site_fract_x
  _atom_site_fract_y
  _atom_site_fract_z
  _atom_site_occupancy
  Zn  Zn1       1.0  0.81878  0.90192  0.66145  1.0000
  Zn  Zn2       1.0  0.68122  0.09808  0.16145  1.0000
  Zn  Zn3       1.0  0.18122  0.40192  0.83855  1.0000
  Zn  Zn4       1.0  0.31878  0.59808  0.33855  1.0000
  H   H1        1.0  0.72266  0.97968  0.50393  1.0000
  H   H2        1.0  0.77734  0.02032  0.00393  1.0000
  H   H3        1.0  0.27734  0.47968  0.99607  1.0000
  H   H4        1.0  0.22266  0.52032  0.49607  1.0000
  H   H5        1.0  0.79494  0.00183  0.39945  1.0000
  H   H6        1.0  0.70506  0.99817  0.89946  1.0000
  H   H7        1.0  0.20506  0.50183  0.10055  1.0000
  H   H8        1.0  0.29494  0.49817  0.60055  1.0000
  H   H9        1.0  0.03147  0.73325  0.39623  1.0000
  H   H10       1.0  0.46853  0.26675  0.89623  1.0000
  H   H11       1.0  0.96853  0.23325  0.10377  1.0000
  H   H12       1.0  0.53148  0.76675  0.60377  1.0000
  H   H13       1.0  0.92855  0.83793  0.33216  1.0000
  H   H14       1.0  0.57145  0.16207  0.83216  1.0000
  H   H15       1.0  0.07145  0.33793  0.16784  1.0000
  H   H16       1.0  0.42855  0.66207  0.66784  1.0000
  H   H17       1.0  0.04194  0.76193  0.76083  1.0000
  H   H18       1.0  0.45806  0.23807  0.26083  1.0000
  H   H19       1.0  0.95806  0.26193  0.73917  1.0000
  H   H20       1.0  0.54194  0.73807  0.23917  1.0000
  H   H21       1.0  0.24857  0.75916  0.77789  1.0000
  H   H22       1.0  0.25143  0.24084  0.27788  1.0000
  H   H23       1.0  0.75143  0.25916  0.72212  1.0000
  H   H24       1.0  0.74857  0.74084  0.22211  1.0000
  H   H25       1.0  0.27694  0.09213  0.77673  1.0000
  H   H26       1.0  0.22306  0.90787  0.27672  1.0000
  H   H27       1.0  0.72306  0.59213  0.72327  1.0000
  H   H28       1.0  0.77694  0.40788  0.22327  1.0000
  H   H29       1.0  0.38859  0.95344  0.79124  1.0000
  H   H30       1.0  0.11141  0.04656  0.29124  1.0000
  H   H31       1.0  0.61141  0.45344  0.70876  1.0000
  H   H32       1.0  0.88859  0.54657  0.20876  1.0000
  H   H33       1.0  0.91763  0.81357  0.90191  1.0000
  H   H34       1.0  0.58237  0.18643  0.40191  1.0000
  H   H35       1.0  0.08237  0.31356  0.59809  1.0000
  H   H36       1.0  0.41762  0.68644  0.09809  1.0000
  H   H37       1.0  0.00633  0.67665  0.01912  1.0000
  H   H38       1.0  0.49367  0.32336  0.51912  1.0000
  H   H39       1.0  0.99367  0.17664  0.48088  1.0000
  H   H40       1.0  0.50633  0.82336  0.98088  1.0000
  H   H41       1.0  0.83720  0.49583  0.06100  1.0000
  H   H42       1.0  0.66281  0.50417  0.56100  1.0000
  H   H43       1.0  0.16280  0.99583  0.43899  1.0000
  H   H44       1.0  0.33719  0.00417  0.93899  1.0000
  H   H45       1.0  0.57990  0.45566  0.98826  1.0000
  H   H46       1.0  0.92011  0.54434  0.48826  1.0000
  H   H47       1.0  0.42011  0.95566  0.51173  1.0000
  H   H48       1.0  0.07989  0.04434  0.01174  1.0000
  C   C1        1.0  0.88100  0.84965  0.46058  1.0000
  C   C2        1.0  0.61900  0.15034  0.96058  1.0000
  C   C3        1.0  0.11900  0.34965  0.03942  1.0000
  C   C4        1.0  0.38100  0.65035  0.53942  1.0000
  C   C5        1.0  0.14522  0.93398  0.76645  1.0000
  C   C6        1.0  0.35478  0.06602  0.26644  1.0000
  C   C7        1.0  0.85478  0.43398  0.73356  1.0000
  C   C8        1.0  0.64522  0.56602  0.23355  1.0000
  C   C9        1.0  0.66034  0.79563  0.80549  1.0000
  C   C10       1.0  0.83966  0.20437  0.30549  1.0000
  C   C11       1.0  0.33966  0.29563  0.69451  1.0000
  C   C12       1.0  0.16034  0.70437  0.19451  1.0000
  C   C13       1.0  0.69911  0.71073  0.87791  1.0000
  C   C14       1.0  0.80090  0.28927  0.37791  1.0000
  C   C15       1.0  0.30089  0.21072  0.62209  1.0000
  C   C16       1.0  0.19911  0.78928  0.12209  1.0000
  C   C17       1.0  0.84324  0.73489  0.92090  1.0000
  C   C18       1.0  0.65677  0.26511  0.42090  1.0000
  C   C19       1.0  0.15676  0.23488  0.57910  1.0000
  C   C20       1.0  0.34323  0.76512  0.07910  1.0000
  C   C21       1.0  0.89330  0.65814  0.98665  1.0000
  C   C22       1.0  0.60671  0.34186  0.48665  1.0000
  C   C23       1.0  0.10671  0.15813  0.51335  1.0000
  C   C24       1.0  0.39330  0.84186  0.01335  1.0000
  C   C25       1.0  0.79858  0.55713  0.01042  1.0000
  C   C26       1.0  0.70142  0.44287  0.51043  1.0000
  C   C27       1.0  0.20142  0.05713  0.48957  1.0000
  C   C28       1.0  0.29858  0.94287  0.98958  1.0000
  C   C29       1.0  0.65352  0.53442  0.96934  1.0000
  C   C30       1.0  0.84649  0.46558  0.46934  1.0000
  C   C31       1.0  0.34649  0.03442  0.53066  1.0000
  C   C32       1.0  0.15352  0.96558  0.03066  1.0000
  C   C33       1.0  0.60217  0.61019  0.90261  1.0000
  C   C34       1.0  0.89783  0.38981  0.40261  1.0000
  C   C35       1.0  0.39783  0.11019  0.59739  1.0000
  C   C36       1.0  0.10218  0.88981  0.09739  1.0000
  C   C37       1.0  0.44762  0.58263  0.85798  1.0000
  C   C38       1.0  0.05239  0.41737  0.35798  1.0000
  C   C39       1.0  0.55239  0.08263  0.64202  1.0000
  C   C40       1.0  0.94761  0.91737  0.14202  1.0000
  S   S1        1.0  0.91685  0.77499  0.55506  1.0000
  S   S2        1.0  0.58314  0.22501  0.05506  1.0000
  S   S3        1.0  0.08315  0.27499  0.94494  1.0000
  S   S4        1.0  0.41685  0.72502  0.44494  1.0000
  S   S5        1.0  0.96818  0.01751  0.75380  1.0000
  S   S6        1.0  0.53182  0.98249  0.25379  1.0000
  S   S7        1.0  0.03182  0.51751  0.74621  1.0000
  S   S8        1.0  0.46818  0.48249  0.24620  1.0000
  N   N1        1.0  0.78774  0.94918  0.45317  1.0000
  N   N2        1.0  0.71226  0.05082  0.95317  1.0000
  N   N3        1.0  0.21226  0.44918  0.04683  1.0000
  N   N4        1.0  0.28774  0.55082  0.54683  1.0000
  N   N5        1.0  0.95235  0.80441  0.39125  1.0000
  N   N6        1.0  0.54765  0.19559  0.89125  1.0000
  N   N7        1.0  0.04765  0.30441  0.10875  1.0000
  N   N8        1.0  0.45235  0.69559  0.60875  1.0000
  N   N9        1.0  0.14638  0.81048  0.76609  1.0000
  N   N10       1.0  0.35362  0.18952  0.26608  1.0000
  N   N11       1.0  0.85362  0.31048  0.73392  1.0000
  N   N12       1.0  0.64638  0.68952  0.23391  1.0000
  N   N13       1.0  0.28030  0.99687  0.77965  1.0000
  N   N14       1.0  0.21970  0.00313  0.27965  1.0000
  N   N15       1.0  0.71970  0.49687  0.72035  1.0000
  N   N16       1.0  0.78030  0.50314  0.22035  1.0000
  O   O1        1.0  0.72132  0.76292  0.73361  1.0000
  O   O2        1.0  0.77868  0.23708  0.23361  1.0000
  O   O3        1.0  0.27868  0.26292  0.76639  1.0000
  O   O4        1.0  0.22132  0.73708  0.26639  1.0000
  O   O5        1.0  0.59056  0.89680  0.81901  1.0000
  O   O6        1.0  0.90943  0.10320  0.31901  1.0000
  O   O7        1.0  0.40943  0.39679  0.68099  1.0000
  O   O8        1.0  0.09056  0.60321  0.18099  1.0000
  O   O9        1.0  0.40575  0.64477  0.79460  1.0000
  O   O10       1.0  0.09425  0.35523  0.29460  1.0000
  O   O11       1.0  0.59424  0.14476  0.70540  1.0000
  O   O12       1.0  0.90575  0.85524  0.20540  1.0000
  O   O13       1.0  0.36486  0.49149  0.88968  1.0000
  O   O14       1.0  0.13514  0.50852  0.38968  1.0000
  O   O15       1.0  0.63515  0.99149  0.61032  1.0000
  O   O16       1.0  0.86485  0.00851  0.11031  1.0000
