data_image0
_chemical_formula_structural       Zn6H54C42N6O30
_chemical_formula_sum              "Zn6 H54 C42 N6 O30"
_cell_length_a       7.99543
_cell_length_b       13.9464
_cell_length_c       13.9464
_cell_angle_alpha    120
_cell_angle_beta     90.0002
_cell_angle_gamma    89.9999

_space_group_name_H-M_alt    "P 1"
_space_group_IT_number       1

loop_
  _space_group_symop_operation_xyz
  'x, y, z'

loop_
  _atom_site_type_symbol
  _atom_site_label
  _atom_site_symmetry_multiplicity
  _atom_site_fract_x
  _atom_site_fract_y
  _atom_site_fract_z
  _atom_site_occupancy
  Zn  Zn1       1.0  0.39576  0.01340  0.23262  1.0000
  Zn  Zn2       1.0  0.39576  0.76738  0.78079  1.0000
  Zn  Zn3       1.0  0.39576  0.21921  0.98660  1.0000
  Zn  Zn4       1.0  0.60424  0.98660  0.76738  1.0000
  Zn  Zn5       1.0  0.60424  0.23261  0.21921  1.0000
  Zn  Zn6       1.0  0.60424  0.78079  0.01340  1.0000
  H   H1        1.0  0.46962  0.57670  0.12817  1.0000
  H   H2        1.0  0.46962  0.87183  0.44853  1.0000
  H   H3        1.0  0.46962  0.55146  0.42330  1.0000
  H   H4        1.0  0.53038  0.42330  0.87183  1.0000
  H   H5        1.0  0.53038  0.12817  0.55147  1.0000
  H   H6        1.0  0.53037  0.44854  0.57670  1.0000
  H   H7        1.0  0.87431  0.95102  0.12083  1.0000
  H   H8        1.0  0.87431  0.87917  0.83019  1.0000
  H   H9        1.0  0.87431  0.16981  0.04898  1.0000
  H   H10       1.0  0.12569  0.04898  0.87917  1.0000
  H   H11       1.0  0.12569  0.12083  0.16981  1.0000
  H   H12       1.0  0.12569  0.83019  0.95102  1.0000
  H   H13       1.0  0.06067  0.92908  0.26149  1.0000
  H   H14       1.0  0.06067  0.73851  0.66760  1.0000
  H   H15       1.0  0.06067  0.33240  0.07092  1.0000
  H   H16       1.0  0.93933  0.07092  0.73851  1.0000
  H   H17       1.0  0.93933  0.26149  0.33240  1.0000
  H   H18       1.0  0.93933  0.66760  0.92908  1.0000
  H   H19       1.0  0.05536  0.19063  0.51819  1.0000
  H   H20       1.0  0.05536  0.48181  0.67244  1.0000
  H   H21       1.0  0.05536  0.32756  0.80937  1.0000
  H   H22       1.0  0.94464  0.80937  0.48181  1.0000
  H   H23       1.0  0.94464  0.51819  0.32756  1.0000
  H   H24       1.0  0.94464  0.67244  0.19063  1.0000
  H   H25       1.0  0.87798  0.15060  0.56965  1.0000
  H   H26       1.0  0.87798  0.43035  0.58094  1.0000
  H   H27       1.0  0.87798  0.41906  0.84941  1.0000
  H   H28       1.0  0.12202  0.84941  0.43035  1.0000
  H   H29       1.0  0.12202  0.56965  0.41906  1.0000
  H   H30       1.0  0.12202  0.58094  0.15059  1.0000
  H   H31       1.0  0.84776  0.20553  0.48008  1.0000
  H   H32       1.0  0.84777  0.51992  0.72545  1.0000
  H   H33       1.0  0.84776  0.27455  0.79447  1.0000
  H   H34       1.0  0.15224  0.79447  0.51992  1.0000
  H   H35       1.0  0.15223  0.48008  0.27455  1.0000
  H   H36       1.0  0.15224  0.72545  0.20553  1.0000
  H   H37       1.0  0.83153  0.88530  0.31193  1.0000
  H   H38       1.0  0.83153  0.68807  0.57337  1.0000
  H   H39       1.0  0.83153  0.42663  0.11470  1.0000
  H   H40       1.0  0.16847  0.11470  0.68807  1.0000
  H   H41       1.0  0.16847  0.31193  0.42663  1.0000
  H   H42       1.0  0.16847  0.57337  0.88530  1.0000
  H   H43       1.0  0.68662  0.99656  0.37920  1.0000
  H   H44       1.0  0.68662  0.62080  0.61736  1.0000
  H   H45       1.0  0.68662  0.38264  0.00344  1.0000
  H   H46       1.0  0.31338  0.00344  0.62080  1.0000
  H   H47       1.0  0.31338  0.37920  0.38264  1.0000
  H   H48       1.0  0.31338  0.61736  0.99656  1.0000
  H   H49       1.0  0.79994  0.95042  0.45886  1.0000
  H   H50       1.0  0.79994  0.54114  0.49156  1.0000
  H   H51       1.0  0.79994  0.50844  0.04958  1.0000
  H   H52       1.0  0.20006  0.04958  0.54114  1.0000
  H   H53       1.0  0.20006  0.45886  0.50844  1.0000
  H   H54       1.0  0.20006  0.49156  0.95042  1.0000
  C   C1        1.0  0.45740  0.79987  0.22670  1.0000
  C   C2        1.0  0.45740  0.77329  0.57317  1.0000
  C   C3        1.0  0.45740  0.42683  0.20013  1.0000
  C   C4        1.0  0.54260  0.20013  0.77330  1.0000
  C   C5        1.0  0.54260  0.22671  0.42683  1.0000
  C   C6        1.0  0.54260  0.57317  0.79987  1.0000
  C   C7        1.0  0.47105  0.73165  0.28253  1.0000
  C   C8        1.0  0.47105  0.71746  0.44912  1.0000
  C   C9        1.0  0.47105  0.55087  0.26834  1.0000
  C   C10       1.0  0.52895  0.26835  0.71747  1.0000
  C   C11       1.0  0.52895  0.28253  0.55088  1.0000
  C   C12       1.0  0.52895  0.44913  0.73166  1.0000
  C   C13       1.0  0.47217  0.61595  0.21805  1.0000
  C   C14       1.0  0.47217  0.78195  0.39790  1.0000
  C   C15       1.0  0.47217  0.60210  0.38405  1.0000
  C   C16       1.0  0.52783  0.38405  0.78195  1.0000
  C   C17       1.0  0.52783  0.21805  0.60210  1.0000
  C   C18       1.0  0.52783  0.39790  0.61595  1.0000
  C   C19       1.0  0.76061  0.00341  0.14897  1.0000
  C   C20       1.0  0.76061  0.85103  0.85444  1.0000
  C   C21       1.0  0.76061  0.14556  0.99659  1.0000
  C   C22       1.0  0.23939  0.99660  0.85103  1.0000
  C   C23       1.0  0.23939  0.14897  0.14556  1.0000
  C   C24       1.0  0.23939  0.85444  0.00340  1.0000
  C   C25       1.0  0.06332  0.01546  0.33005  1.0000
  C   C26       1.0  0.06332  0.66996  0.68541  1.0000
  C   C27       1.0  0.06332  0.31459  0.98454  1.0000
  C   C28       1.0  0.93668  0.98454  0.66995  1.0000
  C   C29       1.0  0.93668  0.33005  0.31459  1.0000
  C   C30       1.0  0.93668  0.68541  0.01546  1.0000
  C   C31       1.0  0.93013  0.15382  0.49859  1.0000
  C   C32       1.0  0.93013  0.50141  0.65523  1.0000
  C   C33       1.0  0.93013  0.34477  0.84618  1.0000
  C   C34       1.0  0.06987  0.84618  0.50141  1.0000
  C   C35       1.0  0.06987  0.49859  0.34477  1.0000
  C   C36       1.0  0.06987  0.65523  0.15382  1.0000
  C   C37       1.0  0.80706  0.96402  0.38792  1.0000
  C   C38       1.0  0.80706  0.61208  0.57609  1.0000
  C   C39       1.0  0.80706  0.42391  0.03599  1.0000
  C   C40       1.0  0.19294  0.03598  0.61208  1.0000
  C   C41       1.0  0.19294  0.38792  0.42391  1.0000
  C   C42       1.0  0.19294  0.57609  0.96401  1.0000
  N   N1        1.0  0.94105  0.04192  0.40447  1.0000
  N   N2        1.0  0.94105  0.59553  0.63744  1.0000
  N   N3        1.0  0.94105  0.36256  0.95809  1.0000
  N   N4        1.0  0.05895  0.95808  0.59553  1.0000
  N   N5        1.0  0.05895  0.40447  0.36256  1.0000
  N   N6        1.0  0.05895  0.63744  0.04191  1.0000
  O   O1        1.0  0.47583  0.74896  0.12249  1.0000
  O   O2        1.0  0.47583  0.87751  0.62647  1.0000
  O   O3        1.0  0.47583  0.37353  0.25104  1.0000
  O   O4        1.0  0.52417  0.25104  0.87751  1.0000
  O   O5        1.0  0.52417  0.12249  0.37353  1.0000
  O   O6        1.0  0.52417  0.62647  0.74897  1.0000
  O   O7        1.0  0.42298  0.90228  0.28821  1.0000
  O   O8        1.0  0.42298  0.71179  0.61407  1.0000
  O   O9        1.0  0.42298  0.38593  0.09772  1.0000
  O   O10       1.0  0.57702  0.09772  0.71179  1.0000
  O   O11       1.0  0.57702  0.28821  0.38593  1.0000
  O   O12       1.0  0.57702  0.61407  0.90228  1.0000
  O   O13       1.0  0.62094  0.95221  0.13291  1.0000
  O   O14       1.0  0.62094  0.86709  0.81930  1.0000
  O   O15       1.0  0.62094  0.18070  0.04779  1.0000
  O   O16       1.0  0.37906  0.04779  0.86709  1.0000
  O   O17       1.0  0.37906  0.13290  0.18070  1.0000
  O   O18       1.0  0.37906  0.81930  0.95221  1.0000
  O   O19       1.0  0.77953  0.10630  0.19281  1.0000
  O   O20       1.0  0.77953  0.80720  0.91350  1.0000
  O   O21       1.0  0.77953  0.08651  0.89370  1.0000
  O   O22       1.0  0.22048  0.89370  0.80719  1.0000
  O   O23       1.0  0.22047  0.19280  0.08650  1.0000
  O   O24       1.0  0.22047  0.91349  0.10630  1.0000
  O   O25       1.0  0.17367  0.08215  0.33561  1.0000
  O   O26       1.0  0.17367  0.66439  0.74653  1.0000
  O   O27       1.0  0.17367  0.25346  0.91785  1.0000
  O   O28       1.0  0.82633  0.91785  0.66439  1.0000
  O   O29       1.0  0.82633  0.33561  0.25347  1.0000
  O   O30       1.0  0.82633  0.74653  0.08215  1.0000
