data_image0
_chemical_formula_structural       Cu4H20C8S2N16O12
_chemical_formula_sum              "Cu4 H20 C8 S2 N16 O12"
_cell_length_a       6.23331
_cell_length_b       6.77382
_cell_length_c       17.0908
_cell_angle_alpha    90.0008
_cell_angle_beta     90.0018
_cell_angle_gamma    104.019

_space_group_name_H-M_alt    "P 1"
_space_group_IT_number       1

loop_
  _space_group_symop_operation_xyz
  'x, y, z'

loop_
  _atom_site_type_symbol
  _atom_site_label
  _atom_site_symmetry_multiplicity
  _atom_site_fract_x
  _atom_site_fract_y
  _atom_site_fract_z
  _atom_site_occupancy
  Cu  Cu1       1.0  0.34464  0.14477  0.74887  1.0000
  Cu  Cu2       1.0  0.65534  0.85524  0.24888  1.0000
  Cu  Cu3       1.0  0.35944  0.64919  0.76314  1.0000
  Cu  Cu4       1.0  0.64058  0.35081  0.26313  1.0000
  H   H1        1.0  0.48310  0.45312  0.67136  1.0000
  H   H2        1.0  0.51692  0.54694  0.17135  1.0000
  H   H3        1.0  0.30807  0.91311  0.85331  1.0000
  H   H4        1.0  0.69197  0.08690  0.35331  1.0000
  H   H5        1.0  0.63284  0.20974  0.95998  1.0000
  H   H6        1.0  0.36719  0.79028  0.45999  1.0000
  H   H7        1.0  0.53508  0.33949  0.88969  1.0000
  H   H8        1.0  0.46492  0.66054  0.38969  1.0000
  H   H9        1.0  0.12670  0.18945  0.58935  1.0000
  H   H10       1.0  0.87326  0.81052  0.08934  1.0000
  H   H11       1.0  0.15391  0.94787  0.59938  1.0000
  H   H12       1.0  0.84609  0.05212  0.09938  1.0000
  H   H13       1.0  0.92107  0.60494  0.87938  1.0000
  H   H14       1.0  0.07893  0.39513  0.37940  1.0000
  H   H15       1.0  0.86705  0.97921  0.83802  1.0000
  H   H16       1.0  0.13298  0.02085  0.33801  1.0000
  H   H17       1.0  0.86564  0.70173  0.68640  1.0000
  H   H18       1.0  0.13437  0.29823  0.18639  1.0000
  H   H19       1.0  0.80307  0.30118  0.64448  1.0000
  H   H20       1.0  0.19690  0.69875  0.14449  1.0000
  C   C1        1.0  0.95594  0.46540  0.85846  1.0000
  C   C2        1.0  0.04405  0.53464  0.35848  1.0000
  C   C3        1.0  0.92974  0.14259  0.83892  1.0000
  C   C4        1.0  0.07028  0.85745  0.33892  1.0000
  C   C5        1.0  0.79503  0.83386  0.68613  1.0000
  C   C6        1.0  0.20497  0.16611  0.18612  1.0000
  C   C7        1.0  0.76206  0.14350  0.66314  1.0000
  C   C8        1.0  0.23791  0.85645  0.16313  1.0000
  S   S1        1.0  0.21084  0.56461  0.57777  1.0000
  S   S2        1.0  0.78915  0.43537  0.07777  1.0000
  N   N1        1.0  0.12300  0.24483  0.81148  1.0000
  N   N2        1.0  0.87701  0.75519  0.31149  1.0000
  N   N3        1.0  0.13898  0.44627  0.82330  1.0000
  N   N4        1.0  0.86101  0.55375  0.32331  1.0000
  N   N5        1.0  0.81951  0.27674  0.86760  1.0000
  N   N6        1.0  0.18050  0.72330  0.36760  1.0000
  N   N7        1.0  0.60640  0.22061  0.89927  1.0000
  N   N8        1.0  0.39362  0.77944  0.39928  1.0000
  N   N9        1.0  0.58200  0.04299  0.70055  1.0000
  N   N10       1.0  0.41799  0.95698  0.20055  1.0000
  N   N11       1.0  0.60246  0.85138  0.71488  1.0000
  N   N12       1.0  0.39755  0.14859  0.21488  1.0000
  N   N13       1.0  0.89800  0.01549  0.65389  1.0000
  N   N14       1.0  0.10198  0.98447  0.15389  1.0000
  N   N15       1.0  0.11714  0.07126  0.62915  1.0000
  N   N16       1.0  0.88283  0.92871  0.12914  1.0000
  O   O1        1.0  0.11124  0.56274  0.65790  1.0000
  O   O2        1.0  0.88874  0.43724  0.15790  1.0000
  O   O3        1.0  0.07044  0.40142  0.52909  1.0000
  O   O4        1.0  0.92954  0.59856  0.02910  1.0000
  O   O5        1.0  0.43888  0.53289  0.58307  1.0000
  O   O6        1.0  0.56111  0.46709  0.08306  1.0000
  O   O7        1.0  0.22149  0.76999  0.54201  1.0000
  O   O8        1.0  0.77851  0.22999  0.04201  1.0000
  O   O9        1.0  0.48660  0.42849  0.72962  1.0000
  O   O10       1.0  0.51341  0.57150  0.22961  1.0000
  O   O11       1.0  0.24207  0.87594  0.80169  1.0000
  O   O12       1.0  0.75794  0.12406  0.30170  1.0000
