data_image0
_chemical_formula_structural       H52Pb2C28O8
_chemical_formula_sum              "H52 Pb2 C28 O8"
_cell_length_a       4.78065
_cell_length_b       7.47018
_cell_length_c       22.9116
_cell_angle_alpha    86.2078
_cell_angle_beta     98.2588
_cell_angle_gamma    99.1219

_space_group_name_H-M_alt    "P 1"
_space_group_IT_number       1

loop_
  _space_group_symop_operation_xyz
  'x, y, z'

loop_
  _atom_site_type_symbol
  _atom_site_label
  _atom_site_symmetry_multiplicity
  _atom_site_fract_x
  _atom_site_fract_y
  _atom_site_fract_z
  _atom_site_occupancy
  H   H1        1.0  0.58873  0.90446  0.12960  1.0000
  H   H2        1.0  0.41123  0.09553  0.87040  1.0000
  H   H3        1.0  0.59105  0.66536  0.12983  1.0000
  H   H4        1.0  0.40893  0.33463  0.87017  1.0000
  H   H5        1.0  0.08316  0.84301  0.15335  1.0000
  H   H6        1.0  0.91679  0.15697  0.84665  1.0000
  H   H7        1.0  0.09949  0.60743  0.15872  1.0000
  H   H8        1.0  0.90052  0.39254  0.84129  1.0000
  H   H9        1.0  0.48934  0.89149  0.23602  1.0000
  H   H10       1.0  0.51064  0.10853  0.76398  1.0000
  H   H11       1.0  0.48559  0.65509  0.24507  1.0000
  H   H12       1.0  0.51443  0.34494  0.75493  1.0000
  H   H13       1.0  0.96826  0.84588  0.25033  1.0000
  H   H14       1.0  0.03174  0.15411  0.74967  1.0000
  H   H15       1.0  0.97859  0.61369  0.26519  1.0000
  H   H16       1.0  0.02142  0.38631  0.73482  1.0000
  H   H17       1.0  0.34671  0.68261  0.35318  1.0000
  H   H18       1.0  0.65332  0.31743  0.64683  1.0000
  H   H19       1.0  0.35585  0.91619  0.33633  1.0000
  H   H20       1.0  0.64414  0.08384  0.66367  1.0000
  H   H21       1.0  0.83555  0.88883  0.35109  1.0000
  H   H22       1.0  0.16447  0.11119  0.64891  1.0000
  H   H23       1.0  0.05009  0.81880  0.41564  1.0000
  H   H24       1.0  0.94995  0.18124  0.58437  1.0000
  H   H25       1.0  0.83066  0.65532  0.36974  1.0000
  H   H26       1.0  0.16938  0.34471  0.63028  1.0000
  H   H27       1.0  0.67557  0.41261  0.20605  1.0000
  H   H28       1.0  0.32445  0.58741  0.79395  1.0000
  H   H29       1.0  0.53449  0.18315  0.20891  1.0000
  H   H30       1.0  0.46553  0.81683  0.79109  1.0000
  H   H31       1.0  0.15374  0.34118  0.25800  1.0000
  H   H32       1.0  0.84628  0.65880  0.74199  1.0000
  H   H33       1.0  0.01151  0.11137  0.26280  1.0000
  H   H34       1.0  0.98852  0.88863  0.73720  1.0000
  H   H35       1.0  0.67841  0.17028  0.33047  1.0000
  H   H36       1.0  0.32162  0.82971  0.66953  1.0000
  H   H37       1.0  0.77653  0.40566  0.32052  1.0000
  H   H38       1.0  0.22349  0.59433  0.67948  1.0000
  H   H39       1.0  0.28665  0.37482  0.36147  1.0000
  H   H40       1.0  0.71336  0.62520  0.63853  1.0000
  H   H41       1.0  0.18660  0.14023  0.37221  1.0000
  H   H42       1.0  0.81347  0.85979  0.62778  1.0000
  H   H43       1.0  0.85081  0.20438  0.44297  1.0000
  H   H44       1.0  0.14920  0.79558  0.55702  1.0000
  H   H45       1.0  0.98847  0.43653  0.43538  1.0000
  H   H46       1.0  0.01149  0.56344  0.56461  1.0000
  H   H47       1.0  0.33260  0.13053  0.48413  1.0000
  H   H48       1.0  0.66739  0.86946  0.51587  1.0000
  H   H49       1.0  0.25846  0.30766  0.52467  1.0000
  H   H50       1.0  0.74151  0.69233  0.47533  1.0000
  H   H51       1.0  0.49110  0.35766  0.47022  1.0000
  H   H52       1.0  0.50889  0.64233  0.52977  1.0000
  Pb  Pb1       1.0  0.16531  0.26108  0.04765  1.0000
  Pb  Pb2       1.0  0.83467  0.73892  0.95234  1.0000
  C   C1        1.0  0.30157  0.76811  0.06038  1.0000
  C   C2        1.0  0.69840  0.23186  0.93962  1.0000
  C   C3        1.0  0.45424  0.77195  0.12285  1.0000
  C   C4        1.0  0.54573  0.22804  0.87715  1.0000
  C   C5        1.0  0.22846  0.74220  0.16533  1.0000
  C   C6        1.0  0.77151  0.25778  0.83467  1.0000
  C   C7        1.0  0.34931  0.75983  0.23032  1.0000
  C   C8        1.0  0.65068  0.24018  0.76968  1.0000
  C   C9        1.0  0.11109  0.74808  0.26871  1.0000
  C   C10       1.0  0.88891  0.25193  0.73130  1.0000
  C   C11       1.0  0.21392  0.78453  0.33356  1.0000
  C   C12       1.0  0.78608  0.21549  0.66645  1.0000
  C   C13       1.0  0.97038  0.78716  0.36951  1.0000
  C   C14       1.0  0.02964  0.21287  0.63049  1.0000
  C   C15       1.0  0.84666  0.25429  0.15037  1.0000
  C   C16       1.0  0.15332  0.74571  0.84963  1.0000
  C   C17       1.0  0.73756  0.27617  0.20821  1.0000
  C   C18       1.0  0.26244  0.72384  0.79179  1.0000
  C   C19       1.0  0.95398  0.24818  0.26250  1.0000
  C   C20       1.0  0.04604  0.75182  0.73750  1.0000
  C   C21       1.0  0.85907  0.27551  0.32180  1.0000
  C   C22       1.0  0.14096  0.72449  0.67820  1.0000
  C   C23       1.0  0.10725  0.27099  0.37181  1.0000
  C   C24       1.0  0.89278  0.72901  0.62818  1.0000
  C   C25       1.0  0.04214  0.29899  0.43360  1.0000
  C   C26       1.0  0.95786  0.70099  0.56640  1.0000
  C   C27       1.0  0.29406  0.27254  0.48086  1.0000
  C   C28       1.0  0.70593  0.72745  0.51914  1.0000
  O   O1        1.0  0.21071  0.91111  0.03616  1.0000
  O   O2        1.0  0.78936  0.08888  0.96383  1.0000
  O   O3        1.0  0.25066  0.61922  0.03352  1.0000
  O   O4        1.0  0.74922  0.38073  0.96649  1.0000
  O   O5        1.0  0.71654  0.31294  0.10179  1.0000
  O   O6        1.0  0.28343  0.68707  0.89821  1.0000
  O   O7        1.0  0.07167  0.18109  0.15147  1.0000
  O   O8        1.0  0.92829  0.81890  0.84853  1.0000
