data_image0
_chemical_formula_structural       Cd2H36C38N8Cl4O8
_chemical_formula_sum              "Cd2 H36 C38 N8 Cl4 O8"
_cell_length_a       9.82422
_cell_length_b       10.0997
_cell_length_c       12.0724
_cell_angle_alpha    84.5573
_cell_angle_beta     67.8923
_cell_angle_gamma    71.2012

_space_group_name_H-M_alt    "P 1"
_space_group_IT_number       1

loop_
  _space_group_symop_operation_xyz
  'x, y, z'

loop_
  _atom_site_type_symbol
  _atom_site_label
  _atom_site_symmetry_multiplicity
  _atom_site_fract_x
  _atom_site_fract_y
  _atom_site_fract_z
  _atom_site_occupancy
  Cd  Cd1       1.0  0.55307  0.02628  0.81454  1.0000
  Cd  Cd2       1.0  0.44693  0.97372  0.18546  1.0000
  H   H1        1.0  0.18180  0.12163  0.71594  1.0000
  H   H2        1.0  0.81820  0.87837  0.28406  1.0000
  H   H3        1.0  0.26951  0.95986  0.76609  1.0000
  H   H4        1.0  0.73049  0.04014  0.23391  1.0000
  H   H5        1.0  0.49119  0.73398  0.36356  1.0000
  H   H6        1.0  0.50881  0.26602  0.63645  1.0000
  H   H7        1.0  0.77499  0.87945  0.96823  1.0000
  H   H8        1.0  0.22501  0.12055  0.03177  1.0000
  H   H9        1.0  0.00748  0.81502  0.03764  1.0000
  H   H10       1.0  0.99253  0.18497  0.96236  1.0000
  H   H11       1.0  0.17472  0.85889  0.94252  1.0000
  H   H12       1.0  0.82528  0.14110  0.05748  1.0000
  H   H13       1.0  0.14071  0.70855  0.90899  1.0000
  H   H14       1.0  0.85929  0.29144  0.09100  1.0000
  H   H15       1.0  0.38395  0.69710  0.69805  1.0000
  H   H16       1.0  0.61605  0.30290  0.30195  1.0000
  H   H17       1.0  0.46610  0.59625  0.56315  1.0000
  H   H18       1.0  0.53390  0.40375  0.43685  1.0000
  H   H19       1.0  0.26256  0.65249  0.63986  1.0000
  H   H20       1.0  0.73744  0.34751  0.36015  1.0000
  H   H21       1.0  0.34845  0.21829  0.38902  1.0000
  H   H22       1.0  0.65155  0.78171  0.61098  1.0000
  H   H23       1.0  0.25880  0.24060  0.54743  1.0000
  H   H24       1.0  0.74120  0.75940  0.45257  1.0000
  H   H25       1.0  0.15079  0.22961  0.46157  1.0000
  H   H26       1.0  0.84921  0.77039  0.53843  1.0000
  H   H27       1.0  0.77597  0.18928  0.65047  1.0000
  H   H28       1.0  0.22403  0.81072  0.34954  1.0000
  H   H29       1.0  0.96293  0.08980  0.55491  1.0000
  H   H30       1.0  0.03707  0.91020  0.44509  1.0000
  H   H31       1.0  0.94134  0.22835  0.64578  1.0000
  H   H32       1.0  0.05866  0.77166  0.35422  1.0000
  H   H33       1.0  0.19337  0.36372  0.08719  1.0000
  H   H34       1.0  0.80664  0.63629  0.91280  1.0000
  H   H35       1.0  0.36107  0.71710  0.12601  1.0000
  H   H36       1.0  0.63894  0.28289  0.87399  1.0000
  C   C1        1.0  0.19730  0.00884  0.71334  1.0000
  C   C2        1.0  0.80270  0.99116  0.28666  1.0000
  C   C3        1.0  0.04263  0.98530  0.77225  1.0000
  C   C4        1.0  0.95737  0.01470  0.22775  1.0000
  C   C5        1.0  0.31224  0.03382  0.48139  1.0000
  C   C6        1.0  0.68776  0.96618  0.51861  1.0000
  C   C7        1.0  0.91090  0.04484  0.74123  1.0000
  C   C8        1.0  0.08910  0.95516  0.25877  1.0000
  C   C9        1.0  0.08395  0.81708  0.94437  1.0000
  C   C10       1.0  0.91605  0.18291  0.05563  1.0000
  C   C11       1.0  0.35653  0.81451  0.54720  1.0000
  C   C12       1.0  0.64347  0.18549  0.45281  1.0000
  C   C13       1.0  0.36764  0.68331  0.61535  1.0000
  C   C14       1.0  0.63236  0.31669  0.38466  1.0000
  C   C15       1.0  0.99669  0.90436  0.87150  1.0000
  C   C16       1.0  0.00331  0.09563  0.12850  1.0000
  C   C17       1.0  0.26521  0.18856  0.46901  1.0000
  C   C18       1.0  0.73479  0.81144  0.53099  1.0000
  C   C19       1.0  0.89622  0.14276  0.64325  1.0000
  C   C20       1.0  0.10378  0.85724  0.35675  1.0000
  C   C21       1.0  0.50357  0.77349  0.89983  1.0000
  C   C22       1.0  0.49643  0.22651  0.10017  1.0000
  C   C23       1.0  0.28347  0.95497  0.58611  1.0000
  C   C24       1.0  0.71653  0.04503  0.41389  1.0000
  C   C25       1.0  0.14236  0.40852  0.92642  1.0000
  C   C26       1.0  0.85765  0.59148  0.07358  1.0000
  C   C27       1.0  0.96819  0.51400  0.12137  1.0000
  C   C28       1.0  0.03180  0.48600  0.87863  1.0000
  C   C29       1.0  0.10884  0.42356  0.04870  1.0000
  C   C30       1.0  0.89116  0.57645  0.95131  1.0000
  C   C31       1.0  0.29452  0.30787  0.85118  1.0000
  C   C32       1.0  0.70547  0.69213  0.14883  1.0000
  C   C33       1.0  0.50182  0.63149  0.94833  1.0000
  C   C34       1.0  0.49818  0.36851  0.05167  1.0000
  C   C35       1.0  0.42244  0.62159  0.07069  1.0000
  C   C36       1.0  0.57757  0.37841  0.92931  1.0000
  C   C37       1.0  0.57992  0.50730  0.87768  1.0000
  C   C38       1.0  0.42009  0.49270  0.12232  1.0000
  N   N1        1.0  0.79172  0.00313  0.81710  1.0000
  N   N2        1.0  0.20828  0.99686  0.18290  1.0000
  N   N3        1.0  0.39780  0.94649  0.38482  1.0000
  N   N4        1.0  0.60220  0.05351  0.61518  1.0000
  N   N5        1.0  0.42275  0.81498  0.42677  1.0000
  N   N6        1.0  0.57724  0.18502  0.57324  1.0000
  N   N7        1.0  0.84650  0.91769  0.89501  1.0000
  N   N8        1.0  0.15350  0.08231  0.10499  1.0000
  Cl  Cl1       1.0  0.93340  0.53145  0.27190  1.0000
  Cl  Cl2       1.0  0.06660  0.46855  0.72810  1.0000
  Cl  Cl3       1.0  0.68501  0.50807  0.72643  1.0000
  Cl  Cl4       1.0  0.31500  0.49193  0.27356  1.0000
  O   O1        1.0  0.52754  0.85529  0.96087  1.0000
  O   O2        1.0  0.47246  0.14471  0.03913  1.0000
  O   O3        1.0  0.48445  0.80828  0.80222  1.0000
  O   O4        1.0  0.51555  0.19172  0.19778  1.0000
  O   O5        1.0  0.38949  0.35454  0.76967  1.0000
  O   O6        1.0  0.61051  0.64547  0.23032  1.0000
  O   O7        1.0  0.31281  0.17907  0.88063  1.0000
  O   O8        1.0  0.68719  0.82093  0.11936  1.0000
