data_image0
_chemical_formula_structural       Ag2H18C20S2N4O4
_chemical_formula_sum              "Ag2 H18 C20 S2 N4 O4"
_cell_length_a       5.81591
_cell_length_b       9.784
_cell_length_c       10.1161
_cell_angle_alpha    116.143
_cell_angle_beta     89.9998
_cell_angle_gamma    89.9999

_space_group_name_H-M_alt    "P 1"
_space_group_IT_number       1

loop_
  _space_group_symop_operation_xyz
  'x, y, z'

loop_
  _atom_site_type_symbol
  _atom_site_label
  _atom_site_symmetry_multiplicity
  _atom_site_fract_x
  _atom_site_fract_y
  _atom_site_fract_z
  _atom_site_occupancy
  Ag  Ag1       1.0  0.10174  0.58962  0.16961  1.0000
  Ag  Ag2       1.0  0.60175  0.41038  0.83039  1.0000
  H   H1        1.0  0.79151  0.06675  0.75218  1.0000
  H   H2        1.0  0.29151  0.93325  0.24782  1.0000
  H   H3        1.0  0.50586  0.05043  0.95133  1.0000
  H   H4        1.0  0.00584  0.94956  0.04867  1.0000
  H   H5        1.0  0.67582  0.19649  0.21939  1.0000
  H   H6        1.0  0.17581  0.80350  0.78062  1.0000
  H   H7        1.0  0.52846  0.44050  0.22035  1.0000
  H   H8        1.0  0.02842  0.55951  0.77965  1.0000
  H   H9        1.0  0.84093  0.49369  0.40831  1.0000
  H   H10       1.0  0.34091  0.50631  0.59169  1.0000
  H   H11       1.0  0.82313  0.74017  0.63982  1.0000
  H   H12       1.0  0.32312  0.25984  0.36019  1.0000
  H   H13       1.0  0.49527  0.91837  0.67485  1.0000
  H   H14       1.0  0.99527  0.08163  0.32515  1.0000
  H   H15       1.0  0.03419  0.84055  0.40675  1.0000
  H   H16       1.0  0.53420  0.15944  0.59324  1.0000
  H   H17       1.0  0.16095  0.97389  0.57404  1.0000
  H   H18       1.0  0.66095  0.02611  0.42595  1.0000
  C   C1        1.0  0.20689  0.24610  0.86185  1.0000
  C   C2        1.0  0.70691  0.75390  0.13816  1.0000
  C   C3        1.0  0.01346  0.20655  0.93349  1.0000
  C   C4        1.0  0.51347  0.79344  0.06651  1.0000
  C   C5        1.0  0.82103  0.11907  0.87047  1.0000
  C   C6        1.0  0.32102  0.88094  0.12955  1.0000
  C   C7        1.0  0.66951  0.11044  0.97657  1.0000
  C   C8        1.0  0.16949  0.88957  0.02343  1.0000
  C   C9        1.0  0.75163  0.18869  0.11824  1.0000
  C   C10       1.0  0.25164  0.81132  0.88176  1.0000
  C   C11       1.0  0.52798  0.54416  0.32394  1.0000
  C   C12       1.0  0.02797  0.45585  0.67607  1.0000
  C   C13       1.0  0.70095  0.57388  0.42701  1.0000
  C   C14       1.0  0.20094  0.42614  0.57301  1.0000
  C   C15       1.0  0.69032  0.71162  0.55586  1.0000
  C   C16       1.0  0.19034  0.28837  0.44413  1.0000
  C   C17       1.0  0.51068  0.81099  0.57631  1.0000
  C   C18       1.0  0.01069  0.18900  0.42368  1.0000
  C   C19       1.0  0.33868  0.77362  0.46652  1.0000
  C   C20       1.0  0.83868  0.22638  0.53348  1.0000
  S   S1        1.0  0.00853  0.27637  0.12257  1.0000
  S   S2        1.0  0.50852  0.72363  0.87742  1.0000
  N   N1        1.0  0.35052  0.63985  0.34175  1.0000
  N   N2        1.0  0.85050  0.36016  0.65825  1.0000
  N   N3        1.0  0.16222  0.86960  0.48384  1.0000
  N   N4        1.0  0.66221  0.13040  0.51616  1.0000
  O   O1        1.0  0.31599  0.36966  0.94531  1.0000
  O   O2        1.0  0.81598  0.63032  0.05467  1.0000
  O   O3        1.0  0.25479  0.16058  0.72919  1.0000
  O   O4        1.0  0.75480  0.83940  0.27080  1.0000
