data_image0
_chemical_formula_structural       Cd2B4H28C24N36
_chemical_formula_sum              "Cd2 B4 H28 C24 N36"
_cell_length_a       8.73869
_cell_length_b       8.7387
_cell_length_c       15.6145
_cell_angle_alpha    102.311
_cell_angle_beta     102.311
_cell_angle_gamma    100.967

_space_group_name_H-M_alt    "P 1"
_space_group_IT_number       1

loop_
  _space_group_symop_operation_xyz
  'x, y, z'

loop_
  _atom_site_type_symbol
  _atom_site_label
  _atom_site_symmetry_multiplicity
  _atom_site_fract_x
  _atom_site_fract_y
  _atom_site_fract_z
  _atom_site_occupancy
  Cd  Cd1       1.0  0.50000  0.00000  0.50000  1.0000
  Cd  Cd2       1.0  1.00000  0.50000  1.00000  1.0000
  B   B1        1.0  0.13874  0.41508  0.65149  1.0000
  B   B2        1.0  0.58492  0.86126  0.84851  1.0000
  B   B3        1.0  0.86126  0.58492  0.34851  1.0000
  B   B4        1.0  0.41508  0.13874  0.15149  1.0000
  H   H1        1.0  0.06657  0.35571  0.45378  1.0000
  H   H2        1.0  0.64429  0.93343  0.04622  1.0000
  H   H3        1.0  0.93343  0.64429  0.54622  1.0000
  H   H4        1.0  0.35570  0.06657  0.95378  1.0000
  H   H5        1.0  0.75469  0.15176  0.36686  1.0000
  H   H6        1.0  0.84824  0.24531  0.13314  1.0000
  H   H7        1.0  0.24531  0.84824  0.63314  1.0000
  H   H8        1.0  0.15176  0.75469  0.86686  1.0000
  H   H9        1.0  0.10352  0.15317  0.88617  1.0000
  H   H10       1.0  0.84683  0.89648  0.61383  1.0000
  H   H11       1.0  0.89648  0.84683  0.11383  1.0000
  H   H12       1.0  0.15317  0.10352  0.38617  1.0000
  H   H13       1.0  0.17706  0.12940  0.71644  1.0000
  H   H14       1.0  0.87060  0.82294  0.78356  1.0000
  H   H15       1.0  0.82294  0.87060  0.28356  1.0000
  H   H16       1.0  0.12940  0.17706  0.21644  1.0000
  H   H17       1.0  0.65214  0.43173  0.59366  1.0000
  H   H18       1.0  0.56827  0.34786  0.90634  1.0000
  H   H19       1.0  0.34786  0.56827  0.40634  1.0000
  H   H20       1.0  0.43173  0.65214  0.09366  1.0000
  H   H21       1.0  0.44419  0.62003  0.64939  1.0000
  H   H22       1.0  0.37997  0.55581  0.85061  1.0000
  H   H23       1.0  0.55581  0.37997  0.35061  1.0000
  H   H24       1.0  0.62003  0.44419  0.14939  1.0000
  H   H25       1.0  0.14551  0.55767  0.66631  1.0000
  H   H26       1.0  0.44233  0.85449  0.83369  1.0000
  H   H27       1.0  0.85449  0.44233  0.33369  1.0000
  H   H28       1.0  0.55767  0.14551  0.16631  1.0000
  C   C1        1.0  0.97357  0.29664  0.48023  1.0000
  C   C2        1.0  0.70336  0.02643  0.01977  1.0000
  C   C3        1.0  0.02643  0.70336  0.51978  1.0000
  C   C4        1.0  0.29664  0.97357  0.98023  1.0000
  C   C5        1.0  0.82158  0.19630  0.43785  1.0000
  C   C6        1.0  0.80370  0.17842  0.06215  1.0000
  C   C7        1.0  0.17842  0.80370  0.56215  1.0000
  C   C8        1.0  0.19630  0.82158  0.93785  1.0000
  C   C9        1.0  0.10598  0.23534  0.84315  1.0000
  C   C10       1.0  0.76466  0.89402  0.65685  1.0000
  C   C11       1.0  0.89402  0.76466  0.15685  1.0000
  C   C12       1.0  0.23534  0.10598  0.34315  1.0000
  C   C13       1.0  0.14091  0.22200  0.76015  1.0000
  C   C14       1.0  0.77800  0.85909  0.73985  1.0000
  C   C15       1.0  0.85909  0.77800  0.23985  1.0000
  C   C16       1.0  0.22200  0.14091  0.26015  1.0000
  C   C17       1.0  0.53081  0.39749  0.60100  1.0000
  C   C18       1.0  0.60251  0.46919  0.89900  1.0000
  C   C19       1.0  0.46919  0.60251  0.39900  1.0000
  C   C20       1.0  0.39749  0.53081  0.10100  1.0000
  C   C21       1.0  0.43057  0.49066  0.62908  1.0000
  C   C22       1.0  0.50934  0.56943  0.87092  1.0000
  C   C23       1.0  0.56943  0.50934  0.37092  1.0000
  C   C24       1.0  0.49066  0.43056  0.12907  1.0000
  N   N1        1.0  0.75575  0.15773  0.50434  1.0000
  N   N2        1.0  0.84227  0.24425  0.99566  1.0000
  N   N3        1.0  0.24425  0.84227  0.49566  1.0000
  N   N4        1.0  0.15773  0.75575  0.00434  1.0000
  N   N5        1.0  0.45001  0.23970  0.58243  1.0000
  N   N6        1.0  0.76030  0.54999  0.91757  1.0000
  N   N7        1.0  0.54999  0.76030  0.41757  1.0000
  N   N8        1.0  0.23970  0.45001  0.08243  1.0000
  N   N9        1.0  0.06793  0.37987  0.86649  1.0000
  N   N10       1.0  0.62014  0.93207  0.63351  1.0000
  N   N11       1.0  0.93207  0.62014  0.13351  1.0000
  N   N12       1.0  0.37987  0.06793  0.36649  1.0000
  N   N13       1.0  0.99208  0.31309  0.57069  1.0000
  N   N14       1.0  0.68691  0.00792  0.92931  1.0000
  N   N15       1.0  0.00792  0.68691  0.42931  1.0000
  N   N16       1.0  0.31309  0.99208  0.07069  1.0000
  N   N17       1.0  0.12213  0.36042  0.73742  1.0000
  N   N18       1.0  0.63958  0.87787  0.76258  1.0000
  N   N19       1.0  0.87787  0.63958  0.26257  1.0000
  N   N20       1.0  0.36042  0.12213  0.23742  1.0000
  N   N21       1.0  0.07748  0.45583  0.80269  1.0000
  N   N22       1.0  0.54417  0.92252  0.69731  1.0000
  N   N23       1.0  0.92252  0.54416  0.19731  1.0000
  N   N24       1.0  0.45584  0.07748  0.30269  1.0000
  N   N25       1.0  0.29333  0.38351  0.62610  1.0000
  N   N26       1.0  0.61649  0.70667  0.87390  1.0000
  N   N27       1.0  0.70667  0.61649  0.37390  1.0000
  N   N28       1.0  0.38351  0.29333  0.12610  1.0000
  N   N29       1.0  0.85872  0.22862  0.58483  1.0000
  N   N30       1.0  0.77138  0.14128  0.91517  1.0000
  N   N31       1.0  0.14128  0.77138  0.41517  1.0000
  N   N32       1.0  0.22862  0.85872  0.08483  1.0000
  N   N33       1.0  0.30630  0.23082  0.59745  1.0000
  N   N34       1.0  0.76918  0.69370  0.90255  1.0000
  N   N35       1.0  0.69371  0.76918  0.40255  1.0000
  N   N36       1.0  0.23082  0.30630  0.09745  1.0000
