data_image0
_chemical_formula_structural       Zn4H20C34N10O10
_chemical_formula_sum              "Zn4 H20 C34 N10 O10"
_cell_length_a       9.83421
_cell_length_b       9.84517
_cell_length_c       10.8513
_cell_angle_alpha    110.133
_cell_angle_beta     116.481
_cell_angle_gamma    92.9367

_space_group_name_H-M_alt    "P 1"
_space_group_IT_number       1

loop_
  _space_group_symop_operation_xyz
  'x, y, z'

loop_
  _atom_site_type_symbol
  _atom_site_label
  _atom_site_symmetry_multiplicity
  _atom_site_fract_x
  _atom_site_fract_y
  _atom_site_fract_z
  _atom_site_occupancy
  Zn  Zn1       1.0  0.54674  0.80106  0.57660  1.0000
  Zn  Zn2       1.0  0.45326  0.19893  0.42340  1.0000
  Zn  Zn3       1.0  0.45747  0.68742  0.21951  1.0000
  Zn  Zn4       1.0  0.54253  0.31258  0.78049  1.0000
  H   H1        1.0  0.18575  0.49241  0.88057  1.0000
  H   H2        1.0  0.81425  0.50759  0.11943  1.0000
  H   H3        1.0  0.96112  0.27612  0.76419  1.0000
  H   H4        1.0  0.03888  0.72388  0.23581  1.0000
  H   H5        1.0  0.11050  0.30072  0.21354  1.0000
  H   H6        1.0  0.88950  0.69928  0.78646  1.0000
  H   H7        1.0  0.33176  0.50985  0.31128  1.0000
  H   H8        1.0  0.66824  0.49014  0.68872  1.0000
  H   H9        1.0  0.50464  0.72506  0.78323  1.0000
  H   H10       1.0  0.49536  0.27494  0.21677  1.0000
  H   H11       1.0  0.39891  0.61452  0.90100  1.0000
  H   H12       1.0  0.60109  0.38549  0.09901  1.0000
  H   H13       1.0  0.68101  0.96121  0.32626  1.0000
  H   H14       1.0  0.31899  0.03880  0.67374  1.0000
  H   H15       1.0  0.80523  0.08415  0.22324  1.0000
  H   H16       1.0  0.19477  0.91585  0.77676  1.0000
  H   H17       1.0  0.97524  0.73319  0.46203  1.0000
  H   H18       1.0  0.02476  0.26681  0.53797  1.0000
  H   H19       1.0  0.37501  0.87550  0.37378  1.0000
  H   H20       1.0  0.62499  0.12450  0.62622  1.0000
  C   C1        1.0  0.71645  0.60709  0.44014  1.0000
  C   C2        1.0  0.28355  0.39291  0.55986  1.0000
  C   C3        1.0  0.85946  0.54581  0.47014  1.0000
  C   C4        1.0  0.14054  0.45419  0.52986  1.0000
  C   C5        1.0  0.98391  0.62962  0.47764  1.0000
  C   C6        1.0  0.01609  0.37038  0.52236  1.0000
  C   C7        1.0  0.87544  0.41376  0.49256  1.0000
  C   C8        1.0  0.12457  0.58624  0.50744  1.0000
  C   C9        1.0  0.74704  0.31253  0.48173  1.0000
  C   C10       1.0  0.25296  0.68747  0.51827  1.0000
  C   C11       1.0  0.16582  0.44635  0.95084  1.0000
  C   C12       1.0  0.83418  0.55365  0.04916  1.0000
  C   C13       1.0  0.03993  0.32589  0.88617  1.0000
  C   C14       1.0  0.96008  0.67411  0.11383  1.0000
  C   C15       1.0  0.01502  0.27196  0.98065  1.0000
  C   C16       1.0  0.98498  0.72804  0.01935  1.0000
  C   C17       1.0  0.12249  0.34042  0.13612  1.0000
  C   C18       1.0  0.87751  0.65958  0.86388  1.0000
  C   C19       1.0  0.24648  0.45748  0.19103  1.0000
  C   C20       1.0  0.75352  0.54252  0.80897  1.0000
  C   C21       1.0  0.88547  0.14924  0.92771  1.0000
  C   C22       1.0  0.11453  0.85076  0.07229  1.0000
  C   C23       1.0  0.73588  0.99218  0.93372  1.0000
  C   C24       1.0  0.26412  0.00782  0.06628  1.0000
  C   C25       1.0  0.66530  0.91677  0.99343  1.0000
  C   C26       1.0  0.33470  0.08323  0.00657  1.0000
  C   C27       1.0  0.54890  0.78283  0.90396  1.0000
  C   C28       1.0  0.45110  0.21717  0.09604  1.0000
  C   C29       1.0  0.48728  0.71996  0.97001  1.0000
  C   C30       1.0  0.51271  0.28004  0.02999  1.0000
  C   C31       1.0  0.64689  0.91165  0.20683  1.0000
  C   C32       1.0  0.35311  0.08835  0.79317  1.0000
  C   C33       1.0  0.71459  0.98058  0.14887  1.0000
  C   C34       1.0  0.28541  0.01942  0.85113  1.0000
  N   N1        1.0  0.26824  0.51261  0.10100  1.0000
  N   N2        1.0  0.73176  0.48739  0.89900  1.0000
  N   N3        1.0  0.78369  0.06016  0.78123  1.0000
  N   N4        1.0  0.21631  0.93984  0.21877  1.0000
  N   N5        1.0  0.68847  0.95885  0.78485  1.0000
  N   N6        1.0  0.31153  0.04115  0.21516  1.0000
  N   N7        1.0  0.85874  0.11118  0.02520  1.0000
  N   N8        1.0  0.14126  0.88882  0.97480  1.0000
  N   N9        1.0  0.53412  0.78242  0.11866  1.0000
  N   N10       1.0  0.46587  0.21758  0.88134  1.0000
  O   O1        1.0  0.70153  0.67970  0.55276  1.0000
  O   O2        1.0  0.29847  0.32030  0.44723  1.0000
  O   O3        1.0  0.63080  0.58993  0.30372  1.0000
  O   O4        1.0  0.36920  0.41006  0.69627  1.0000
  O   O5        1.0  0.77189  0.19993  0.50872  1.0000
  O   O6        1.0  0.22811  0.80007  0.49129  1.0000
  O   O7        1.0  0.61353  0.34969  0.44188  1.0000
  O   O8        1.0  0.38647  0.65031  0.55812  1.0000
  O   O9        1.0  0.47112  0.83955  0.39645  1.0000
  O   O10       1.0  0.52887  0.16044  0.60355  1.0000
