data_image0
_chemical_formula_structural       Ag8H16C36O24
_chemical_formula_sum              "Ag8 H16 C36 O24"
_cell_length_a       7.20965
_cell_length_b       9.40086
_cell_length_c       13.9525
_cell_angle_alpha    90
_cell_angle_beta     103.897
_cell_angle_gamma    90.0001

_space_group_name_H-M_alt    "P 1"
_space_group_IT_number       1

loop_
  _space_group_symop_operation_xyz
  'x, y, z'

loop_
  _atom_site_type_symbol
  _atom_site_label
  _atom_site_symmetry_multiplicity
  _atom_site_fract_x
  _atom_site_fract_y
  _atom_site_fract_z
  _atom_site_occupancy
  Ag  Ag1       1.0  0.84423  0.47293  0.59001  1.0000
  Ag  Ag2       1.0  0.65577  0.97293  0.40999  1.0000
  Ag  Ag3       1.0  0.15578  0.52707  0.40999  1.0000
  Ag  Ag4       1.0  0.34423  0.02707  0.59001  1.0000
  Ag  Ag5       1.0  0.02841  0.82885  0.48666  1.0000
  Ag  Ag6       1.0  0.47159  0.32886  0.51334  1.0000
  Ag  Ag7       1.0  0.97160  0.17115  0.51334  1.0000
  Ag  Ag8       1.0  0.52841  0.67114  0.48666  1.0000
  H   H1        1.0  0.77297  0.49514  0.79401  1.0000
  H   H2        1.0  0.72703  0.99515  0.20599  1.0000
  H   H3        1.0  0.22703  0.50485  0.20599  1.0000
  H   H4        1.0  0.27296  0.00486  0.79401  1.0000
  H   H5        1.0  0.76479  0.22760  0.89803  1.0000
  H   H6        1.0  0.73522  0.72760  0.10196  1.0000
  H   H7        1.0  0.23520  0.77240  0.10196  1.0000
  H   H8        1.0  0.26479  0.27240  0.89804  1.0000
  H   H9        1.0  0.74589  0.02331  0.01094  1.0000
  H   H10       1.0  0.75412  0.52331  0.98906  1.0000
  H   H11       1.0  0.25410  0.97670  0.98906  1.0000
  H   H12       1.0  0.24590  0.47669  0.01094  1.0000
  H   H13       1.0  0.75380  0.77501  0.94795  1.0000
  H   H14       1.0  0.74620  0.27501  0.05205  1.0000
  H   H15       1.0  0.24620  0.22499  0.05205  1.0000
  H   H16       1.0  0.25380  0.72499  0.94795  1.0000
  C   C1        1.0  0.77513  0.84051  0.80352  1.0000
  C   C2        1.0  0.72487  0.34052  0.19648  1.0000
  C   C3        1.0  0.22487  0.15948  0.19648  1.0000
  C   C4        1.0  0.27513  0.65948  0.80352  1.0000
  C   C5        1.0  0.78044  0.95569  0.73942  1.0000
  C   C6        1.0  0.71956  0.45569  0.26057  1.0000
  C   C7        1.0  0.21955  0.04430  0.26058  1.0000
  C   C8        1.0  0.28044  0.54431  0.73943  1.0000
  C   C9        1.0  0.77662  0.09553  0.77508  1.0000
  C   C10       1.0  0.72338  0.59554  0.22492  1.0000
  C   C11       1.0  0.22337  0.90447  0.22492  1.0000
  C   C12       1.0  0.27662  0.40447  0.77508  1.0000
  C   C13       1.0  0.76653  0.11791  0.87299  1.0000
  C   C14       1.0  0.73348  0.61791  0.12701  1.0000
  C   C15       1.0  0.23346  0.88209  0.12701  1.0000
  C   C16       1.0  0.26653  0.38209  0.87299  1.0000
  C   C17       1.0  0.75586  0.00419  0.93532  1.0000
  C   C18       1.0  0.74414  0.50419  0.06468  1.0000
  C   C19       1.0  0.24413  0.99582  0.06468  1.0000
  C   C20       1.0  0.25586  0.49581  0.93532  1.0000
  C   C21       1.0  0.76001  0.86572  0.90031  1.0000
  C   C22       1.0  0.73999  0.36572  0.09969  1.0000
  C   C23       1.0  0.23999  0.13428  0.09969  1.0000
  C   C24       1.0  0.26001  0.63429  0.90031  1.0000
  C   C25       1.0  0.79256  0.69396  0.76736  1.0000
  C   C26       1.0  0.70745  0.19396  0.23263  1.0000
  C   C27       1.0  0.20745  0.30604  0.23264  1.0000
  C   C28       1.0  0.29255  0.80604  0.76736  1.0000
  C   C29       1.0  0.79610  0.93038  0.63480  1.0000
  C   C30       1.0  0.70390  0.43039  0.36520  1.0000
  C   C31       1.0  0.20389  0.06961  0.36520  1.0000
  C   C32       1.0  0.29610  0.56962  0.63480  1.0000
  C   C33       1.0  0.78020  0.22198  0.70994  1.0000
  C   C34       1.0  0.71980  0.72198  0.29005  1.0000
  C   C35       1.0  0.21979  0.77802  0.29005  1.0000
  C   C36       1.0  0.28020  0.27802  0.70995  1.0000
  O   O1        1.0  0.75579  0.58994  0.82477  1.0000
  O   O2        1.0  0.74421  0.08994  0.17524  1.0000
  O   O3        1.0  0.24421  0.41006  0.17524  1.0000
  O   O4        1.0  0.25579  0.91006  0.82477  1.0000
  O   O5        1.0  0.84359  0.67348  0.68983  1.0000
  O   O6        1.0  0.65641  0.17348  0.31018  1.0000
  O   O7        1.0  0.15641  0.32652  0.31018  1.0000
  O   O8        1.0  0.34360  0.82653  0.68982  1.0000
  O   O9        1.0  0.64243  0.90606  0.56884  1.0000
  O   O10       1.0  0.85758  0.40606  0.43116  1.0000
  O   O11       1.0  0.35757  0.09393  0.43116  1.0000
  O   O12       1.0  0.14243  0.59394  0.56884  1.0000
  O   O13       1.0  0.96256  0.93980  0.62048  1.0000
  O   O14       1.0  0.53744  0.43980  0.37952  1.0000
  O   O15       1.0  0.03743  0.06020  0.37952  1.0000
  O   O16       1.0  0.46256  0.56020  0.62048  1.0000
  O   O17       1.0  0.74080  0.20018  0.61617  1.0000
  O   O18       1.0  0.75919  0.70019  0.38382  1.0000
  O   O19       1.0  0.25919  0.79981  0.38382  1.0000
  O   O20       1.0  0.24081  0.29982  0.61618  1.0000
  O   O21       1.0  0.82196  0.34315  0.74878  1.0000
  O   O22       1.0  0.67806  0.84316  0.25121  1.0000
  O   O23       1.0  0.17805  0.65685  0.25121  1.0000
  O   O24       1.0  0.32195  0.15685  0.74879  1.0000
