data_image0
_chemical_formula_structural       Zn2H52C52N8O8
_chemical_formula_sum              "Zn2 H52 C52 N8 O8"
_cell_length_a       9.14053
_cell_length_b       10.7441
_cell_length_c       12.3277
_cell_angle_alpha    84.8107
_cell_angle_beta     74.8868
_cell_angle_gamma    87.7359

_space_group_name_H-M_alt    "P 1"
_space_group_IT_number       1

loop_
  _space_group_symop_operation_xyz
  'x, y, z'

loop_
  _atom_site_type_symbol
  _atom_site_label
  _atom_site_symmetry_multiplicity
  _atom_site_fract_x
  _atom_site_fract_y
  _atom_site_fract_z
  _atom_site_occupancy
  Zn  Zn1       1.0  0.65935  0.43276  0.69342  1.0000
  Zn  Zn2       1.0  0.34065  0.56724  0.30658  1.0000
  H   H1        1.0  0.09772  0.32502  0.10931  1.0000
  H   H2        1.0  0.90227  0.67498  0.89069  1.0000
  H   H3        1.0  0.49960  0.92800  0.82035  1.0000
  H   H4        1.0  0.50040  0.07200  0.17965  1.0000
  H   H5        1.0  0.31546  0.08491  0.91830  1.0000
  H   H6        1.0  0.68454  0.91509  0.08170  1.0000
  H   H7        1.0  0.55698  0.79228  0.28178  1.0000
  H   H8        1.0  0.44301  0.20772  0.71822  1.0000
  H   H9        1.0  0.61170  0.89849  0.46547  1.0000
  H   H10       1.0  0.38829  0.10152  0.53453  1.0000
  H   H11       1.0  0.57695  0.79319  0.67355  1.0000
  H   H12       1.0  0.42306  0.20681  0.32645  1.0000
  H   H13       1.0  0.44031  0.67833  0.72217  1.0000
  H   H14       1.0  0.55970  0.32168  0.27783  1.0000
  H   H15       1.0  0.33791  0.42671  0.06828  1.0000
  H   H16       1.0  0.66208  0.57329  0.93172  1.0000
  H   H17       1.0  0.36637  0.57692  0.99210  1.0000
  H   H18       1.0  0.63362  0.42308  0.00790  1.0000
  H   H19       1.0  0.74370  0.93163  0.60907  1.0000
  H   H20       1.0  0.25631  0.06837  0.39093  1.0000
  H   H21       1.0  0.19384  0.61499  0.66374  1.0000
  H   H22       1.0  0.80617  0.38500  0.33627  1.0000
  H   H23       1.0  0.35249  0.51355  0.65624  1.0000
  H   H24       1.0  0.64752  0.48645  0.34376  1.0000
  H   H25       1.0  0.24100  0.50514  0.55810  1.0000
  H   H26       1.0  0.75901  0.49485  0.44191  1.0000
  H   H27       1.0  0.17401  0.83006  0.64577  1.0000
  H   H28       1.0  0.82599  0.16995  0.35422  1.0000
  H   H29       1.0  0.01923  0.68333  0.46902  1.0000
  H   H30       1.0  0.98078  0.31667  0.53099  1.0000
  H   H31       1.0  0.85034  0.73561  0.43905  1.0000
  H   H32       1.0  0.14966  0.26438  0.56095  1.0000
  H   H33       1.0  0.98049  0.49874  0.69346  1.0000
  H   H34       1.0  0.01951  0.50127  0.30654  1.0000
  H   H35       1.0  0.16936  0.34480  0.79553  1.0000
  H   H36       1.0  0.83064  0.65521  0.20447  1.0000
  H   H37       1.0  0.92530  0.07954  0.95812  1.0000
  H   H38       1.0  0.07470  0.92046  0.04188  1.0000
  H   H39       1.0  0.07522  0.17429  0.96616  1.0000
  H   H40       1.0  0.92478  0.82572  0.03384  1.0000
  H   H41       1.0  0.99168  0.97960  0.74495  1.0000
  H   H42       1.0  0.00832  0.02040  0.25504  1.0000
  H   H43       1.0  0.66922  0.14357  0.95413  1.0000
  H   H44       1.0  0.33078  0.85643  0.04587  1.0000
  H   H45       1.0  0.74805  0.05365  0.83791  1.0000
  H   H46       1.0  0.25196  0.94636  0.16209  1.0000
  H   H47       1.0  0.61250  0.17650  0.82826  1.0000
  H   H48       1.0  0.38750  0.82350  0.17175  1.0000
  H   H49       1.0  0.82515  0.33516  0.10930  1.0000
  H   H50       1.0  0.17484  0.66484  0.89070  1.0000
  H   H51       1.0  0.81306  0.15238  0.59858  1.0000
  H   H52       1.0  0.18694  0.84761  0.40142  1.0000
  C   C1        1.0  0.34969  0.86680  0.72733  1.0000
  C   C2        1.0  0.65031  0.13320  0.27267  1.0000
  C   C3        1.0  0.05504  0.40040  0.05970  1.0000
  C   C4        1.0  0.94495  0.59960  0.94029  1.0000
  C   C5        1.0  0.15477  0.49282  0.99838  1.0000
  C   C6        1.0  0.84522  0.50718  0.00162  1.0000
  C   C7        1.0  0.38737  0.93915  0.80469  1.0000
  C   C8        1.0  0.61263  0.06085  0.19531  1.0000
  C   C9        1.0  0.28370  0.02584  0.86081  1.0000
  C   C10       1.0  0.71629  0.97416  0.13919  1.0000
  C   C11       1.0  0.82846  0.66953  0.61079  1.0000
  C   C12       1.0  0.17154  0.33047  0.38922  1.0000
  C   C13       1.0  0.40975  0.42219  0.88861  1.0000
  C   C14       1.0  0.59025  0.57781  0.11139  1.0000
  C   C15       1.0  0.51235  0.76965  0.37153  1.0000
  C   C16       1.0  0.48764  0.23035  0.62847  1.0000
  C   C17       1.0  0.54101  0.82138  0.46121  1.0000
  C   C18       1.0  0.45898  0.17862  0.53879  1.0000
  C   C19       1.0  0.46174  0.76942  0.67277  1.0000
  C   C20       1.0  0.53826  0.23058  0.32723  1.0000
  C   C21       1.0  0.38483  0.66124  0.52470  1.0000
  C   C22       1.0  0.61517  0.33876  0.47530  1.0000
  C   C23       1.0  0.95977  0.87277  0.50485  1.0000
  C   C24       1.0  0.04023  0.12722  0.49515  1.0000
  C   C25       1.0  0.13971  0.04102  0.84114  1.0000
  C   C26       1.0  0.86029  0.95898  0.15886  1.0000
  C   C27       1.0  0.32082  0.48360  0.99381  1.0000
  C   C28       1.0  0.67917  0.51640  0.00618  1.0000
  C   C29       1.0  0.85639  0.96073  0.56034  1.0000
  C   C30       1.0  0.14360  0.03927  0.43966  1.0000
  C   C31       1.0  0.28717  0.56873  0.60499  1.0000
  C   C32       1.0  0.71283  0.43127  0.39501  1.0000
  C   C33       1.0  0.20632  0.88352  0.70660  1.0000
  C   C34       1.0  0.79368  0.11648  0.29340  1.0000
  C   C35       1.0  0.91686  0.74023  0.50122  1.0000
  C   C36       1.0  0.08314  0.25977  0.49878  1.0000
  C   C37       1.0  0.96148  0.40759  0.73881  1.0000
  C   C38       1.0  0.03852  0.59241  0.26120  1.0000
  C   C39       1.0  0.05532  0.33347  0.78787  1.0000
  C   C40       1.0  0.94468  0.66653  0.21213  1.0000
  C   C41       1.0  0.02582  0.12975  0.90746  1.0000
  C   C42       1.0  0.97419  0.87025  0.09253  1.0000
  C   C43       1.0  0.10234  0.96938  0.76305  1.0000
  C   C44       1.0  0.89766  0.03063  0.23695  1.0000
  C   C45       1.0  0.70970  0.14802  0.86164  1.0000
  C   C46       1.0  0.29031  0.85199  0.13836  1.0000
  C   C47       1.0  0.83196  0.24069  0.81900  1.0000
  C   C48       1.0  0.16805  0.75931  0.18100  1.0000
  C   C49       1.0  0.90197  0.40774  0.06117  1.0000
  C   C50       1.0  0.09802  0.59226  0.93882  1.0000
  C   C51       1.0  0.89591  0.08555  0.55510  1.0000
  C   C52       1.0  0.10409  0.91444  0.44490  1.0000
  N   N1        1.0  0.41470  0.67064  0.41154  1.0000
  N   N2        1.0  0.58530  0.32936  0.58846  1.0000
  N   N3        1.0  0.46097  0.75187  0.55687  1.0000
  N   N4        1.0  0.53904  0.24813  0.44313  1.0000
  N   N5        1.0  0.82369  0.34919  0.75760  1.0000
  N   N6        1.0  0.17631  0.65081  0.24240  1.0000
  N   N7        1.0  0.97227  0.22933  0.83822  1.0000
  N   N8        1.0  0.02774  0.77067  0.16178  1.0000
  O   O1        1.0  0.49176  0.49848  0.80998  1.0000
  O   O2        1.0  0.50825  0.50152  0.19002  1.0000
  O   O3        1.0  0.76581  0.57011  0.59052  1.0000
  O   O4        1.0  0.23418  0.42989  0.40948  1.0000
  O   O5        1.0  0.39944  0.30761  0.88207  1.0000
  O   O6        1.0  0.60056  0.69239  0.11793  1.0000
  O   O7        1.0  0.82296  0.70398  0.70536  1.0000
  O   O8        1.0  0.17705  0.29602  0.29464  1.0000
