data_image0
_chemical_formula_structural       MnH24C54Br4N10
_chemical_formula_sum              "Mn1 H24 C54 Br4 N10"
_cell_length_a       10.6633
_cell_length_b       10.6972
_cell_length_c       14.6764
_cell_angle_alpha    79.4864
_cell_angle_beta     77.8991
_cell_angle_gamma    61.8174

_space_group_name_H-M_alt    "P 1"
_space_group_IT_number       1

loop_
  _space_group_symop_operation_xyz
  'x, y, z'

loop_
  _atom_site_type_symbol
  _atom_site_label
  _atom_site_symmetry_multiplicity
  _atom_site_fract_x
  _atom_site_fract_y
  _atom_site_fract_z
  _atom_site_occupancy
  Mn  Mn1       1.0  0.00000  1.00000  1.00000  1.0000
  H   H1        1.0  0.08082  0.61248  0.28828  1.0000
  H   H2        1.0  0.91919  0.38752  0.71172  1.0000
  H   H3        1.0  0.92674  0.86499  0.36310  1.0000
  H   H4        1.0  0.07326  0.13501  0.63691  1.0000
  H   H5        1.0  0.71845  0.40635  0.22543  1.0000
  H   H6        1.0  0.28155  0.59365  0.77457  1.0000
  H   H7        1.0  0.71957  0.54152  0.05056  1.0000
  H   H8        1.0  0.28043  0.45848  0.94944  1.0000
  H   H9        1.0  0.39368  0.45910  0.15489  1.0000
  H   H10       1.0  0.60632  0.54090  0.84512  1.0000
  H   H11       1.0  0.46484  0.20710  0.22321  1.0000
  H   H12       1.0  0.53515  0.79290  0.77680  1.0000
  H   H13       1.0  0.06168  0.24459  0.17670  1.0000
  H   H14       1.0  0.93831  0.75541  0.82330  1.0000
  H   H15       1.0  0.99252  0.49414  0.10803  1.0000
  H   H16       1.0  0.00749  0.50586  0.89196  1.0000
  H   H17       1.0  0.02510  0.07336  0.35583  1.0000
  H   H18       1.0  0.97490  0.92663  0.64417  1.0000
  H   H19       1.0  0.93862  0.15944  0.51370  1.0000
  H   H20       1.0  0.06138  0.84055  0.48630  1.0000
  H   H21       1.0  0.49984  0.32437  0.46607  1.0000
  H   H22       1.0  0.50016  0.67563  0.53393  1.0000
  H   H23       1.0  0.58689  0.23825  0.30837  1.0000
  H   H24       1.0  0.41311  0.76175  0.69163  1.0000
  C   C1        1.0  0.67107  0.01510  0.98639  1.0000
  C   C2        1.0  0.32893  0.98491  0.01361  1.0000
  C   C3        1.0  0.52923  0.04672  0.97668  1.0000
  C   C4        1.0  0.47077  0.95329  0.02331  1.0000
  C   C5        1.0  0.46177  0.17159  0.91594  1.0000
  C   C6        1.0  0.53822  0.82843  0.08406  1.0000
  C   C7        1.0  0.32783  0.21901  0.88595  1.0000
  C   C8        1.0  0.67218  0.78101  0.11405  1.0000
  C   C9        1.0  0.53210  0.25625  0.87555  1.0000
  C   C10       1.0  0.46791  0.74377  0.12445  1.0000
  C   C11       1.0  0.06746  0.75027  0.15286  1.0000
  C   C12       1.0  0.93254  0.24972  0.84714  1.0000
  C   C13       1.0  0.04384  0.71907  0.25245  1.0000
  C   C14       1.0  0.95616  0.28092  0.74755  1.0000
  C   C15       1.0  0.96676  0.84639  0.29010  1.0000
  C   C16       1.0  0.03324  0.15361  0.70991  1.0000
  C   C17       1.0  0.94308  0.95692  0.21384  1.0000
  C   C18       1.0  0.05692  0.04308  0.78616  1.0000
  C   C19       1.0  0.86510  0.10266  0.22465  1.0000
  C   C20       1.0  0.13490  0.89734  0.77535  1.0000
  C   C21       1.0  0.83769  0.20901  0.14945  1.0000
  C   C22       1.0  0.16231  0.79099  0.85055  1.0000
  C   C23       1.0  0.76369  0.35936  0.15947  1.0000
  C   C24       1.0  0.23631  0.64064  0.84053  1.0000
  C   C25       1.0  0.76415  0.42820  0.07138  1.0000
  C   C26       1.0  0.23585  0.57180  0.92862  1.0000
  C   C27       1.0  0.16172  0.67829  0.99319  1.0000
  C   C28       1.0  0.83828  0.32171  0.00681  1.0000
  C   C29       1.0  0.13923  0.64656  0.08991  1.0000
  C   C30       1.0  0.86078  0.35343  0.91009  1.0000
  C   C31       1.0  0.18794  0.49362  0.12748  1.0000
  C   C32       1.0  0.81206  0.50638  0.87252  1.0000
  C   C33       1.0  0.32174  0.41157  0.15907  1.0000
  C   C34       1.0  0.67826  0.58843  0.84093  1.0000
  C   C35       1.0  0.36133  0.27104  0.19807  1.0000
  C   C36       1.0  0.63867  0.72896  0.80194  1.0000
  C   C37       1.0  0.26589  0.21341  0.20595  1.0000
  C   C38       1.0  0.73411  0.78659  0.79405  1.0000
  C   C39       1.0  0.13463  0.29111  0.17174  1.0000
  C   C40       1.0  0.86537  0.70889  0.82826  1.0000
  C   C41       1.0  0.09653  0.43116  0.13260  1.0000
  C   C42       1.0  0.90348  0.56883  0.86739  1.0000
  C   C43       1.0  0.81210  0.14900  0.32095  1.0000
  C   C44       1.0  0.18789  0.85099  0.67905  1.0000
  C   C45       1.0  0.90990  0.12700  0.38009  1.0000
  C   C46       1.0  0.09010  0.87300  0.61990  1.0000
  C   C47       1.0  0.86178  0.17599  0.46875  1.0000
  C   C48       1.0  0.13823  0.82401  0.53125  1.0000
  C   C49       1.0  0.71437  0.24687  0.49895  1.0000
  C   C50       1.0  0.28563  0.75313  0.50106  1.0000
  C   C51       1.0  0.61473  0.26894  0.44199  1.0000
  C   C52       1.0  0.38527  0.73106  0.55801  1.0000
  C   C53       1.0  0.66451  0.22011  0.35328  1.0000
  C   C54       1.0  0.33549  0.77989  0.64672  1.0000
  Br  Br1       1.0  0.31259  0.02680  0.26823  1.0000
  Br  Br2       1.0  0.68741  0.97321  0.73177  1.0000
  Br  Br3       1.0  0.64951  0.31338  0.62019  1.0000
  Br  Br4       1.0  0.35049  0.68662  0.37982  1.0000
  N   N1        1.0  0.78783  0.99477  0.98877  1.0000
  N   N2        1.0  0.21217  0.00522  0.01123  1.0000
  N   N3        1.0  0.21881  0.26671  0.85620  1.0000
  N   N4        1.0  0.78118  0.73330  0.14380  1.0000
  N   N5        1.0  0.58478  0.33084  0.84006  1.0000
  N   N6        1.0  0.41522  0.66917  0.15994  1.0000
  N   N7        1.0  0.00561  0.89643  0.12992  1.0000
  N   N8        1.0  0.99439  0.10357  0.87008  1.0000
  N   N9        1.0  0.88250  0.18745  0.05541  1.0000
  N   N10       1.0  0.11750  0.81254  0.94459  1.0000
