data_image0
_chemical_formula_structural       CdH28C32S2N2O8
_chemical_formula_sum              "Cd1 H28 C32 S2 N2 O8"
_cell_length_a       7.01729
_cell_length_b       7.73364
_cell_length_c       13.9027
_cell_angle_alpha    82.852
_cell_angle_beta     75.9279
_cell_angle_gamma    77.1522

_space_group_name_H-M_alt    "P 1"
_space_group_IT_number       1

loop_
  _space_group_symop_operation_xyz
  'x, y, z'

loop_
  _atom_site_type_symbol
  _atom_site_label
  _atom_site_symmetry_multiplicity
  _atom_site_fract_x
  _atom_site_fract_y
  _atom_site_fract_z
  _atom_site_occupancy
  Cd  Cd1       1.0  0.50000  0.50000  0.50000  1.0000
  H   H1        1.0  0.11817  0.48784  0.64264  1.0000
  H   H2        1.0  0.88183  0.51216  0.35737  1.0000
  H   H3        1.0  0.11801  0.65018  0.56047  1.0000
  H   H4        1.0  0.88200  0.34982  0.43953  1.0000
  H   H5        1.0  0.69104  0.83852  0.35645  1.0000
  H   H6        1.0  0.30896  0.16147  0.64355  1.0000
  H   H7        1.0  0.68077  0.16456  0.36037  1.0000
  H   H8        1.0  0.31924  0.83543  0.63963  1.0000
  H   H9        1.0  0.93045  0.94135  0.61099  1.0000
  H   H10       1.0  0.06956  0.05865  0.38901  1.0000
  H   H11       1.0  0.99547  0.94414  0.83698  1.0000
  H   H12       1.0  0.00452  0.05586  0.16302  1.0000
  H   H13       1.0  0.15766  0.64270  0.79315  1.0000
  H   H14       1.0  0.84234  0.35730  0.20685  1.0000
  H   H15       1.0  0.46407  0.44909  0.76120  1.0000
  H   H16       1.0  0.53594  0.55092  0.23880  1.0000
  H   H17       1.0  0.52696  0.72865  0.85961  1.0000
  H   H18       1.0  0.47303  0.27136  0.14039  1.0000
  H   H19       1.0  0.34248  0.27423  0.97221  1.0000
  H   H20       1.0  0.65752  0.72577  0.02779  1.0000
  H   H21       1.0  0.80462  0.67960  0.70873  1.0000
  H   H22       1.0  0.19537  0.32040  0.29127  1.0000
  H   H23       1.0  0.25138  0.50686  0.09061  1.0000
  H   H24       1.0  0.74862  0.49315  0.90939  1.0000
  H   H25       1.0  0.36793  0.03128  0.90655  1.0000
  H   H26       1.0  0.63207  0.96873  0.09345  1.0000
  H   H27       1.0  0.09364  0.80705  0.13463  1.0000
  H   H28       1.0  0.90635  0.19295  0.86537  1.0000
  C   C1        1.0  0.60441  0.91009  0.42084  1.0000
  C   C2        1.0  0.39559  0.08990  0.57916  1.0000
  C   C3        1.0  0.04233  0.90702  0.98772  1.0000
  C   C4        1.0  0.95767  0.09298  0.01227  1.0000
  C   C5        1.0  0.72371  0.13128  0.70632  1.0000
  C   C6        1.0  0.27630  0.86873  0.29368  1.0000
  C   C7        1.0  0.22949  0.55350  0.93663  1.0000
  C   C8        1.0  0.77051  0.44650  0.06337  1.0000
  C   C9        1.0  0.56024  0.16344  0.78981  1.0000
  C   C10       1.0  0.43976  0.83657  0.21020  1.0000
  C   C11       1.0  0.59937  0.09101  0.42293  1.0000
  C   C12       1.0  0.40063  0.90898  0.57708  1.0000
  C   C13       1.0  0.81044  0.95903  0.67750  1.0000
  C   C14       1.0  0.18955  0.04098  0.32250  1.0000
  C   C15       1.0  0.05706  0.85172  0.89266  1.0000
  C   C16       1.0  0.94294  0.14827  0.10733  1.0000
  C   C17       1.0  0.14927  0.68033  0.86737  1.0000
  C   C18       1.0  0.85072  0.31967  0.13263  1.0000
  C   C19       1.0  0.45207  0.34010  0.81855  1.0000
  C   C20       1.0  0.54793  0.65991  0.18145  1.0000
  C   C21       1.0  0.58498  0.84070  0.81646  1.0000
  C   C22       1.0  0.41501  0.15930  0.18355  1.0000
  C   C23       1.0  0.34192  0.37730  0.91073  1.0000
  C   C24       1.0  0.65809  0.62270  0.08927  1.0000
  C   C25       1.0  0.74059  0.81320  0.73203  1.0000
  C   C26       1.0  0.25940  0.18680  0.26797  1.0000
  C   C27       1.0  0.19988  0.60385  0.03381  1.0000
  C   C28       1.0  0.80011  0.39615  0.96619  1.0000
  C   C29       1.0  0.49635  0.01195  0.84380  1.0000
  C   C30       1.0  0.50365  0.98806  0.15619  1.0000
  C   C31       1.0  0.11060  0.77630  0.05845  1.0000
  C   C32       1.0  0.88939  0.22370  0.94156  1.0000
  S   S1        1.0  0.84070  0.30403  0.63688  1.0000
  S   S2        1.0  0.15930  0.69597  0.36313  1.0000
  N   N1        1.0  0.50442  0.81889  0.49782  1.0000
  N   N2        1.0  0.49558  0.18110  0.50218  1.0000
  O   O1        1.0  0.19521  0.58109  0.60906  1.0000
  O   O2        1.0  0.80479  0.41890  0.39094  1.0000
  O   O3        1.0  0.68061  0.46019  0.62196  1.0000
  O   O4        1.0  0.31939  0.53981  0.37804  1.0000
  O   O5        1.0  0.95920  0.23445  0.54193  1.0000
  O   O6        1.0  0.04081  0.76555  0.45808  1.0000
  O   O7        1.0  0.96530  0.34610  0.69883  1.0000
  O   O8        1.0  0.03470  0.65390  0.30117  1.0000
