data_image0
_chemical_formula_structural       Cd2H40C32S4N12
_chemical_formula_sum              "Cd2 H40 C32 S4 N12"
_cell_length_a       5.90365
_cell_length_b       11.0855
_cell_length_c       14.3149
_cell_angle_alpha    90
_cell_angle_beta     98.9256
_cell_angle_gamma    89.9992

_space_group_name_H-M_alt    "P 1"
_space_group_IT_number       1

loop_
  _space_group_symop_operation_xyz
  'x, y, z'

loop_
  _atom_site_type_symbol
  _atom_site_label
  _atom_site_symmetry_multiplicity
  _atom_site_fract_x
  _atom_site_fract_y
  _atom_site_fract_z
  _atom_site_occupancy
  Cd  Cd1       1.0  0.00001  0.99999  0.99999  1.0000
  Cd  Cd2       1.0  0.00002  0.50000  0.50000  1.0000
  H   H1        1.0  0.35056  0.22727  0.00743  1.0000
  H   H2        1.0  0.35058  0.27272  0.50742  1.0000
  H   H3        1.0  0.64944  0.77272  0.99256  1.0000
  H   H4        1.0  0.64946  0.72727  0.49257  1.0000
  H   H5        1.0  0.37162  0.43548  0.95449  1.0000
  H   H6        1.0  0.37162  0.06451  0.45448  1.0000
  H   H7        1.0  0.62839  0.56450  0.04551  1.0000
  H   H8        1.0  0.62836  0.93548  0.54551  1.0000
  H   H9        1.0  0.66589  0.39524  0.81338  1.0000
  H   H10       1.0  0.66589  0.10478  0.31338  1.0000
  H   H11       1.0  0.33411  0.60477  0.18663  1.0000
  H   H12       1.0  0.33410  0.89524  0.68662  1.0000
  H   H13       1.0  0.67686  0.19134  0.87667  1.0000
  H   H14       1.0  0.67688  0.30867  0.37668  1.0000
  H   H15       1.0  0.32312  0.80867  0.12332  1.0000
  H   H16       1.0  0.32314  0.69135  0.62333  1.0000
  H   H17       1.0  0.38947  0.57480  0.86376  1.0000
  H   H18       1.0  0.38946  0.92519  0.36375  1.0000
  H   H19       1.0  0.61055  0.42519  0.13623  1.0000
  H   H20       1.0  0.61050  0.07479  0.63622  1.0000
  H   H21       1.0  0.22804  0.69969  0.81333  1.0000
  H   H22       1.0  0.22801  0.80031  0.31332  1.0000
  H   H23       1.0  0.77197  0.30032  0.18668  1.0000
  H   H24       1.0  0.77188  0.19966  0.68669  1.0000
  H   H25       1.0  0.24323  0.67047  0.93621  1.0000
  H   H26       1.0  0.24320  0.82952  0.43620  1.0000
  H   H27       1.0  0.75682  0.32951  0.06381  1.0000
  H   H28       1.0  0.75677  0.17050  0.56382  1.0000
  H   H29       1.0  0.67858  0.56230  0.78359  1.0000
  H   H30       1.0  0.67858  0.93772  0.28358  1.0000
  H   H31       1.0  0.32143  0.43771  0.21641  1.0000
  H   H32       1.0  0.32139  0.06230  0.71641  1.0000
  H   H33       1.0  0.80983  0.70319  0.81733  1.0000
  H   H34       1.0  0.80980  0.79683  0.31732  1.0000
  H   H35       1.0  0.19019  0.29681  0.18269  1.0000
  H   H36       1.0  0.19014  0.20319  0.68266  1.0000
  H   H37       1.0  0.87033  0.62703  0.71406  1.0000
  H   H38       1.0  0.87031  0.87298  0.21405  1.0000
  H   H39       1.0  0.12969  0.37298  0.28595  1.0000
  H   H40       1.0  0.12964  0.12704  0.78594  1.0000
  C   C1        1.0  0.20171  0.26831  0.96453  1.0000
  C   C2        1.0  0.20173  0.23168  0.46453  1.0000
  C   C3        1.0  0.79829  0.73169  0.03546  1.0000
  C   C4        1.0  0.79830  0.76830  0.53548  1.0000
  C   C5        1.0  0.21298  0.38593  0.93395  1.0000
  C   C6        1.0  0.21300  0.11406  0.43394  1.0000
  C   C7        1.0  0.78701  0.61407  0.06604  1.0000
  C   C8        1.0  0.78700  0.88592  0.56605  1.0000
  C   C9        1.0  0.02095  0.43985  0.87649  1.0000
  C   C10       1.0  0.02095  0.06016  0.37649  1.0000
  C   C11       1.0  0.97905  0.56015  0.12350  1.0000
  C   C12       1.0  0.97904  0.93985  0.62350  1.0000
  C   C13       1.0  0.82328  0.36480  0.85684  1.0000
  C   C14       1.0  0.82329  0.13521  0.35684  1.0000
  C   C15       1.0  0.17671  0.63520  0.14316  1.0000
  C   C16       1.0  0.17670  0.86481  0.64316  1.0000
  C   C17       1.0  0.82846  0.24866  0.89194  1.0000
  C   C18       1.0  0.82848  0.25135  0.39195  1.0000
  C   C19       1.0  0.17153  0.75133  0.10806  1.0000
  C   C20       1.0  0.17155  0.74867  0.60806  1.0000
  C   C21       1.0  0.23393  0.62790  0.86622  1.0000
  C   C22       1.0  0.23391  0.87210  0.36621  1.0000
  C   C23       1.0  0.76609  0.37210  0.13379  1.0000
  C   C24       1.0  0.76605  0.12789  0.63379  1.0000
  C   C25       1.0  0.83650  0.61431  0.78676  1.0000
  C   C26       1.0  0.83649  0.88571  0.28675  1.0000
  C   C27       1.0  0.16352  0.38570  0.21325  1.0000
  C   C28       1.0  0.16347  0.11431  0.71324  1.0000
  C   C29       1.0  0.53661  0.05908  0.11521  1.0000
  C   C30       1.0  0.53662  0.44092  0.61521  1.0000
  C   C31       1.0  0.46338  0.94092  0.88480  1.0000
  C   C32       1.0  0.46342  0.55907  0.38479  1.0000
  S   S1        1.0  0.30419  0.05991  0.16403  1.0000
  S   S2        1.0  0.30422  0.44008  0.66404  1.0000
  S   S3        1.0  0.69579  0.94008  0.83596  1.0000
  S   S4        1.0  0.69582  0.55991  0.33596  1.0000
  N   N1        1.0  0.01370  0.19790  0.94477  1.0000
  N   N2        1.0  0.01372  0.30210  0.44478  1.0000
  N   N3        1.0  0.98631  0.80210  0.05522  1.0000
  N   N4        1.0  0.98633  0.69790  0.55523  1.0000
  N   N5        1.0  0.02933  0.55388  0.84343  1.0000
  N   N6        1.0  0.02932  0.94613  0.34343  1.0000
  N   N7        1.0  0.97069  0.44612  0.15657  1.0000
  N   N8        1.0  0.97064  0.05387  0.65657  1.0000
  N   N9        1.0  0.70651  0.06032  0.08102  1.0000
  N   N10       1.0  0.70651  0.43968  0.58103  1.0000
  N   N11       1.0  0.29349  0.93967  0.91898  1.0000
  N   N12       1.0  0.29350  0.56032  0.41898  1.0000
