data_image0
_chemical_formula_structural       Cd2H40C32Se4N12
_chemical_formula_sum              "Cd2 H40 C32 Se4 N12"
_cell_length_a       6.05475
_cell_length_b       11.1301
_cell_length_c       14.4029
_cell_angle_alpha    90.001
_cell_angle_beta     99.9017
_cell_angle_gamma    89.9995

_space_group_name_H-M_alt    "P 1"
_space_group_IT_number       1

loop_
  _space_group_symop_operation_xyz
  'x, y, z'

loop_
  _atom_site_type_symbol
  _atom_site_label
  _atom_site_symmetry_multiplicity
  _atom_site_fract_x
  _atom_site_fract_y
  _atom_site_fract_z
  _atom_site_occupancy
  Cd  Cd1       1.0  0.99995  0.00000  0.00001  1.0000
  Cd  Cd2       1.0  0.00005  0.50000  0.50000  1.0000
  H   H1        1.0  0.64500  0.77864  0.99679  1.0000
  H   H2        1.0  0.64501  0.72134  0.49679  1.0000
  H   H3        1.0  0.35499  0.22135  0.00321  1.0000
  H   H4        1.0  0.35499  0.27865  0.50322  1.0000
  H   H5        1.0  0.61874  0.57129  0.04904  1.0000
  H   H6        1.0  0.61874  0.92871  0.54904  1.0000
  H   H7        1.0  0.38127  0.42871  0.95096  1.0000
  H   H8        1.0  0.38126  0.07129  0.45097  1.0000
  H   H9        1.0  0.32243  0.59960  0.17970  1.0000
  H   H10       1.0  0.32244  0.90041  0.67971  1.0000
  H   H11       1.0  0.67758  0.40040  0.82029  1.0000
  H   H12       1.0  0.67758  0.09961  0.32028  1.0000
  H   H13       1.0  0.31484  0.80344  0.11880  1.0000
  H   H14       1.0  0.31486  0.69656  0.61881  1.0000
  H   H15       1.0  0.68513  0.19656  0.88119  1.0000
  H   H16       1.0  0.68516  0.30345  0.38119  1.0000
  H   H17       1.0  0.60524  0.42715  0.13511  1.0000
  H   H18       1.0  0.60522  0.07285  0.63511  1.0000
  H   H19       1.0  0.39478  0.57284  0.86490  1.0000
  H   H20       1.0  0.39476  0.92715  0.36490  1.0000
  H   H21       1.0  0.74436  0.33482  0.06046  1.0000
  H   H22       1.0  0.74433  0.16517  0.56046  1.0000
  H   H23       1.0  0.25567  0.66519  0.93954  1.0000
  H   H24       1.0  0.25564  0.83481  0.43954  1.0000
  H   H25       1.0  0.76436  0.30147  0.18242  1.0000
  H   H26       1.0  0.76434  0.19854  0.68241  1.0000
  H   H27       1.0  0.23567  0.69852  0.81758  1.0000
  H   H28       1.0  0.23564  0.80147  0.31758  1.0000
  H   H29       1.0  0.29979  0.43966  0.21949  1.0000
  H   H30       1.0  0.29977  0.06033  0.71949  1.0000
  H   H31       1.0  0.70023  0.56034  0.78053  1.0000
  H   H32       1.0  0.70021  0.93966  0.28053  1.0000
  H   H33       1.0  0.11358  0.35311  0.27447  1.0000
  H   H34       1.0  0.11358  0.14690  0.77447  1.0000
  H   H35       1.0  0.88642  0.64689  0.72553  1.0000
  H   H36       1.0  0.88641  0.85311  0.22553  1.0000
  H   H37       1.0  0.18676  0.30372  0.16605  1.0000
  H   H38       1.0  0.18677  0.19627  0.66605  1.0000
  H   H39       1.0  0.81325  0.69628  0.83395  1.0000
  H   H40       1.0  0.81324  0.80372  0.33394  1.0000
  C   C1        1.0  0.79193  0.73513  0.03746  1.0000
  C   C2        1.0  0.79197  0.76486  0.53746  1.0000
  C   C3        1.0  0.20804  0.26487  0.96254  1.0000
  C   C4        1.0  0.20805  0.23514  0.46255  1.0000
  C   C5        1.0  0.77802  0.61789  0.06738  1.0000
  C   C6        1.0  0.77803  0.88212  0.56738  1.0000
  C   C7        1.0  0.22198  0.38211  0.93262  1.0000
  C   C8        1.0  0.22196  0.11788  0.43263  1.0000
  C   C9        1.0  0.96811  0.56105  0.12180  1.0000
  C   C10       1.0  0.96810  0.93895  0.62181  1.0000
  C   C11       1.0  0.03190  0.43896  0.87819  1.0000
  C   C12       1.0  0.03190  0.06105  0.37820  1.0000
  C   C13       1.0  0.16600  0.63254  0.13896  1.0000
  C   C14       1.0  0.16600  0.86746  0.63897  1.0000
  C   C15       1.0  0.83401  0.36744  0.86103  1.0000
  C   C16       1.0  0.83401  0.13255  0.36102  1.0000
  C   C17       1.0  0.16322  0.74860  0.10488  1.0000
  C   C18       1.0  0.16321  0.75139  0.60489  1.0000
  C   C19       1.0  0.83679  0.25141  0.89511  1.0000
  C   C20       1.0  0.83677  0.24862  0.39511  1.0000
  C   C21       1.0  0.75647  0.37468  0.13114  1.0000
  C   C22       1.0  0.75646  0.12532  0.63114  1.0000
  C   C23       1.0  0.24355  0.62532  0.86886  1.0000
  C   C24       1.0  0.24353  0.87468  0.36886  1.0000
  C   C25       1.0  0.15014  0.38335  0.20608  1.0000
  C   C26       1.0  0.15014  0.11665  0.70608  1.0000
  C   C27       1.0  0.84986  0.61666  0.79392  1.0000
  C   C28       1.0  0.84985  0.88335  0.29392  1.0000
  C   C29       1.0  0.44864  0.94100  0.88474  1.0000
  C   C30       1.0  0.44872  0.55901  0.38473  1.0000
  C   C31       1.0  0.55128  0.05902  0.11525  1.0000
  C   C32       1.0  0.55135  0.44099  0.61526  1.0000
  Se  Se1       1.0  0.69292  0.94105  0.82922  1.0000
  Se  Se2       1.0  0.69302  0.55896  0.32922  1.0000
  Se  Se3       1.0  0.30702  0.05895  0.17077  1.0000
  Se  Se4       1.0  0.30707  0.44106  0.67077  1.0000
  N   N1        1.0  0.98035  0.80224  0.05493  1.0000
  N   N2        1.0  0.98037  0.69776  0.55494  1.0000
  N   N3        1.0  0.01962  0.19776  0.94506  1.0000
  N   N4        1.0  0.01964  0.30224  0.44506  1.0000
  N   N5        1.0  0.95762  0.44769  0.15519  1.0000
  N   N6        1.0  0.95761  0.05230  0.65519  1.0000
  N   N7        1.0  0.04240  0.55231  0.84481  1.0000
  N   N8        1.0  0.04238  0.94769  0.34481  1.0000
  N   N9        1.0  0.28628  0.93900  0.91969  1.0000
  N   N10       1.0  0.28639  0.56099  0.41972  1.0000
  N   N11       1.0  0.71361  0.06101  0.08028  1.0000
  N   N12       1.0  0.71371  0.43901  0.58030  1.0000
