data_image0
_chemical_formula_structural       K8H32C36S4O44
_chemical_formula_sum              "K8 H32 C36 S4 O44"
_cell_length_a       7.19304
_cell_length_b       11.395
_cell_length_c       16.9227
_cell_angle_alpha    95.8786
_cell_angle_beta     89.9999
_cell_angle_gamma    90

_space_group_name_H-M_alt    "P 1"
_space_group_IT_number       1

loop_
  _space_group_symop_operation_xyz
  'x, y, z'

loop_
  _atom_site_type_symbol
  _atom_site_label
  _atom_site_symmetry_multiplicity
  _atom_site_fract_x
  _atom_site_fract_y
  _atom_site_fract_z
  _atom_site_occupancy
  K   K1        1.0  0.65639  0.37348  0.83766  1.0000
  K   K2        1.0  0.15638  0.12652  0.66234  1.0000
  K   K3        1.0  0.34361  0.62652  0.16234  1.0000
  K   K4        1.0  0.84361  0.87348  0.33766  1.0000
  K   K5        1.0  0.15685  0.57279  0.90592  1.0000
  K   K6        1.0  0.65685  0.92720  0.59408  1.0000
  K   K7        1.0  0.84315  0.42720  0.09408  1.0000
  K   K8        1.0  0.34316  0.07279  0.40593  1.0000
  H   H1        1.0  0.86009  0.19425  0.97199  1.0000
  H   H2        1.0  0.36008  0.30575  0.52801  1.0000
  H   H3        1.0  0.13991  0.80575  0.02801  1.0000
  H   H4        1.0  0.63991  0.69425  0.47198  1.0000
  H   H5        1.0  0.77157  0.64335  0.67282  1.0000
  H   H6        1.0  0.27156  0.85665  0.82718  1.0000
  H   H7        1.0  0.22844  0.35665  0.32718  1.0000
  H   H8        1.0  0.72843  0.14335  0.17282  1.0000
  H   H9        1.0  0.51007  0.14949  0.75480  1.0000
  H   H10       1.0  0.01007  0.35052  0.74520  1.0000
  H   H11       1.0  0.48993  0.85051  0.24520  1.0000
  H   H12       1.0  0.98993  0.64948  0.25480  1.0000
  H   H13       1.0  0.39640  0.09018  0.82146  1.0000
  H   H14       1.0  0.89640  0.40982  0.67854  1.0000
  H   H15       1.0  0.60360  0.90982  0.17854  1.0000
  H   H16       1.0  0.10360  0.59018  0.32146  1.0000
  H   H17       1.0  0.25456  0.29182  0.81476  1.0000
  H   H18       1.0  0.75455  0.20818  0.68524  1.0000
  H   H19       1.0  0.74545  0.70818  0.18524  1.0000
  H   H20       1.0  0.24544  0.79182  0.31476  1.0000
  H   H21       1.0  0.06925  0.29849  0.86148  1.0000
  H   H22       1.0  0.56925  0.20151  0.63852  1.0000
  H   H23       1.0  0.93075  0.70151  0.13852  1.0000
  H   H24       1.0  0.43075  0.79849  0.36148  1.0000
  H   H25       1.0  0.87623  0.91345  0.77538  1.0000
  H   H26       1.0  0.37624  0.58655  0.72462  1.0000
  H   H27       1.0  0.12377  0.08655  0.22462  1.0000
  H   H28       1.0  0.62377  0.41345  0.27538  1.0000
  H   H29       1.0  0.65506  0.85526  0.04371  1.0000
  H   H30       1.0  0.15506  0.64474  0.45630  1.0000
  H   H31       1.0  0.34495  0.14474  0.95629  1.0000
  H   H32       1.0  0.84494  0.35526  0.54371  1.0000
  C   C1        1.0  0.76634  0.98138  0.97016  1.0000
  C   C2        1.0  0.26633  0.51862  0.52984  1.0000
  C   C3        1.0  0.23366  0.01862  0.02984  1.0000
  C   C4        1.0  0.73366  0.48139  0.47016  1.0000
  C   C5        1.0  0.82727  0.99745  0.89194  1.0000
  C   C6        1.0  0.32726  0.50255  0.60806  1.0000
  C   C7        1.0  0.17274  0.00255  0.10805  1.0000
  C   C8        1.0  0.67274  0.49745  0.39195  1.0000
  C   C9        1.0  0.82815  0.89941  0.83463  1.0000
  C   C10       1.0  0.32814  0.60059  0.66537  1.0000
  C   C11       1.0  0.17185  0.10059  0.16537  1.0000
  C   C12       1.0  0.67185  0.39941  0.33463  1.0000
  C   C13       1.0  0.77695  0.78646  0.85069  1.0000
  C   C14       1.0  0.27694  0.71354  0.64931  1.0000
  C   C15       1.0  0.22305  0.21354  0.14931  1.0000
  C   C16       1.0  0.72306  0.28645  0.35069  1.0000
  C   C17       1.0  0.71418  0.77178  0.92775  1.0000
  C   C18       1.0  0.21417  0.72822  0.57225  1.0000
  C   C19       1.0  0.28582  0.22822  0.07225  1.0000
  C   C20       1.0  0.78582  0.27179  0.42775  1.0000
  C   C21       1.0  0.70794  0.86812  0.98501  1.0000
  C   C22       1.0  0.20794  0.63188  0.51499  1.0000
  C   C23       1.0  0.29206  0.13188  0.01499  1.0000
  C   C24       1.0  0.79206  0.36812  0.48501  1.0000
  C   C25       1.0  0.75872  0.07199  0.04202  1.0000
  C   C26       1.0  0.25872  0.42801  0.45798  1.0000
  C   C27       1.0  0.24127  0.92801  0.95797  1.0000
  C   C28       1.0  0.74128  0.57199  0.54202  1.0000
  C   C29       1.0  0.89605  0.10828  0.85879  1.0000
  C   C30       1.0  0.39604  0.39172  0.64121  1.0000
  C   C31       1.0  0.10396  0.89172  0.14121  1.0000
  C   C32       1.0  0.60396  0.60828  0.35879  1.0000
  C   C33       1.0  0.80314  0.68717  0.78596  1.0000
  C   C34       1.0  0.30313  0.81283  0.71405  1.0000
  C   C35       1.0  0.19687  0.31283  0.21405  1.0000
  C   C36       1.0  0.69686  0.18716  0.28596  1.0000
  S   S1        1.0  0.62885  0.63343  0.95444  1.0000
  S   S2        1.0  0.12885  0.86657  0.54556  1.0000
  S   S3        1.0  0.37115  0.36657  0.04556  1.0000
  S   S4        1.0  0.87115  0.13343  0.45444  1.0000
  O   O1        1.0  0.69997  0.04116  0.10704  1.0000
  O   O2        1.0  0.19997  0.45884  0.39296  1.0000
  O   O3        1.0  0.30003  0.95884  0.89296  1.0000
  O   O4        1.0  0.80003  0.54117  0.60704  1.0000
  O   O5        1.0  0.81525  0.17861  0.03727  1.0000
  O   O6        1.0  0.31526  0.32139  0.46273  1.0000
  O   O7        1.0  0.18474  0.82139  0.96273  1.0000
  O   O8        1.0  0.68474  0.67861  0.53727  1.0000
  O   O9        1.0  0.90413  0.20796  0.90532  1.0000
  O   O10       1.0  0.40411  0.29204  0.59468  1.0000
  O   O11       1.0  0.09588  0.79204  0.09468  1.0000
  O   O12       1.0  0.59588  0.70795  0.40532  1.0000
  O   O13       1.0  0.94266  0.10358  0.78812  1.0000
  O   O14       1.0  0.44266  0.39642  0.71189  1.0000
  O   O15       1.0  0.05734  0.89642  0.21188  1.0000
  O   O16       1.0  0.55733  0.60357  0.28811  1.0000
  O   O17       1.0  0.74312  0.71307  0.71590  1.0000
  O   O18       1.0  0.24312  0.78693  0.78410  1.0000
  O   O19       1.0  0.25689  0.28693  0.28410  1.0000
  O   O20       1.0  0.75687  0.21307  0.21590  1.0000
  O   O21       1.0  0.88099  0.59364  0.79706  1.0000
  O   O22       1.0  0.38098  0.90636  0.70294  1.0000
  O   O23       1.0  0.11900  0.40636  0.20294  1.0000
  O   O24       1.0  0.61903  0.09364  0.29706  1.0000
  O   O25       1.0  0.52043  0.58590  0.88467  1.0000
  O   O26       1.0  0.02042  0.91410  0.61533  1.0000
  O   O27       1.0  0.47957  0.41410  0.11533  1.0000
  O   O28       1.0  0.97958  0.08590  0.38467  1.0000
  O   O29       1.0  0.51564  0.66167  0.02544  1.0000
  O   O30       1.0  0.01565  0.83832  0.47456  1.0000
  O   O31       1.0  0.48436  0.33833  0.97456  1.0000
  O   O32       1.0  0.98437  0.16168  0.52544  1.0000
  O   O33       1.0  0.79414  0.56153  0.96811  1.0000
  O   O34       1.0  0.29414  0.93847  0.53189  1.0000
  O   O35       1.0  0.20586  0.43847  0.03189  1.0000
  O   O36       1.0  0.70587  0.06153  0.46812  1.0000
  O   O37       1.0  0.42119  0.16529  0.80012  1.0000
  O   O38       1.0  0.92118  0.33471  0.69989  1.0000
  O   O39       1.0  0.57881  0.83471  0.19988  1.0000
  O   O40       1.0  0.07881  0.66529  0.30012  1.0000
  O   O41       1.0  0.14806  0.34506  0.82824  1.0000
  O   O42       1.0  0.64805  0.15494  0.67176  1.0000
  O   O43       1.0  0.85194  0.65494  0.17176  1.0000
  O   O44       1.0  0.35194  0.84506  0.32824  1.0000
