data_image0
_chemical_formula_structural       NiH44C28N4O4
_chemical_formula_sum              "Ni1 H44 C28 N4 O4"
_cell_length_a       8.59138
_cell_length_b       10.1563
_cell_length_c       10.226
_cell_angle_alpha    71.4891
_cell_angle_beta     58.929
_cell_angle_gamma    84.6875

_space_group_name_H-M_alt    "P 1"
_space_group_IT_number       1

loop_
  _space_group_symop_operation_xyz
  'x, y, z'

loop_
  _atom_site_type_symbol
  _atom_site_label
  _atom_site_symmetry_multiplicity
  _atom_site_fract_x
  _atom_site_fract_y
  _atom_site_fract_z
  _atom_site_occupancy
  Ni  Ni1       1.0  0.50000  0.00000  0.49999  1.0000
  H   H1        1.0  0.47004  0.82212  0.72729  1.0000
  H   H2        1.0  0.52996  0.17787  0.27270  1.0000
  H   H3        1.0  0.22933  0.99021  0.51616  1.0000
  H   H4        1.0  0.77066  0.00979  0.48385  1.0000
  H   H5        1.0  0.12379  0.95879  0.79302  1.0000
  H   H6        1.0  0.87622  0.04121  0.20698  1.0000
  H   H7        1.0  0.09112  0.81192  0.05399  1.0000
  H   H8        1.0  0.90888  0.18807  0.94602  1.0000
  H   H9        1.0  0.18006  0.67169  0.97611  1.0000
  H   H10       1.0  0.81994  0.32832  0.02389  1.0000
  H   H11       1.0  0.84038  0.63960  0.14353  1.0000
  H   H12       1.0  0.15963  0.36039  0.85648  1.0000
  H   H13       1.0  0.82474  0.80529  0.02818  1.0000
  H   H14       1.0  0.17525  0.19470  0.97183  1.0000
  H   H15       1.0  0.76457  0.62786  0.93779  1.0000
  H   H16       1.0  0.23542  0.37212  0.06223  1.0000
  H   H17       1.0  0.97177  0.55594  0.90514  1.0000
  H   H18       1.0  0.02822  0.44406  0.09487  1.0000
  H   H19       1.0  0.93289  0.84911  0.72094  1.0000
  H   H20       1.0  0.06710  0.15087  0.27907  1.0000
  H   H21       1.0  0.01099  0.70532  0.64906  1.0000
  H   H22       1.0  0.98900  0.29467  0.35095  1.0000
  H   H23       1.0  0.27665  0.70577  0.68485  1.0000
  H   H24       1.0  0.72333  0.29424  0.31517  1.0000
  H   H25       1.0  0.19669  0.80823  0.42164  1.0000
  H   H26       1.0  0.80330  0.19178  0.57837  1.0000
  H   H27       1.0  0.37686  0.62865  0.48604  1.0000
  H   H28       1.0  0.62314  0.37134  0.51396  1.0000
  H   H29       1.0  0.57466  0.74747  0.37857  1.0000
  H   H30       1.0  0.42534  0.25254  0.62143  1.0000
  H   H31       1.0  0.48924  0.69427  0.27477  1.0000
  H   H32       1.0  0.51076  0.30574  0.72523  1.0000
  H   H33       1.0  0.40824  0.92309  0.14429  1.0000
  H   H34       1.0  0.59175  0.07690  0.85573  1.0000
  H   H35       1.0  0.31452  0.04717  0.24731  1.0000
  H   H36       1.0  0.68549  0.95284  0.75268  1.0000
  H   H37       1.0  0.35279  0.90176  0.95396  1.0000
  H   H38       1.0  0.64721  0.09823  0.04604  1.0000
  H   H39       1.0  0.30767  0.06078  0.84804  1.0000
  H   H40       1.0  0.69235  0.93922  0.15194  1.0000
  H   H41       1.0  0.93632  0.27377  0.71309  1.0000
  H   H42       1.0  0.06367  0.72623  0.28690  1.0000
  H   H43       1.0  0.27425  0.53395  0.22758  1.0000
  H   H44       1.0  0.72575  0.46604  0.77244  1.0000
  C   C1        1.0  0.19664  0.86336  0.79774  1.0000
  C   C2        1.0  0.80334  0.13664  0.20227  1.0000
  C   C3        1.0  0.09963  0.76219  0.96981  1.0000
  C   C4        1.0  0.90036  0.23781  0.03020  1.0000
  C   C5        1.0  0.90650  0.71469  0.02126  1.0000
  C   C6        1.0  0.09350  0.28530  0.97874  1.0000
  C   C7        1.0  0.90504  0.65394  0.90310  1.0000
  C   C8        1.0  0.09496  0.34606  0.09690  1.0000
  C   C9        1.0  0.00602  0.75487  0.73165  1.0000
  C   C10       1.0  0.99399  0.24514  0.26835  1.0000
  C   C11       1.0  0.19860  0.79817  0.68285  1.0000
  C   C12       1.0  0.80140  0.20183  0.31715  1.0000
  C   C13       1.0  0.33161  0.84474  0.39148  1.0000
  C   C14       1.0  0.66839  0.15525  0.60852  1.0000
  C   C15       1.0  0.45022  0.72219  0.38250  1.0000
  C   C16       1.0  0.54978  0.27781  0.61750  1.0000
  C   C17       1.0  0.40699  0.96325  0.23285  1.0000
  C   C18       1.0  0.59301  0.03675  0.76716  1.0000
  C   C19       1.0  0.40161  0.97801  0.83351  1.0000
  C   C20       1.0  0.59838  0.02198  0.16649  1.0000
  C   C21       1.0  0.23312  0.27386  0.43023  1.0000
  C   C22       1.0  0.76691  0.72618  0.56973  1.0000
  C   C23       1.0  0.11703  0.39324  0.46750  1.0000
  C   C24       1.0  0.88298  0.60677  0.53250  1.0000
  C   C25       1.0  0.96255  0.37392  0.62109  1.0000
  C   C26       1.0  0.03744  0.62606  0.37891  1.0000
  C   C27       1.0  0.15383  0.52081  0.34645  1.0000
  C   C28       1.0  0.84616  0.47919  0.65355  1.0000
  N   N1        1.0  0.38974  0.90936  0.73132  1.0000
  N   N2        1.0  0.61026  0.09063  0.26867  1.0000
  N   N3        1.0  0.30204  0.90093  0.51956  1.0000
  N   N4        1.0  0.69796  0.09907  0.48044  1.0000
  O   O1        1.0  0.16390  0.15347  0.53293  1.0000
  O   O2        1.0  0.83614  0.84654  0.46703  1.0000
  O   O3        1.0  0.38588  0.30243  0.29825  1.0000
  O   O4        1.0  0.61411  0.69760  0.70171  1.0000
