data_image0
_chemical_formula_structural       Hg4H32C40S8Br8N8
_chemical_formula_sum              "Hg4 H32 C40 S8 Br8 N8"
_cell_length_a       9.10944
_cell_length_b       11.6569
_cell_length_c       13.3207
_cell_angle_alpha    89.9999
_cell_angle_beta     90.0001
_cell_angle_gamma    104.014

_space_group_name_H-M_alt    "P 1"
_space_group_IT_number       1

loop_
  _space_group_symop_operation_xyz
  'x, y, z'

loop_
  _atom_site_type_symbol
  _atom_site_label
  _atom_site_symmetry_multiplicity
  _atom_site_fract_x
  _atom_site_fract_y
  _atom_site_fract_z
  _atom_site_occupancy
  Hg  Hg1       1.0  0.51761  0.12900  0.12802  1.0000
  Hg  Hg2       1.0  0.01761  0.62900  0.37198  1.0000
  Hg  Hg3       1.0  0.48239  0.87100  0.87198  1.0000
  Hg  Hg4       1.0  0.98239  0.37100  0.62802  1.0000
  H   H1        1.0  0.97384  0.99228  0.35104  1.0000
  H   H2        1.0  0.47384  0.49228  0.14896  1.0000
  H   H3        1.0  0.02616  0.00772  0.64896  1.0000
  H   H4        1.0  0.52616  0.50772  0.85104  1.0000
  H   H5        1.0  0.79680  0.86928  0.47261  1.0000
  H   H6        1.0  0.29679  0.36928  0.02739  1.0000
  H   H7        1.0  0.20320  0.13072  0.52739  1.0000
  H   H8        1.0  0.70320  0.63072  0.97261  1.0000
  H   H9        1.0  0.51799  0.86749  0.46411  1.0000
  H   H10       1.0  0.01798  0.36749  0.03589  1.0000
  H   H11       1.0  0.48201  0.13251  0.53589  1.0000
  H   H12       1.0  0.98201  0.63251  0.96411  1.0000
  H   H13       1.0  0.43219  0.98615  0.33058  1.0000
  H   H14       1.0  0.93219  0.48615  0.16942  1.0000
  H   H15       1.0  0.56781  0.01385  0.66942  1.0000
  H   H16       1.0  0.06781  0.51385  0.83058  1.0000
  H   H17       1.0  0.58092  0.26522  0.33507  1.0000
  H   H18       1.0  0.08092  0.76522  0.16493  1.0000
  H   H19       1.0  0.41908  0.73478  0.66493  1.0000
  H   H20       1.0  0.91908  0.23478  0.83507  1.0000
  H   H21       1.0  0.49946  0.39210  0.46351  1.0000
  H   H22       1.0  0.99946  0.89210  0.03649  1.0000
  H   H23       1.0  0.50054  0.60790  0.53649  1.0000
  H   H24       1.0  0.00054  0.10790  0.96351  1.0000
  H   H25       1.0  0.22433  0.39991  0.46765  1.0000
  H   H26       1.0  0.72433  0.89991  0.03235  1.0000
  H   H27       1.0  0.77567  0.60009  0.53235  1.0000
  H   H28       1.0  0.27567  0.10009  0.96765  1.0000
  H   H29       1.0  0.04362  0.27490  0.34786  1.0000
  H   H30       1.0  0.54362  0.77490  0.15214  1.0000
  H   H31       1.0  0.95638  0.72510  0.65214  1.0000
  H   H32       1.0  0.45638  0.22510  0.84786  1.0000
  C   C1        1.0  0.79536  0.05589  0.27854  1.0000
  C   C2        1.0  0.29535  0.55589  0.22146  1.0000
  C   C3        1.0  0.20464  0.94410  0.72146  1.0000
  C   C4        1.0  0.70465  0.44410  0.77854  1.0000
  C   C5        1.0  0.85380  0.99056  0.34931  1.0000
  C   C6        1.0  0.35380  0.49056  0.15069  1.0000
  C   C7        1.0  0.14620  0.00944  0.65069  1.0000
  C   C8        1.0  0.64620  0.50944  0.84931  1.0000
  C   C9        1.0  0.75374  0.92144  0.41699  1.0000
  C   C10       1.0  0.25374  0.42144  0.08301  1.0000
  C   C11       1.0  0.24626  0.07856  0.58301  1.0000
  C   C12       1.0  0.74626  0.57856  0.91699  1.0000
  C   C13       1.0  0.60017  0.91999  0.41259  1.0000
  C   C14       1.0  0.10017  0.41999  0.08741  1.0000
  C   C15       1.0  0.39983  0.08001  0.58741  1.0000
  C   C16       1.0  0.89983  0.58001  0.91259  1.0000
  C   C17       1.0  0.55164  0.98693  0.33897  1.0000
  C   C18       1.0  0.05164  0.48693  0.16103  1.0000
  C   C19       1.0  0.44836  0.01307  0.66103  1.0000
  C   C20       1.0  0.94836  0.51307  0.83897  1.0000
  C   C21       1.0  0.46252  0.26842  0.34129  1.0000
  C   C22       1.0  0.96252  0.76842  0.15871  1.0000
  C   C23       1.0  0.53748  0.73158  0.65871  1.0000
  C   C24       1.0  0.03748  0.23158  0.84129  1.0000
  C   C25       1.0  0.41647  0.33994  0.41222  1.0000
  C   C26       1.0  0.91647  0.83994  0.08778  1.0000
  C   C27       1.0  0.58353  0.66006  0.58778  1.0000
  C   C28       1.0  0.08353  0.16006  0.91222  1.0000
  C   C29       1.0  0.26421  0.34309  0.41442  1.0000
  C   C30       1.0  0.76421  0.84309  0.08557  1.0000
  C   C31       1.0  0.73579  0.65691  0.58558  1.0000
  C   C32       1.0  0.23579  0.15691  0.91443  1.0000
  C   C33       1.0  0.16285  0.27372  0.34751  1.0000
  C   C34       1.0  0.66285  0.77372  0.15249  1.0000
  C   C35       1.0  0.83715  0.72628  0.65249  1.0000
  C   C36       1.0  0.33715  0.22628  0.84751  1.0000
  C   C37       1.0  0.21982  0.20429  0.27922  1.0000
  C   C38       1.0  0.71982  0.70429  0.22078  1.0000
  C   C39       1.0  0.78018  0.79571  0.72078  1.0000
  C   C40       1.0  0.28018  0.29571  0.77922  1.0000
  S   S1        1.0  0.90580  0.15162  0.18790  1.0000
  S   S2        1.0  0.40580  0.65162  0.31210  1.0000
  S   S3        1.0  0.09420  0.84838  0.81210  1.0000
  S   S4        1.0  0.59420  0.34838  0.68790  1.0000
  S   S5        1.0  0.10868  0.10843  0.18875  1.0000
  S   S6        1.0  0.60868  0.60843  0.31125  1.0000
  S   S7        1.0  0.89132  0.89157  0.81125  1.0000
  S   S8        1.0  0.39132  0.39157  0.68875  1.0000
  Br  Br1       1.0  0.65076  0.33689  0.08047  1.0000
  Br  Br2       1.0  0.15076  0.83689  0.41953  1.0000
  Br  Br3       1.0  0.34924  0.66311  0.91953  1.0000
  Br  Br4       1.0  0.84924  0.16311  0.58047  1.0000
  Br  Br5       1.0  0.34625  0.92490  0.09813  1.0000
  Br  Br6       1.0  0.84625  0.42490  0.40187  1.0000
  Br  Br7       1.0  0.65374  0.07511  0.90188  1.0000
  Br  Br8       1.0  0.15375  0.57511  0.59813  1.0000
  N   N1        1.0  0.64742  0.05370  0.27298  1.0000
  N   N2        1.0  0.14742  0.55370  0.22702  1.0000
  N   N3        1.0  0.35258  0.94630  0.72702  1.0000
  N   N4        1.0  0.85258  0.44630  0.77298  1.0000
  N   N5        1.0  0.36626  0.20172  0.27569  1.0000
  N   N6        1.0  0.86626  0.70171  0.22431  1.0000
  N   N7        1.0  0.63374  0.79828  0.72431  1.0000
  N   N8        1.0  0.13374  0.29828  0.77569  1.0000
