data_image0
_chemical_formula_structural       Sn8H72C48O20
_chemical_formula_sum              "Sn8 H72 C48 O20"
_cell_length_a       8.402
_cell_length_b       12.9638
_cell_length_c       14.9365
_cell_angle_alpha    89.9997
_cell_angle_beta     90.0003
_cell_angle_gamma    96.6415

_space_group_name_H-M_alt    "P 1"
_space_group_IT_number       1

loop_
  _space_group_symop_operation_xyz
  'x, y, z'

loop_
  _atom_site_type_symbol
  _atom_site_label
  _atom_site_symmetry_multiplicity
  _atom_site_fract_x
  _atom_site_fract_y
  _atom_site_fract_z
  _atom_site_occupancy
  Sn  Sn1       1.0  0.37794  0.01289  0.79020  1.0000
  Sn  Sn2       1.0  0.37796  0.51289  0.70980  1.0000
  Sn  Sn3       1.0  0.62205  0.98711  0.20980  1.0000
  Sn  Sn4       1.0  0.62205  0.48711  0.29020  1.0000
  Sn  Sn5       1.0  0.33942  0.41204  0.48768  1.0000
  Sn  Sn6       1.0  0.33942  0.91205  0.01232  1.0000
  Sn  Sn7       1.0  0.66058  0.58795  0.51232  1.0000
  Sn  Sn8       1.0  0.66057  0.08795  0.98768  1.0000
  H   H1        1.0  0.81038  0.26659  0.81441  1.0000
  H   H2        1.0  0.81039  0.76658  0.68559  1.0000
  H   H3        1.0  0.18963  0.73341  0.18559  1.0000
  H   H4        1.0  0.18961  0.23341  0.31441  1.0000
  H   H5        1.0  0.02721  0.27689  0.50511  1.0000
  H   H6        1.0  0.02722  0.77688  0.99489  1.0000
  H   H7        1.0  0.97278  0.72312  0.49489  1.0000
  H   H8        1.0  0.97277  0.22311  0.00511  1.0000
  H   H9        1.0  0.77215  0.16506  0.54115  1.0000
  H   H10       1.0  0.77216  0.66506  0.95885  1.0000
  H   H11       1.0  0.22786  0.83493  0.45886  1.0000
  H   H12       1.0  0.22784  0.33494  0.04115  1.0000
  H   H13       1.0  0.09706  0.47094  0.90677  1.0000
  H   H14       1.0  0.09706  0.97094  0.59323  1.0000
  H   H15       1.0  0.90294  0.52907  0.09323  1.0000
  H   H16       1.0  0.90294  0.02907  0.40677  1.0000
  H   H17       1.0  0.89825  0.44343  0.86185  1.0000
  H   H18       1.0  0.89825  0.94343  0.63815  1.0000
  H   H19       1.0  0.10175  0.55657  0.13815  1.0000
  H   H20       1.0  0.10175  0.05657  0.36185  1.0000
  H   H21       1.0  0.99611  0.34166  0.91213  1.0000
  H   H22       1.0  0.99611  0.84167  0.58787  1.0000
  H   H23       1.0  0.00389  0.65834  0.08787  1.0000
  H   H24       1.0  0.00389  0.15834  0.41213  1.0000
  H   H25       1.0  0.43869  0.81469  0.77331  1.0000
  H   H26       1.0  0.43869  0.31468  0.72669  1.0000
  H   H27       1.0  0.56131  0.18532  0.22669  1.0000
  H   H28       1.0  0.56131  0.68532  0.27331  1.0000
  H   H29       1.0  0.60157  0.90083  0.72748  1.0000
  H   H30       1.0  0.60157  0.40082  0.77252  1.0000
  H   H31       1.0  0.39843  0.09918  0.27252  1.0000
  H   H32       1.0  0.39844  0.59918  0.22747  1.0000
  H   H33       1.0  0.42121  0.87065  0.66400  1.0000
  H   H34       1.0  0.42121  0.37064  0.83600  1.0000
  H   H35       1.0  0.57879  0.12936  0.33600  1.0000
  H   H36       1.0  0.57880  0.62936  0.16399  1.0000
  H   H37       1.0  0.23126  0.17914  0.82913  1.0000
  H   H38       1.0  0.23126  0.67913  0.67087  1.0000
  H   H39       1.0  0.76874  0.82087  0.17087  1.0000
  H   H40       1.0  0.76873  0.32086  0.32913  1.0000
  H   H41       1.0  0.08707  0.08365  0.77826  1.0000
  H   H42       1.0  0.08707  0.58364  0.72173  1.0000
  H   H43       1.0  0.91293  0.91636  0.22174  1.0000
  H   H44       1.0  0.91292  0.41635  0.27826  1.0000
  H   H45       1.0  0.23087  0.16142  0.71020  1.0000
  H   H46       1.0  0.23087  0.66141  0.78980  1.0000
  H   H47       1.0  0.76913  0.83859  0.28980  1.0000
  H   H48       1.0  0.76912  0.33858  0.21020  1.0000
  H   H49       1.0  0.45661  0.24093  0.42935  1.0000
  H   H50       1.0  0.45661  0.74093  0.07066  1.0000
  H   H51       1.0  0.54339  0.75907  0.57065  1.0000
  H   H52       1.0  0.54339  0.25908  0.92934  1.0000
  H   H53       1.0  0.48293  0.24913  0.54862  1.0000
  H   H54       1.0  0.48293  0.74913  0.95138  1.0000
  H   H55       1.0  0.51707  0.75087  0.45138  1.0000
  H   H56       1.0  0.51707  0.25087  0.04862  1.0000
  H   H57       1.0  0.29267  0.20180  0.50366  1.0000
  H   H58       1.0  0.29266  0.70180  0.99634  1.0000
  H   H59       1.0  0.70733  0.79821  0.49634  1.0000
  H   H60       1.0  0.70734  0.29820  0.00366  1.0000
  H   H61       1.0  0.18332  0.56264  0.42016  1.0000
  H   H62       1.0  0.18332  0.06264  0.07985  1.0000
  H   H63       1.0  0.81668  0.43736  0.57985  1.0000
  H   H64       1.0  0.81668  0.93736  0.92015  1.0000
  H   H65       1.0  0.17091  0.45558  0.34359  1.0000
  H   H66       1.0  0.17091  0.95558  0.15642  1.0000
  H   H67       1.0  0.82909  0.54442  0.65641  1.0000
  H   H68       1.0  0.82909  0.04442  0.84359  1.0000
  H   H69       1.0  0.03936  0.45184  0.43885  1.0000
  H   H70       1.0  0.03936  0.95184  0.06115  1.0000
  H   H71       1.0  0.96064  0.54816  0.56115  1.0000
  H   H72       1.0  0.96064  0.04816  0.93885  1.0000
  C   C1        1.0  0.62603  0.14185  0.70104  1.0000
  C   C2        1.0  0.62604  0.64185  0.79896  1.0000
  C   C3        1.0  0.37398  0.85815  0.29896  1.0000
  C   C4        1.0  0.37396  0.35815  0.20104  1.0000
  C   C5        1.0  0.77686  0.20846  0.68003  1.0000
  C   C6        1.0  0.77687  0.70846  0.81997  1.0000
  C   C7        1.0  0.22315  0.79153  0.31997  1.0000
  C   C8        1.0  0.22313  0.29154  0.18003  1.0000
  C   C9        1.0  0.86025  0.26927  0.74709  1.0000
  C   C10       1.0  0.86026  0.76927  0.75291  1.0000
  C   C11       1.0  0.13976  0.73073  0.25291  1.0000
  C   C12       1.0  0.13974  0.23073  0.24709  1.0000
  C   C13       1.0  0.00114  0.33180  0.72728  1.0000
  C   C14       1.0  0.00114  0.83180  0.77273  1.0000
  C   C15       1.0  0.99887  0.66820  0.27273  1.0000
  C   C16       1.0  0.99886  0.16820  0.22728  1.0000
  C   C17       1.0  0.06597  0.33473  0.63893  1.0000
  C   C18       1.0  0.06598  0.83473  0.86107  1.0000
  C   C19       1.0  0.93403  0.66527  0.36107  1.0000
  C   C20       1.0  0.93402  0.16527  0.13893  1.0000
  C   C21       1.0  0.98083  0.27291  0.57334  1.0000
  C   C22       1.0  0.98084  0.77290  0.92666  1.0000
  C   C23       1.0  0.01917  0.72709  0.42666  1.0000
  C   C24       1.0  0.01915  0.22710  0.07334  1.0000
  C   C25       1.0  0.83820  0.21140  0.59290  1.0000
  C   C26       1.0  0.83821  0.71140  0.90710  1.0000
  C   C27       1.0  0.16181  0.78859  0.40711  1.0000
  C   C28       1.0  0.16179  0.28860  0.09289  1.0000
  C   C29       1.0  0.01414  0.41301  0.87180  1.0000
  C   C30       1.0  0.01414  0.91301  0.62820  1.0000
  C   C31       1.0  0.98586  0.58699  0.12820  1.0000
  C   C32       1.0  0.98586  0.08699  0.37180  1.0000
  C   C33       1.0  0.47110  0.88297  0.73130  1.0000
  C   C34       1.0  0.47110  0.38297  0.76870  1.0000
  C   C35       1.0  0.52890  0.11703  0.26870  1.0000
  C   C36       1.0  0.52891  0.61703  0.23130  1.0000
  C   C37       1.0  0.20940  0.12241  0.77482  1.0000
  C   C38       1.0  0.20940  0.62241  0.72518  1.0000
  C   C39       1.0  0.79060  0.87759  0.22518  1.0000
  C   C40       1.0  0.79059  0.37759  0.27482  1.0000
  C   C41       1.0  0.40005  0.25691  0.49310  1.0000
  C   C42       1.0  0.40005  0.75691  0.00689  1.0000
  C   C43       1.0  0.59995  0.74309  0.50689  1.0000
  C   C44       1.0  0.59995  0.24309  0.99310  1.0000
  C   C45       1.0  0.15943  0.47812  0.41368  1.0000
  C   C46       1.0  0.15943  0.97812  0.08633  1.0000
  C   C47       1.0  0.84057  0.52189  0.58633  1.0000
  C   C48       1.0  0.84057  0.02188  0.91367  1.0000
  O   O1        1.0  0.53641  0.09931  0.64101  1.0000
  O   O2        1.0  0.53642  0.59931  0.85899  1.0000
  O   O3        1.0  0.46359  0.90069  0.35899  1.0000
  O   O4        1.0  0.46358  0.40069  0.14101  1.0000
  O   O5        1.0  0.59086  0.12828  0.78612  1.0000
  O   O6        1.0  0.59086  0.62827  0.71388  1.0000
  O   O7        1.0  0.40915  0.87173  0.21388  1.0000
  O   O8        1.0  0.40913  0.37173  0.28612  1.0000
  O   O9        1.0  0.08824  0.39502  0.78805  1.0000
  O   O10       1.0  0.08824  0.89502  0.71196  1.0000
  O   O11       1.0  0.91177  0.60498  0.21196  1.0000
  O   O12       1.0  0.91176  0.10498  0.28805  1.0000
  O   O13       1.0  0.19968  0.39631  0.62018  1.0000
  O   O14       1.0  0.19968  0.89632  0.87982  1.0000
  O   O15       1.0  0.80032  0.60369  0.37982  1.0000
  O   O16       1.0  0.80031  0.10369  0.12018  1.0000
  O   O17       1.0  0.45160  0.01569  0.92172  1.0000
  O   O18       1.0  0.45160  0.51569  0.57828  1.0000
  O   O19       1.0  0.54840  0.98431  0.07828  1.0000
  O   O20       1.0  0.54840  0.48431  0.42172  1.0000
