data_image0
_chemical_formula_structural       Cu2H38C40N6O14
_chemical_formula_sum              "Cu2 H38 C40 N6 O14"
_cell_length_a       8.70731
_cell_length_b       11.1066
_cell_length_c       11.1388
_cell_angle_alpha    82.7924
_cell_angle_beta     87.9271
_cell_angle_gamma    73.6255

_space_group_name_H-M_alt    "P 1"
_space_group_IT_number       1

loop_
  _space_group_symop_operation_xyz
  'x, y, z'

loop_
  _atom_site_type_symbol
  _atom_site_label
  _atom_site_symmetry_multiplicity
  _atom_site_fract_x
  _atom_site_fract_y
  _atom_site_fract_z
  _atom_site_occupancy
  Cu  Cu1       1.0  0.42665  0.98824  0.15188  1.0000
  Cu  Cu2       1.0  0.57335  0.01175  0.84812  1.0000
  H   H1        1.0  0.28007  0.84759  0.00743  1.0000
  H   H2        1.0  0.71992  0.15241  0.99258  1.0000
  H   H3        1.0  0.27080  0.62679  0.00436  1.0000
  H   H4        1.0  0.72920  0.37321  0.99564  1.0000
  H   H5        1.0  0.58084  0.52319  0.31773  1.0000
  H   H6        1.0  0.41915  0.47680  0.68226  1.0000
  H   H7        1.0  0.57744  0.74962  0.30593  1.0000
  H   H8        1.0  0.42256  0.25037  0.69407  1.0000
  H   H9        1.0  0.21118  0.45841  0.05540  1.0000
  H   H10       1.0  0.78882  0.54159  0.94459  1.0000
  H   H11       1.0  0.21760  0.23370  0.06702  1.0000
  H   H12       1.0  0.78241  0.76629  0.93298  1.0000
  H   H13       1.0  0.63165  0.11726  0.27217  1.0000
  H   H14       1.0  0.36834  0.88274  0.72784  1.0000
  H   H15       1.0  0.64304  0.33772  0.27362  1.0000
  H   H16       1.0  0.35695  0.66229  0.72638  1.0000
  H   H17       1.0  0.96538  0.07671  0.43033  1.0000
  H   H18       1.0  0.03461  0.92333  0.56965  1.0000
  H   H19       1.0  0.91706  0.97896  0.33238  1.0000
  H   H20       1.0  0.08292  0.02105  0.66764  1.0000
  H   H21       1.0  0.93068  0.13222  0.27342  1.0000
  H   H22       1.0  0.06930  0.86777  0.72655  1.0000
  H   H23       1.0  0.00480  0.91301  0.12669  1.0000
  H   H24       1.0  0.99519  0.08700  0.87332  1.0000
  H   H25       1.0  0.91953  0.90477  0.98423  1.0000
  H   H26       1.0  0.08048  0.09524  0.01578  1.0000
  H   H27       1.0  0.97086  0.77045  0.09712  1.0000
  H   H28       1.0  0.02915  0.22956  0.90289  1.0000
  H   H29       1.0  0.97213  0.20160  0.61315  1.0000
  H   H30       1.0  0.02787  0.79841  0.38685  1.0000
  H   H31       1.0  0.12376  0.30972  0.72097  1.0000
  H   H32       1.0  0.87625  0.69029  0.27903  1.0000
  H   H33       1.0  0.78431  0.66896  0.60752  1.0000
  H   H34       1.0  0.21570  0.33105  0.39248  1.0000
  H   H35       1.0  0.62250  0.55865  0.50530  1.0000
  H   H36       1.0  0.37751  0.44135  0.49469  1.0000
  H   H37       1.0  0.72361  0.22007  0.53619  1.0000
  H   H38       1.0  0.27640  0.77992  0.46381  1.0000
  C   C1        1.0  0.34437  0.77218  0.07466  1.0000
  C   C2        1.0  0.65562  0.22782  0.92535  1.0000
  C   C3        1.0  0.33963  0.64832  0.07442  1.0000
  C   C4        1.0  0.66036  0.35167  0.92558  1.0000
  C   C5        1.0  0.42692  0.55348  0.16143  1.0000
  C   C6        1.0  0.57308  0.44651  0.83858  1.0000
  C   C7        1.0  0.51354  0.59118  0.24623  1.0000
  C   C8        1.0  0.48645  0.40881  0.75376  1.0000
  C   C9        1.0  0.51206  0.71704  0.24127  1.0000
  C   C10       1.0  0.48793  0.28296  0.75873  1.0000
  C   C11       1.0  0.42723  0.42012  0.16401  1.0000
  C   C12       1.0  0.57276  0.57988  0.83599  1.0000
  C   C13       1.0  0.30780  0.38734  0.10497  1.0000
  C   C14       1.0  0.69220  0.61265  0.89503  1.0000
  C   C15       1.0  0.31047  0.26136  0.10984  1.0000
  C   C16       1.0  0.68952  0.73864  0.89016  1.0000
  C   C17       1.0  0.54120  0.19667  0.22580  1.0000
  C   C18       1.0  0.45879  0.80332  0.77420  1.0000
  C   C19       1.0  0.54561  0.32080  0.22595  1.0000
  C   C20       1.0  0.45439  0.67920  0.77406  1.0000
  C   C21       1.0  0.15836  0.99480  0.31239  1.0000
  C   C22       1.0  0.84164  0.00520  0.68760  1.0000
  C   C23       1.0  0.98235  0.04964  0.33860  1.0000
  C   C24       1.0  0.01764  0.95037  0.66139  1.0000
  C   C25       1.0  0.75872  0.91068  0.13924  1.0000
  C   C26       1.0  0.24129  0.08933  0.86076  1.0000
  C   C27       1.0  0.92303  0.87389  0.08165  1.0000
  C   C28       1.0  0.07697  0.12612  0.91836  1.0000
  C   C29       1.0  0.78395  0.37193  0.55538  1.0000
  C   C30       1.0  0.21607  0.62808  0.44462  1.0000
  C   C31       1.0  0.92811  0.30315  0.61444  1.0000
  C   C32       1.0  0.07191  0.69685  0.38556  1.0000
  C   C33       1.0  0.01349  0.36413  0.67511  1.0000
  C   C34       1.0  0.98652  0.63587  0.32489  1.0000
  C   C35       1.0  0.95892  0.49527  0.67424  1.0000
  C   C36       1.0  0.04109  0.50473  0.32576  1.0000
  C   C37       1.0  0.82262  0.56674  0.60829  1.0000
  C   C38       1.0  0.17739  0.43326  0.39171  1.0000
  C   C39       1.0  0.73449  0.50505  0.55011  1.0000
  C   C40       1.0  0.26553  0.49495  0.44988  1.0000
  N   N1        1.0  0.42985  0.80626  0.15594  1.0000
  N   N2        1.0  0.57014  0.19373  0.84406  1.0000
  N   N3        1.0  0.42597  0.16705  0.16804  1.0000
  N   N4        1.0  0.57403  0.83294  0.83197  1.0000
  N   N5        1.0  0.04171  0.55599  0.74660  1.0000
  N   N6        1.0  0.95830  0.44401  0.25340  1.0000
  O   O1        1.0  0.20248  0.03336  0.20565  1.0000
  O   O2        1.0  0.79750  0.96664  0.79434  1.0000
  O   O3        1.0  0.25132  0.91811  0.38891  1.0000
  O   O4        1.0  0.74867  0.08190  0.61109  1.0000
  O   O5        1.0  0.63837  0.95817  0.06541  1.0000
  O   O6        1.0  0.36163  0.04182  0.93460  1.0000
  O   O7        1.0  0.74144  0.89457  0.25166  1.0000
  O   O8        1.0  0.25856  0.10542  0.74835  1.0000
  O   O9        1.0  0.69101  0.31377  0.50465  1.0000
  O   O10       1.0  0.30899  0.68625  0.49534  1.0000
  O   O11       1.0  0.01438  0.67319  0.72849  1.0000
  O   O12       1.0  0.98564  0.32682  0.27151  1.0000
  O   O13       1.0  0.13611  0.48832  0.82692  1.0000
  O   O14       1.0  0.86388  0.51168  0.17309  1.0000
