data_image0
_chemical_formula_structural       Co4H24C30O18
_chemical_formula_sum              "Co4 H24 C30 O18"
_cell_length_a       7.17723
_cell_length_b       11.0669
_cell_length_c       10.9822
_cell_angle_alpha    90.0233
_cell_angle_beta     107.971
_cell_angle_gamma    106.242

_space_group_name_H-M_alt    "P 1"
_space_group_IT_number       1

loop_
  _space_group_symop_operation_xyz
  'x, y, z'

loop_
  _atom_site_type_symbol
  _atom_site_label
  _atom_site_symmetry_multiplicity
  _atom_site_fract_x
  _atom_site_fract_y
  _atom_site_fract_z
  _atom_site_occupancy
  Co  Co1       1.0  0.62190  0.41886  0.09521  1.0000
  Co  Co2       1.0  0.37667  0.58004  0.90426  1.0000
  Co  Co3       1.0  0.09826  0.41828  0.09071  1.0000
  Co  Co4       1.0  0.90076  0.58212  0.90813  1.0000
  H   H1        1.0  0.74681  0.34950  0.92876  1.0000
  H   H2        1.0  0.25001  0.65225  0.07443  1.0000
  H   H3        1.0  0.35704  0.31289  0.21986  1.0000
  H   H4        1.0  0.64044  0.68624  0.77696  1.0000
  H   H5        1.0  0.45468  0.46717  0.26681  1.0000
  H   H6        1.0  0.54723  0.53270  0.73030  1.0000
  H   H7        1.0  0.72487  0.21673  0.14000  1.0000
  H   H8        1.0  0.27495  0.78250  0.85886  1.0000
  H   H9        1.0  0.50710  0.18195  0.16325  1.0000
  H   H10       1.0  0.49062  0.81616  0.83283  1.0000
  H   H11       1.0  0.46730  0.26872  0.76053  1.0000
  H   H12       1.0  0.53509  0.73129  0.24098  1.0000
  H   H13       1.0  0.43192  0.07965  0.62576  1.0000
  H   H14       1.0  0.57221  0.92022  0.37672  1.0000
  H   H15       1.0  0.96298  0.05926  0.88086  1.0000
  H   H16       1.0  0.03745  0.94085  0.11908  1.0000
  H   H17       1.0  0.46658  0.89216  0.59313  1.0000
  H   H18       1.0  0.53442  0.10703  0.40680  1.0000
  H   H19       1.0  0.39923  0.71585  0.43161  1.0000
  H   H20       1.0  0.59971  0.28251  0.56872  1.0000
  H   H21       1.0  0.76658  0.59654  0.40826  1.0000
  H   H22       1.0  0.23284  0.40394  0.59353  1.0000
  H   H23       1.0  0.82455  0.77838  0.55879  1.0000
  H   H24       1.0  0.17688  0.22298  0.44214  1.0000
  C   C1        1.0  0.22183  0.29197  0.90107  1.0000
  C   C2        1.0  0.77812  0.70824  0.09850  1.0000
  C   C3        1.0  0.21349  0.17727  0.82690  1.0000
  C   C4        1.0  0.78764  0.82279  0.17367  1.0000
  C   C5        1.0  0.35083  0.18033  0.75890  1.0000
  C   C6        1.0  0.65141  0.81968  0.24246  1.0000
  C   C7        1.0  0.33197  0.07338  0.68425  1.0000
  C   C8        1.0  0.67100  0.92660  0.31742  1.0000
  C   C9        1.0  0.18214  0.95827  0.67894  1.0000
  C   C10       1.0  0.82002  0.04190  0.32200  1.0000
  C   C11       1.0  0.05533  0.95374  0.75670  1.0000
  C   C12       1.0  0.94602  0.04647  0.24364  1.0000
  C   C13       1.0  0.06608  0.06299  0.82497  1.0000
  C   C14       1.0  0.93496  0.93708  0.17539  1.0000
  C   C15       1.0  0.92305  0.83157  0.78139  1.0000
  C   C16       1.0  0.07667  0.16875  0.21784  1.0000
  C   C17       1.0  0.15059  0.84927  0.58933  1.0000
  C   C18       1.0  0.85087  0.15086  0.41142  1.0000
  C   C19       1.0  0.31093  0.82969  0.55104  1.0000
  C   C20       1.0  0.68980  0.16972  0.44941  1.0000
  C   C21       1.0  0.27486  0.72931  0.46198  1.0000
  C   C22       1.0  0.72476  0.26958  0.53877  1.0000
  C   C23       1.0  0.07798  0.64456  0.40913  1.0000
  C   C24       1.0  0.92128  0.35463  0.59213  1.0000
  C   C25       1.0  0.91950  0.66213  0.44936  1.0000
  C   C26       1.0  0.08040  0.33791  0.55203  1.0000
  C   C27       1.0  0.95396  0.76332  0.53575  1.0000
  C   C28       1.0  0.04705  0.23723  0.46529  1.0000
  C   C29       1.0  0.02711  0.54347  0.30385  1.0000
  C   C30       1.0  0.97081  0.45613  0.69656  1.0000
  O   O1        1.0  0.38374  0.38903  0.92104  1.0000
  O   O2        1.0  0.61584  0.61144  0.07815  1.0000
  O   O3        1.0  0.07475  0.29142  0.94133  1.0000
  O   O4        1.0  0.92490  0.70919  0.05782  1.0000
  O   O5        1.0  0.01445  0.74994  0.82734  1.0000
  O   O6        1.0  0.98441  0.25001  0.17220  1.0000
  O   O7        1.0  0.73243  0.81672  0.75972  1.0000
  O   O8        1.0  0.26742  0.18429  0.23843  1.0000
  O   O9        1.0  0.16667  0.53613  0.25732  1.0000
  O   O10       1.0  0.83056  0.46405  0.74221  1.0000
  O   O11       1.0  0.84202  0.47230  0.26424  1.0000
  O   O12       1.0  0.15533  0.52820  0.73628  1.0000
  O   O13       1.0  0.80935  0.42195  0.99381  1.0000
  O   O14       1.0  0.19086  0.58080  0.00860  1.0000
  O   O15       1.0  0.40365  0.40578  0.19157  1.0000
  O   O16       1.0  0.59431  0.59408  0.80514  1.0000
  O   O17       1.0  0.58081  0.22100  0.10513  1.0000
  O   O18       1.0  0.41893  0.77809  0.89228  1.0000
