data_image0
_chemical_formula_structural       K4H12C12N16O24
_chemical_formula_sum              "K4 H12 C12 N16 O24"
_cell_length_a       7.81814
_cell_length_b       8.65834
_cell_length_c       11.645
_cell_angle_alpha    81.077
_cell_angle_beta     77.9377
_cell_angle_gamma    82.1226

_space_group_name_H-M_alt    "P 1"
_space_group_IT_number       1

loop_
  _space_group_symop_operation_xyz
  'x, y, z'

loop_
  _atom_site_type_symbol
  _atom_site_label
  _atom_site_symmetry_multiplicity
  _atom_site_fract_x
  _atom_site_fract_y
  _atom_site_fract_z
  _atom_site_occupancy
  K   K1        1.0  0.44478  0.64153  0.32208  1.0000
  K   K2        1.0  0.55522  0.35847  0.67792  1.0000
  K   K3        1.0  0.05543  0.35888  0.17755  1.0000
  K   K4        1.0  0.94457  0.64111  0.82246  1.0000
  H   H1        1.0  0.74111  0.95862  0.57686  1.0000
  H   H2        1.0  0.25889  0.04138  0.42314  1.0000
  H   H3        1.0  0.23285  0.88036  0.71033  1.0000
  H   H4        1.0  0.76714  0.11965  0.28967  1.0000
  H   H5        1.0  0.37971  0.74147  0.62616  1.0000
  H   H6        1.0  0.62029  0.25853  0.37384  1.0000
  H   H7        1.0  0.75864  0.04184  0.92274  1.0000
  H   H8        1.0  0.24137  0.95816  0.07726  1.0000
  H   H9        1.0  0.26754  0.11887  0.79021  1.0000
  H   H10       1.0  0.73246  0.88113  0.20979  1.0000
  H   H11       1.0  0.12088  0.25786  0.87432  1.0000
  H   H12       1.0  0.87912  0.74213  0.12568  1.0000
  C   C1        1.0  0.87741  0.72264  0.46220  1.0000
  C   C2        1.0  0.12258  0.27736  0.53780  1.0000
  C   C3        1.0  0.69602  0.74636  0.53044  1.0000
  C   C4        1.0  0.30397  0.25365  0.46955  1.0000
  C   C5        1.0  0.48361  0.93508  0.64620  1.0000
  C   C6        1.0  0.51639  0.06493  0.35380  1.0000
  C   C7        1.0  0.62303  0.27754  0.03789  1.0000
  C   C8        1.0  0.37697  0.72246  0.96211  1.0000
  C   C9        1.0  0.80436  0.25355  0.96967  1.0000
  C   C10       1.0  0.19565  0.74645  0.03033  1.0000
  C   C11       1.0  0.01653  0.06466  0.85395  1.0000
  C   C12       1.0  0.98348  0.93535  0.14605  1.0000
  N   N1        1.0  0.92324  0.61050  0.38318  1.0000
  N   N2        1.0  0.07675  0.38950  0.61682  1.0000
  N   N3        1.0  0.01418  0.79892  0.48315  1.0000
  N   N4        1.0  0.98582  0.20108  0.51685  1.0000
  N   N5        1.0  0.64922  0.88320  0.58139  1.0000
  N   N6        1.0  0.35077  0.11680  0.41862  1.0000
  N   N7        1.0  0.35400  0.84421  0.66204  1.0000
  N   N8        1.0  0.64600  0.15578  0.33796  1.0000
  N   N9        1.0  0.57714  0.39017  0.11655  1.0000
  N   N10       1.0  0.42286  0.60983  0.88345  1.0000
  N   N11       1.0  0.48620  0.20097  0.01737  1.0000
  N   N12       1.0  0.51380  0.79903  0.98264  1.0000
  N   N13       1.0  0.85081  0.11686  0.91848  1.0000
  N   N14       1.0  0.14919  0.88314  0.08152  1.0000
  N   N15       1.0  0.14644  0.15504  0.83855  1.0000
  N   N16       1.0  0.85356  0.84496  0.16145  1.0000
  O   O1        1.0  0.80402  0.55544  0.34926  1.0000
  O   O2        1.0  0.19597  0.44456  0.65074  1.0000
  O   O3        1.0  0.08295  0.56141  0.34909  1.0000
  O   O4        1.0  0.91705  0.43859  0.65091  1.0000
  O   O5        1.0  0.99621  0.84265  0.58374  1.0000
  O   O6        1.0  0.00378  0.15735  0.41625  1.0000
  O   O7        1.0  0.14534  0.82657  0.40360  1.0000
  O   O8        1.0  0.85465  0.17344  0.59640  1.0000
  O   O9        1.0  0.58863  0.64911  0.53852  1.0000
  O   O10       1.0  0.41137  0.35089  0.46148  1.0000
  O   O11       1.0  0.46755  0.06524  0.68361  1.0000
  O   O12       1.0  0.53245  0.93475  0.31639  1.0000
  O   O13       1.0  0.69625  0.44571  0.15021  1.0000
  O   O14       1.0  0.30375  0.55430  0.84979  1.0000
  O   O15       1.0  0.41740  0.43917  0.15055  1.0000
  O   O16       1.0  0.58261  0.56083  0.84945  1.0000
  O   O17       1.0  0.35537  0.17330  0.09719  1.0000
  O   O18       1.0  0.64463  0.82670  0.90282  1.0000
  O   O19       1.0  0.50379  0.15702  0.91688  1.0000
  O   O20       1.0  0.49621  0.84299  0.08312  1.0000
  O   O21       1.0  0.91206  0.35047  0.96179  1.0000
  O   O22       1.0  0.08794  0.64952  0.03821  1.0000
  O   O23       1.0  0.03238  0.93458  0.81639  1.0000
  O   O24       1.0  0.96761  0.06541  0.18361  1.0000
