data_image0
_chemical_formula_structural       Ag4H30C30N10O18
_chemical_formula_sum              "Ag4 H30 C30 N10 O18"
_cell_length_a       8.20276
_cell_length_b       11.2082
_cell_length_c       12.5714
_cell_angle_alpha    117.065
_cell_angle_beta     97.0044
_cell_angle_gamma    98.4726

_space_group_name_H-M_alt    "P 1"
_space_group_IT_number       1

loop_
  _space_group_symop_operation_xyz
  'x, y, z'

loop_
  _atom_site_type_symbol
  _atom_site_label
  _atom_site_symmetry_multiplicity
  _atom_site_fract_x
  _atom_site_fract_y
  _atom_site_fract_z
  _atom_site_occupancy
  Ag  Ag1       1.0  0.92996  0.04349  0.32520  1.0000
  Ag  Ag2       1.0  0.07004  0.95651  0.67480  1.0000
  Ag  Ag3       1.0  0.91463  0.67136  0.14318  1.0000
  Ag  Ag4       1.0  0.08537  0.32864  0.85682  1.0000
  H   H1        1.0  0.07200  0.89128  0.16210  1.0000
  H   H2        1.0  0.92800  0.10873  0.83791  1.0000
  H   H3        1.0  0.13860  0.85012  0.81379  1.0000
  H   H4        1.0  0.86141  0.14988  0.18621  1.0000
  H   H5        1.0  0.43888  0.19874  0.14782  1.0000
  H   H6        1.0  0.56112  0.80126  0.85218  1.0000
  H   H7        1.0  0.48085  0.39182  0.51568  1.0000
  H   H8        1.0  0.51915  0.60818  0.48432  1.0000
  H   H9        1.0  0.56943  0.26289  0.53487  1.0000
  H   H10       1.0  0.43057  0.73711  0.46513  1.0000
  H   H11       1.0  0.29696  0.15534  0.54431  1.0000
  H   H12       1.0  0.70303  0.84466  0.45569  1.0000
  H   H13       1.0  0.22261  0.29917  0.55250  1.0000
  H   H14       1.0  0.77739  0.70083  0.44751  1.0000
  H   H15       1.0  0.53225  0.34910  0.92417  1.0000
  H   H16       1.0  0.46775  0.65090  0.07583  1.0000
  H   H17       1.0  0.69296  0.25286  0.88570  1.0000
  H   H18       1.0  0.30704  0.74714  0.11430  1.0000
  H   H19       1.0  0.50488  0.07537  0.69495  1.0000
  H   H20       1.0  0.49513  0.92463  0.30506  1.0000
  H   H21       1.0  0.37911  0.19817  0.72045  1.0000
  H   H22       1.0  0.62090  0.80183  0.27955  1.0000
  H   H23       1.0  0.65150  0.56927  0.71218  1.0000
  H   H24       1.0  0.34850  0.43073  0.28782  1.0000
  H   H25       1.0  0.81708  0.47519  0.68579  1.0000
  H   H26       1.0  0.18292  0.52481  0.31421  1.0000
  H   H27       1.0  0.78697  0.44850  0.86022  1.0000
  H   H28       1.0  0.21303  0.55150  0.13978  1.0000
  H   H29       1.0  0.63172  0.54813  0.89022  1.0000
  H   H30       1.0  0.36828  0.45187  0.10977  1.0000
  C   C1        1.0  0.25908  0.05291  0.16894  1.0000
  C   C2        1.0  0.74092  0.94709  0.83106  1.0000
  C   C3        1.0  0.13450  0.93069  0.10886  1.0000
  C   C4        1.0  0.86550  0.06932  0.89113  1.0000
  C   C5        1.0  0.09011  0.85768  0.98120  1.0000
  C   C6        1.0  0.90989  0.14232  0.01880  1.0000
  C   C7        1.0  0.17065  0.90845  0.91333  1.0000
  C   C8        1.0  0.82935  0.09155  0.08667  1.0000
  C   C9        1.0  0.29386  0.03215  0.97339  1.0000
  C   C10       1.0  0.70614  0.96785  0.02661  1.0000
  C   C11       1.0  0.34179  0.10315  0.10140  1.0000
  C   C12       1.0  0.65821  0.89686  0.89860  1.0000
  C   C13       1.0  0.29780  0.13097  0.30297  1.0000
  C   C14       1.0  0.70220  0.86903  0.69703  1.0000
  C   C15       1.0  0.46212  0.28217  0.48909  1.0000
  C   C16       1.0  0.53788  0.71783  0.51091  1.0000
  C   C17       1.0  0.28954  0.22101  0.50143  1.0000
  C   C18       1.0  0.71046  0.77899  0.49857  1.0000
  C   C19       1.0  0.37174  0.09138  0.90397  1.0000
  C   C20       1.0  0.62826  0.90863  0.09603  1.0000
  C   C21       1.0  0.55865  0.24618  0.88533  1.0000
  C   C22       1.0  0.44134  0.75382  0.11468  1.0000
  C   C23       1.0  0.44130  0.14446  0.76142  1.0000
  C   C24       1.0  0.55871  0.85554  0.23858  1.0000
  C   C25       1.0  0.95621  0.73141  0.91887  1.0000
  C   C26       1.0  0.04380  0.26859  0.08113  1.0000
  C   C27       1.0  0.76956  0.55754  0.75349  1.0000
  C   C28       1.0  0.23043  0.44246  0.24651  1.0000
  C   C29       1.0  0.75718  0.54423  0.86878  1.0000
  C   C30       1.0  0.24282  0.45577  0.13122  1.0000
  N   N1        1.0  0.19437  0.13411  0.37379  1.0000
  N   N2        1.0  0.80563  0.86589  0.62621  1.0000
  N   N3        1.0  0.88617  0.66226  0.96688  1.0000
  N   N4        1.0  0.11383  0.33774  0.03312  1.0000
  N   N5        1.0  0.31591  0.06293  0.79217  1.0000
  N   N6        1.0  0.68409  0.93708  0.20783  1.0000
  N   N7        1.0  0.85330  0.17040  0.61079  1.0000
  N   N8        1.0  0.14671  0.82960  0.38921  1.0000
  N   N9        1.0  0.71790  0.49203  0.21785  1.0000
  N   N10       1.0  0.28210  0.50797  0.78215  1.0000
  O   O1        1.0  0.45634  0.20734  0.35689  1.0000
  O   O2        1.0  0.54365  0.79266  0.64312  1.0000
  O   O3        1.0  0.89682  0.68595  0.79899  1.0000
  O   O4        1.0  0.10318  0.31405  0.20101  1.0000
  O   O5        1.0  0.51631  0.18872  0.96533  1.0000
  O   O6        1.0  0.48368  0.81129  0.03467  1.0000
  O   O7        1.0  0.77087  0.10771  0.50146  1.0000
  O   O8        1.0  0.22913  0.89229  0.49854  1.0000
  O   O9        1.0  0.78140  0.23020  0.69806  1.0000
  O   O10       1.0  0.21860  0.76980  0.30194  1.0000
  O   O11       1.0  0.01105  0.17416  0.63462  1.0000
  O   O12       1.0  0.98895  0.82584  0.36537  1.0000
  O   O13       1.0  0.64119  0.57378  0.19798  1.0000
  O   O14       1.0  0.35881  0.42623  0.80202  1.0000
  O   O15       1.0  0.86602  0.48848  0.19570  1.0000
  O   O16       1.0  0.13397  0.51152  0.80429  1.0000
  O   O17       1.0  0.65109  0.41815  0.25855  1.0000
  O   O18       1.0  0.34891  0.58184  0.74144  1.0000
