data_image0
_chemical_formula_structural       Cd2H20C16Br4N8
_chemical_formula_sum              "Cd2 H20 C16 Br4 N8"
_cell_length_a       7.08967
_cell_length_b       7.07896
_cell_length_c       14.1205
_cell_angle_alpha    91.7275
_cell_angle_beta     103.539
_cell_angle_gamma    118.168

_space_group_name_H-M_alt    "P 1"
_space_group_IT_number       1

loop_
  _space_group_symop_operation_xyz
  'x, y, z'

loop_
  _atom_site_type_symbol
  _atom_site_label
  _atom_site_symmetry_multiplicity
  _atom_site_fract_x
  _atom_site_fract_y
  _atom_site_fract_z
  _atom_site_occupancy
  Cd  Cd1       1.0  0.37769  0.12758  0.25007  1.0000
  Cd  Cd2       1.0  0.62230  0.87242  0.74995  1.0000
  H   H1        1.0  0.85884  0.48448  0.18826  1.0000
  H   H2        1.0  0.79641  0.67060  0.31193  1.0000
  H   H3        1.0  0.14115  0.51551  0.81175  1.0000
  H   H4        1.0  0.20360  0.32938  0.68806  1.0000
  H   H5        1.0  0.21197  0.05840  0.99971  1.0000
  H   H6        1.0  0.55816  0.21134  0.50053  1.0000
  H   H7        1.0  0.78801  0.94159  0.00031  1.0000
  H   H8        1.0  0.44186  0.78870  0.49949  1.0000
  H   H9        1.0  0.49704  0.26765  0.88595  1.0000
  H   H10       1.0  0.88139  0.61025  0.61423  1.0000
  H   H11       1.0  0.50289  0.73231  0.11405  1.0000
  H   H12       1.0  0.11864  0.38978  0.38577  1.0000
  H   H13       1.0  0.03583  0.70409  0.06075  1.0000
  H   H14       1.0  0.14313  0.97489  0.43930  1.0000
  H   H15       1.0  0.96412  0.29589  0.93924  1.0000
  H   H16       1.0  0.85688  0.02511  0.56068  1.0000
  H   H17       1.0  0.88848  0.60828  0.93265  1.0000
  H   H18       1.0  0.17512  0.95554  0.56744  1.0000
  H   H19       1.0  0.11144  0.39167  0.06734  1.0000
  H   H20       1.0  0.82491  0.04448  0.43254  1.0000
  C   C1        1.0  0.71699  0.39620  0.12356  1.0000
  C   C2        1.0  0.77267  0.59314  0.37663  1.0000
  C   C3        1.0  0.28297  0.60378  0.87645  1.0000
  C   C4        1.0  0.22734  0.40688  0.62337  1.0000
  C   C5        1.0  0.38752  0.17837  0.02302  1.0000
  C   C6        1.0  0.65495  0.36378  0.47720  1.0000
  C   C7        1.0  0.61243  0.82160  0.97699  1.0000
  C   C8        1.0  0.34508  0.63624  0.52280  1.0000
  C   C9        1.0  0.52507  0.28095  0.96533  1.0000
  C   C10       1.0  0.81531  0.55906  0.53486  1.0000
  C   C11       1.0  0.47490  0.71903  0.03468  1.0000
  C   C12       1.0  0.18474  0.44097  0.46514  1.0000
  C   C13       1.0  0.93437  0.55900  0.00359  1.0000
  C   C14       1.0  0.05524  0.93056  0.49646  1.0000
  C   C15       1.0  0.06558  0.44096  0.99640  1.0000
  C   C16       1.0  0.94478  0.06946  0.50353  1.0000
  Br  Br1       1.0  0.97977  0.07363  0.22249  1.0000
  Br  Br2       1.0  0.35274  0.75701  0.27749  1.0000
  Br  Br3       1.0  0.02025  0.92639  0.77751  1.0000
  Br  Br4       1.0  0.64746  0.24304  0.72251  1.0000
  N   N1        1.0  0.50876  0.25165  0.12141  1.0000
  N   N2        1.0  0.63011  0.38689  0.37880  1.0000
  N   N3        1.0  0.49124  0.74836  0.87861  1.0000
  N   N4        1.0  0.36990  0.61311  0.62120  1.0000
  N   N5        1.0  0.73215  0.41868  0.03018  1.0000
  N   N6        1.0  0.88844  0.70155  0.46998  1.0000
  N   N7        1.0  0.26782  0.58129  0.96982  1.0000
  N   N8        1.0  0.11158  0.29847  0.53002  1.0000
