data_image0
_chemical_formula_structural       Cd2H16C24S4N8
_chemical_formula_sum              "Cd2 H16 C24 S4 N8"
_cell_length_a       8.30611
_cell_length_b       8.30614
_cell_length_c       10.3285
_cell_angle_alpha    76.5541
_cell_angle_beta     76.5537
_cell_angle_gamma    90.3208

_space_group_name_H-M_alt    "P 1"
_space_group_IT_number       1

loop_
  _space_group_symop_operation_xyz
  'x, y, z'

loop_
  _atom_site_type_symbol
  _atom_site_label
  _atom_site_symmetry_multiplicity
  _atom_site_fract_x
  _atom_site_fract_y
  _atom_site_fract_z
  _atom_site_occupancy
  Cd  Cd1       1.0  0.08166  0.91834  0.25000  1.0000
  Cd  Cd2       1.0  0.91834  0.08166  0.75000  1.0000
  H   H1        1.0  0.18778  0.61457  0.11731  1.0000
  H   H2        1.0  0.61457  0.18779  0.61731  1.0000
  H   H3        1.0  0.81221  0.38543  0.88269  1.0000
  H   H4        1.0  0.38543  0.81221  0.38269  1.0000
  H   H5        1.0  0.39131  0.39348  0.11487  1.0000
  H   H6        1.0  0.39349  0.39132  0.61487  1.0000
  H   H7        1.0  0.60868  0.60652  0.88512  1.0000
  H   H8        1.0  0.60652  0.60868  0.38512  1.0000
  H   H9        1.0  0.47467  0.15191  0.25691  1.0000
  H   H10       1.0  0.15191  0.47467  0.75691  1.0000
  H   H11       1.0  0.52534  0.84809  0.74309  1.0000
  H   H12       1.0  0.84809  0.52533  0.24309  1.0000
  H   H13       1.0  0.69377  0.94869  0.25785  1.0000
  H   H14       1.0  0.94868  0.69377  0.75785  1.0000
  H   H15       1.0  0.30623  0.05132  0.74215  1.0000
  H   H16       1.0  0.05131  0.30623  0.24215  1.0000
  C   C1        1.0  0.82716  0.85430  0.55211  1.0000
  C   C2        1.0  0.85428  0.82716  0.05210  1.0000
  C   C3        1.0  0.17284  0.14571  0.44790  1.0000
  C   C4        1.0  0.14571  0.17284  0.94790  1.0000
  C   C5        1.0  0.28196  0.60586  0.17648  1.0000
  C   C6        1.0  0.60588  0.28195  0.67648  1.0000
  C   C7        1.0  0.71806  0.39413  0.82352  1.0000
  C   C8        1.0  0.39413  0.71805  0.32351  1.0000
  C   C9        1.0  0.39619  0.48429  0.17529  1.0000
  C   C10       1.0  0.48428  0.39620  0.67528  1.0000
  C   C11       1.0  0.60380  0.51572  0.82472  1.0000
  C   C12       1.0  0.51572  0.60381  0.32472  1.0000
  C   C13       1.0  0.51745  0.48255  0.24999  1.0000
  C   C14       1.0  0.48255  0.51745  0.75000  1.0000
  C   C15       1.0  0.64284  0.35716  0.25000  1.0000
  C   C16       1.0  0.35717  0.64284  0.75000  1.0000
  C   C17       1.0  0.60135  0.19253  0.25194  1.0000
  C   C18       1.0  0.19251  0.60136  0.75194  1.0000
  C   C19       1.0  0.39863  0.80748  0.74806  1.0000
  C   C20       1.0  0.80747  0.39865  0.24806  1.0000
  C   C21       1.0  0.72282  0.07820  0.25351  1.0000
  C   C22       1.0  0.07821  0.72281  0.75351  1.0000
  C   C23       1.0  0.27719  0.92179  0.74649  1.0000
  C   C24       1.0  0.92181  0.27718  0.24649  1.0000
  S   S1        1.0  0.87077  0.70611  0.47309  1.0000
  S   S2        1.0  0.70611  0.87078  0.97309  1.0000
  S   S3        1.0  0.12922  0.29389  0.52692  1.0000
  S   S4        1.0  0.29389  0.12922  0.02692  1.0000
  N   N1        1.0  0.79508  0.96150  0.61080  1.0000
  N   N2        1.0  0.96151  0.79507  0.11081  1.0000
  N   N3        1.0  0.20493  0.03850  0.38920  1.0000
  N   N4        1.0  0.03850  0.20492  0.88920  1.0000
  N   N5        1.0  0.27999  0.72001  0.25000  1.0000
  N   N6        1.0  0.72001  0.27999  0.75000  1.0000
  N   N7        1.0  0.88074  0.11926  0.25000  1.0000
  N   N8        1.0  0.11926  0.88074  0.75000  1.0000
