data_image0
_chemical_formula_structural       Er2H50C68N8O12
_chemical_formula_sum              "Er2 H50 C68 N8 O12"
_cell_length_a       11.6624
_cell_length_b       12.0816
_cell_length_c       12.7788
_cell_angle_alpha    106.791
_cell_angle_beta     111.37
_cell_angle_gamma    104.565

_space_group_name_H-M_alt    "P 1"
_space_group_IT_number       1

loop_
  _space_group_symop_operation_xyz
  'x, y, z'

loop_
  _atom_site_type_symbol
  _atom_site_label
  _atom_site_symmetry_multiplicity
  _atom_site_fract_x
  _atom_site_fract_y
  _atom_site_fract_z
  _atom_site_occupancy
  Er  Er1       1.0  0.45626  0.01268  0.12248  1.0000
  Er  Er2       1.0  0.54373  0.98732  0.87751  1.0000
  H   H1        1.0  0.44291  0.33853  0.42842  1.0000
  H   H2        1.0  0.55708  0.66148  0.57158  1.0000
  H   H3        1.0  0.47508  0.14120  0.53189  1.0000
  H   H4        1.0  0.52491  0.85880  0.46811  1.0000
  H   H5        1.0  0.57106  0.48508  0.60777  1.0000
  H   H6        1.0  0.42893  0.51492  0.39223  1.0000
  H   H7        1.0  0.60083  0.64934  0.79660  1.0000
  H   H8        1.0  0.39917  0.35065  0.20339  1.0000
  H   H9        1.0  0.57989  0.59057  0.96260  1.0000
  H   H10       1.0  0.42011  0.40943  0.03740  1.0000
  H   H11       1.0  0.51569  0.36589  0.93101  1.0000
  H   H12       1.0  0.48431  0.63412  0.06899  1.0000
  H   H13       1.0  0.41416  0.20222  0.97794  1.0000
  H   H14       1.0  0.58583  0.79778  0.02206  1.0000
  H   H15       1.0  0.24196  0.24653  0.82608  1.0000
  H   H16       1.0  0.75804  0.75347  0.17392  1.0000
  H   H17       1.0  0.99731  0.10858  0.73366  1.0000
  H   H18       1.0  0.00269  0.89142  0.26634  1.0000
  H   H19       1.0  0.82324  0.92312  0.71594  1.0000
  H   H20       1.0  0.17676  0.07688  0.28406  1.0000
  H   H21       1.0  0.76743  0.74733  0.77542  1.0000
  H   H22       1.0  0.23257  0.25267  0.22458  1.0000
  H   H23       1.0  0.84264  0.62773  0.89942  1.0000
  H   H24       1.0  0.15735  0.37226  0.10058  1.0000
  H   H25       1.0  0.03356  0.60960  0.05817  1.0000
  H   H26       1.0  0.96644  0.39039  0.94182  1.0000
  H   H27       1.0  0.26884  0.76542  0.14269  1.0000
  H   H28       1.0  0.73116  0.23459  0.85732  1.0000
  H   H29       1.0  0.75569  0.16128  0.31173  1.0000
  H   H30       1.0  0.24431  0.83872  0.68827  1.0000
  H   H31       1.0  0.67600  0.04938  0.33677  1.0000
  H   H32       1.0  0.32400  0.95062  0.66323  1.0000
  H   H33       1.0  0.66922  0.18925  0.12580  1.0000
  H   H34       1.0  0.33078  0.81075  0.87420  1.0000
  H   H35       1.0  0.67987  0.35864  0.08421  1.0000
  H   H36       1.0  0.32014  0.64136  0.91579  1.0000
  H   H37       1.0  0.81666  0.57351  0.11592  1.0000
  H   H38       1.0  0.18336  0.42649  0.88408  1.0000
  H   H39       1.0  0.05601  0.68620  0.28806  1.0000
  H   H40       1.0  0.94400  0.31380  0.71194  1.0000
  H   H41       1.0  0.24256  0.68768  0.46292  1.0000
  H   H42       1.0  0.75745  0.31232  0.53708  1.0000
  H   H43       1.0  0.33227  0.58007  0.58964  1.0000
  H   H44       1.0  0.66774  0.41993  0.41037  1.0000
  H   H45       1.0  0.30203  0.38921  0.63109  1.0000
  H   H46       1.0  0.69797  0.61080  0.36892  1.0000
  H   H47       1.0  0.15406  0.17060  0.58062  1.0000
  H   H48       1.0  0.84594  0.82940  0.41938  1.0000
  H   H49       1.0  0.91049  0.08245  0.42085  1.0000
  H   H50       1.0  0.08952  0.91755  0.57915  1.0000
  C   C1        1.0  0.42936  0.15630  0.31612  1.0000
  C   C2        1.0  0.57064  0.84370  0.68388  1.0000
  C   C3        1.0  0.44782  0.25033  0.43127  1.0000
  C   C4        1.0  0.55218  0.74967  0.56873  1.0000
  C   C5        1.0  0.47603  0.23295  0.53574  1.0000
  C   C6        1.0  0.52396  0.76705  0.46426  1.0000
  C   C7        1.0  0.50686  0.32972  0.65326  1.0000
  C   C8        1.0  0.49314  0.67027  0.34674  1.0000
  C   C9        1.0  0.55269  0.45848  0.67667  1.0000
  C   C10       1.0  0.44731  0.54152  0.32333  1.0000
  C   C11       1.0  0.57512  0.55165  0.78482  1.0000
  C   C12       1.0  0.42489  0.44835  0.21518  1.0000
  C   C13       1.0  0.56038  0.51835  0.87669  1.0000
  C   C14       1.0  0.43962  0.48165  0.12331  1.0000
  C   C15       1.0  0.52300  0.39293  0.85871  1.0000
  C   C16       1.0  0.47701  0.60707  0.14129  1.0000
  C   C17       1.0  0.49261  0.29781  0.74715  1.0000
  C   C18       1.0  0.50739  0.70218  0.25285  1.0000
  C   C19       1.0  0.44275  0.16402  0.73332  1.0000
  C   C20       1.0  0.55725  0.83598  0.26668  1.0000
  C   C21       1.0  0.30667  0.14647  0.93652  1.0000
  C   C22       1.0  0.69333  0.85353  0.06348  1.0000
  C   C23       1.0  0.20988  0.17011  0.85158  1.0000
  C   C24       1.0  0.79011  0.82989  0.14842  1.0000
  C   C25       1.0  0.07557  0.09400  0.80038  1.0000
  C   C26       1.0  0.92442  0.90600  0.19962  1.0000
  C   C27       1.0  0.03866  0.99370  0.83332  1.0000
  C   C28       1.0  0.96133  0.00630  0.16668  1.0000
  C   C29       1.0  0.90226  0.90864  0.78181  1.0000
  C   C30       1.0  0.09773  0.09136  0.21818  1.0000
  C   C31       1.0  0.87154  0.81113  0.81423  1.0000
  C   C32       1.0  0.12845  0.18886  0.18577  1.0000
  C   C33       1.0  0.97419  0.79225  0.90189  1.0000
  C   C34       1.0  0.02580  0.20774  0.09811  1.0000
  C   C35       1.0  0.94640  0.69381  0.93932  1.0000
  C   C36       1.0  0.05359  0.30618  0.06067  1.0000
  C   C37       1.0  0.05126  0.68371  0.02639  1.0000
  C   C38       1.0  0.94873  0.31629  0.97361  1.0000
  C   C39       1.0  0.18331  0.77092  0.07473  1.0000
  C   C40       1.0  0.81669  0.22908  0.92527  1.0000
  C   C41       1.0  0.11092  0.87543  0.95541  1.0000
  C   C42       1.0  0.88907  0.12457  0.04459  1.0000
  C   C43       1.0  0.14367  0.97698  0.91940  1.0000
  C   C44       1.0  0.85632  0.02302  0.08060  1.0000
  C   C45       1.0  0.78334  0.41105  0.15876  1.0000
  C   C46       1.0  0.21667  0.58895  0.84124  1.0000
  C   C47       1.0  0.86058  0.53142  0.17640  1.0000
  C   C48       1.0  0.13943  0.46858  0.82360  1.0000
  C   C49       1.0  0.99172  0.59263  0.27028  1.0000
  C   C50       1.0  0.00829  0.40737  0.72972  1.0000
  C   C51       1.0  0.04463  0.53333  0.34506  1.0000
  C   C52       1.0  0.95538  0.46668  0.65495  1.0000
  C   C53       1.0  0.17998  0.59279  0.44335  1.0000
  C   C54       1.0  0.82003  0.40721  0.55666  1.0000
  C   C55       1.0  0.22975  0.53319  0.51336  1.0000
  C   C56       1.0  0.77025  0.46681  0.48665  1.0000
  C   C57       1.0  0.14766  0.40955  0.48985  1.0000
  C   C58       1.0  0.85234  0.59045  0.51017  1.0000
  C   C59       1.0  0.19793  0.34429  0.55850  1.0000
  C   C60       1.0  0.80207  0.65571  0.44151  1.0000
  C   C61       1.0  0.11563  0.22476  0.53233  1.0000
  C   C62       1.0  0.88437  0.77524  0.46767  1.0000
  C   C63       1.0  0.98091  0.17446  0.44095  1.0000
  C   C64       1.0  0.01909  0.82554  0.55905  1.0000
  C   C65       1.0  0.01097  0.34807  0.39498  1.0000
  C   C66       1.0  0.98903  0.65194  0.60502  1.0000
  C   C67       1.0  0.95799  0.41097  0.31969  1.0000
  C   C68       1.0  0.04201  0.58903  0.68031  1.0000
  N   N1        1.0  0.27506  0.05309  0.96965  1.0000
  N   N2        1.0  0.72494  0.94691  0.03035  1.0000
  N   N3        1.0  0.21294  0.86346  0.03988  1.0000
  N   N4        1.0  0.78705  0.13654  0.96012  1.0000
  N   N5        1.0  0.82928  0.35211  0.22714  1.0000
  N   N6        1.0  0.17073  0.64789  0.77286  1.0000
  N   N7        1.0  0.92991  0.23333  0.37460  1.0000
  N   N8        1.0  0.07010  0.76667  0.62540  1.0000
  O   O1        1.0  0.43703  0.19564  0.23417  1.0000
  O   O2        1.0  0.56296  0.80436  0.76582  1.0000
  O   O3        1.0  0.41027  0.04302  0.29983  1.0000
  O   O4        1.0  0.58974  0.95699  0.70017  1.0000
  O   O5        1.0  0.33830  0.08086  0.63635  1.0000
  O   O6        1.0  0.66170  0.91914  0.36365  1.0000
  O   O7        1.0  0.51151  0.14850  0.82794  1.0000
  O   O8        1.0  0.48849  0.85150  0.17206  1.0000
  O   O9        1.0  0.66547  0.11135  0.29978  1.0000
  O   O10       1.0  0.33453  0.88865  0.70021  1.0000
  O   O11       1.0  0.58178  0.12107  0.06231  1.0000
  O   O12       1.0  0.41822  0.87893  0.93768  1.0000
