data_image0
_chemical_formula_structural       Co2H52C60N8O14
_chemical_formula_sum              "Co2 H52 C60 N8 O14"
_cell_length_a       10.0499
_cell_length_b       11.778
_cell_length_c       12.3015
_cell_angle_alpha    93.0587
_cell_angle_beta     111.82
_cell_angle_gamma    93.2744

_space_group_name_H-M_alt    "P 1"
_space_group_IT_number       1

loop_
  _space_group_symop_operation_xyz
  'x, y, z'

loop_
  _atom_site_type_symbol
  _atom_site_label
  _atom_site_symmetry_multiplicity
  _atom_site_fract_x
  _atom_site_fract_y
  _atom_site_fract_z
  _atom_site_occupancy
  Co  Co1       1.0  0.05631  0.63760  0.85874  1.0000
  Co  Co2       1.0  0.94370  0.36240  0.14127  1.0000
  H   H1        1.0  0.31096  0.63773  0.10649  1.0000
  H   H2        1.0  0.68904  0.36227  0.89352  1.0000
  H   H3        1.0  0.90120  0.76163  0.02385  1.0000
  H   H4        1.0  0.09881  0.23838  0.97616  1.0000
  H   H5        1.0  0.03651  0.76413  0.26634  1.0000
  H   H6        1.0  0.96351  0.23588  0.73367  1.0000
  H   H7        1.0  0.48084  0.76970  0.29410  1.0000
  H   H8        1.0  0.51917  0.23030  0.70592  1.0000
  H   H9        1.0  0.66577  0.74376  0.48780  1.0000
  H   H10       1.0  0.33424  0.25623  0.51222  1.0000
  H   H11       1.0  0.34195  0.57241  0.58853  1.0000
  H   H12       1.0  0.65805  0.42756  0.41147  1.0000
  H   H13       1.0  0.15571  0.60101  0.39334  1.0000
  H   H14       1.0  0.84429  0.39898  0.60666  1.0000
  H   H15       1.0  0.81524  0.64201  0.61368  1.0000
  H   H16       1.0  0.18476  0.35798  0.38632  1.0000
  H   H17       1.0  0.77437  0.58665  0.93599  1.0000
  H   H18       1.0  0.22565  0.41334  0.06402  1.0000
  H   H19       1.0  0.50357  0.62109  0.77140  1.0000
  H   H20       1.0  0.49643  0.37889  0.22861  1.0000
  H   H21       1.0  0.12998  0.26264  0.65074  1.0000
  H   H22       1.0  0.87000  0.73737  0.34925  1.0000
  H   H23       1.0  0.27833  0.09283  0.68924  1.0000
  H   H24       1.0  0.72165  0.90718  0.31074  1.0000
  H   H25       1.0  0.55453  0.26289  0.02533  1.0000
  H   H26       1.0  0.44545  0.73710  0.97466  1.0000
  H   H27       1.0  0.40394  0.42454  0.98621  1.0000
  H   H28       1.0  0.59605  0.57546  0.01377  1.0000
  H   H29       1.0  0.61285  0.06358  0.05116  1.0000
  H   H30       1.0  0.38714  0.93643  0.94883  1.0000
  H   H31       1.0  0.69968  0.15584  0.98226  1.0000
  H   H32       1.0  0.30031  0.84417  0.01773  1.0000
  H   H33       1.0  0.80628  0.96450  0.02848  1.0000
  H   H34       1.0  0.19371  0.03551  0.97152  1.0000
  H   H35       1.0  0.64337  0.89787  0.91984  1.0000
  H   H36       1.0  0.35662  0.10214  0.08016  1.0000
  H   H37       1.0  0.93133  0.03726  0.75032  1.0000
  H   H38       1.0  0.06868  0.96274  0.24967  1.0000
  H   H39       1.0  0.92349  0.89388  0.68997  1.0000
  H   H40       1.0  0.07651  0.10611  0.31003  1.0000
  H   H41       1.0  0.72645  0.84540  0.77115  1.0000
  H   H42       1.0  0.27354  0.15460  0.22884  1.0000
  H   H43       1.0  0.90556  0.88124  0.87535  1.0000
  H   H44       1.0  0.09443  0.11876  0.12465  1.0000
  H   H45       1.0  0.52917  0.03361  0.43105  1.0000
  H   H46       1.0  0.47084  0.96640  0.56895  1.0000
  H   H47       1.0  0.55303  0.15246  0.27782  1.0000
  H   H48       1.0  0.44698  0.84756  0.72219  1.0000
  H   H49       1.0  0.01172  0.18342  0.45335  1.0000
  H   H50       1.0  0.98829  0.81658  0.54664  1.0000
  H   H51       1.0  0.99218  0.06581  0.60766  1.0000
  H   H52       1.0  0.00783  0.93419  0.39233  1.0000
  C   C1        1.0  0.21800  0.67381  0.11460  1.0000
  C   C2        1.0  0.78200  0.32619  0.88540  1.0000
  C   C3        1.0  0.00699  0.73760  0.07627  1.0000
  C   C4        1.0  0.99302  0.26241  0.92374  1.0000
  C   C5        1.0  0.07124  0.73926  0.19594  1.0000
  C   C6        1.0  0.92877  0.26075  0.80407  1.0000
  C   C7        1.0  0.30903  0.68472  0.33222  1.0000
  C   C8        1.0  0.69097  0.31527  0.66779  1.0000
  C   C9        1.0  0.45165  0.72448  0.35783  1.0000
  C   C10       1.0  0.54836  0.27551  0.64218  1.0000
  C   C11       1.0  0.55559  0.70892  0.46660  1.0000
  C   C12       1.0  0.44442  0.29106  0.53342  1.0000
  C   C13       1.0  0.51665  0.65269  0.54899  1.0000
  C   C14       1.0  0.48335  0.34729  0.45101  1.0000
  C   C15       1.0  0.37288  0.61529  0.52408  1.0000
  C   C16       1.0  0.62712  0.38469  0.47592  1.0000
  C   C17       1.0  0.26804  0.63167  0.41520  1.0000
  C   C18       1.0  0.73196  0.36831  0.58480  1.0000
  C   C19       1.0  0.76832  0.63284  0.67928  1.0000
  C   C20       1.0  0.23168  0.36715  0.32073  1.0000
  C   C21       1.0  0.74214  0.60406  0.84433  1.0000
  C   C22       1.0  0.25787  0.39593  0.15568  1.0000
  C   C23       1.0  0.60732  0.61661  0.76327  1.0000
  C   C24       1.0  0.39269  0.38338  0.23674  1.0000
  C   C25       1.0  0.15972  0.44834  0.79793  1.0000
  C   C26       1.0  0.84027  0.55167  0.20206  1.0000
  C   C27       1.0  0.25603  0.35352  0.81676  1.0000
  C   C28       1.0  0.74396  0.64648  0.18322  1.0000
  C   C29       1.0  0.22251  0.26015  0.73258  1.0000
  C   C30       1.0  0.77747  0.73986  0.26740  1.0000
  C   C31       1.0  0.30366  0.16637  0.75339  1.0000
  C   C32       1.0  0.69632  0.83363  0.24659  1.0000
  C   C33       1.0  0.42492  0.16681  0.85856  1.0000
  C   C34       1.0  0.57506  0.83319  0.14142  1.0000
  C   C35       1.0  0.46200  0.26034  0.94262  1.0000
  C   C36       1.0  0.53798  0.73966  0.05736  1.0000
  C   C37       1.0  0.37648  0.35201  0.92087  1.0000
  C   C38       1.0  0.62351  0.64799  0.07911  1.0000
  C   C39       1.0  0.63486  0.07455  0.97097  1.0000
  C   C40       1.0  0.36513  0.92546  0.02902  1.0000
  C   C41       1.0  0.71461  0.97791  0.94684  1.0000
  C   C42       1.0  0.28539  0.02210  0.05315  1.0000
  C   C43       1.0  0.86170  0.95786  0.71448  1.0000
  C   C44       1.0  0.13830  0.04214  0.28552  1.0000
  C   C45       1.0  0.81263  0.91549  0.80788  1.0000
  C   C46       1.0  0.18736  0.08451  0.19212  1.0000
  C   C47       1.0  0.75881  0.04398  0.53177  1.0000
  C   C48       1.0  0.24120  0.95602  0.46824  1.0000
  C   C49       1.0  0.63497  0.06746  0.43702  1.0000
  C   C50       1.0  0.36504  0.93255  0.56299  1.0000
  C   C51       1.0  0.64838  0.13375  0.35131  1.0000
  C   C52       1.0  0.35163  0.86626  0.64870  1.0000
  C   C53       1.0  0.78368  0.17673  0.35549  1.0000
  C   C54       1.0  0.21632  0.82329  0.64452  1.0000
  C   C55       1.0  0.90593  0.15110  0.44907  1.0000
  C   C56       1.0  0.09408  0.84891  0.55094  1.0000
  C   C57       1.0  0.89490  0.08578  0.53711  1.0000
  C   C58       1.0  0.10511  0.91422  0.46289  1.0000
  C   C59       1.0  0.79221  0.24872  0.26149  1.0000
  C   C60       1.0  0.20780  0.75128  0.73851  1.0000
  N   N1        1.0  0.09888  0.69571  0.02598  1.0000
  N   N2        1.0  0.90111  0.30430  0.97402  1.0000
  N   N3        1.0  0.20477  0.69916  0.21914  1.0000
  N   N4        1.0  0.79524  0.30084  0.78087  1.0000
  N   N5        1.0  0.62536  0.63488  0.65860  1.0000
  N   N6        1.0  0.37465  0.36509  0.34141  1.0000
  N   N7        1.0  0.84159  0.61524  0.79102  1.0000
  N   N8        1.0  0.15842  0.38476  0.20899  1.0000
  O   O1        1.0  0.07134  0.46487  0.69831  1.0000
  O   O2        1.0  0.92866  0.53515  0.30168  1.0000
  O   O3        1.0  0.17194  0.50951  0.89374  1.0000
  O   O4        1.0  0.82804  0.49048  0.10625  1.0000
  O   O5        1.0  0.68389  0.29545  0.19931  1.0000
  O   O6        1.0  0.31612  0.70455  0.80069  1.0000
  O   O7        1.0  0.91629  0.25742  0.24958  1.0000
  O   O8        1.0  0.08371  0.74257  0.75042  1.0000
  O   O9        1.0  0.73725  0.97983  0.61402  1.0000
  O   O10       1.0  0.26276  0.02016  0.38597  1.0000
  O   O11       1.0  0.76305  0.00830  0.85662  1.0000
  O   O12       1.0  0.23695  0.99170  0.14337  1.0000
  O   O13       1.0  0.50203  0.07360  0.87035  1.0000
  O   O14       1.0  0.49796  0.92640  0.12963  1.0000
