data_image0
_chemical_formula_structural       Zn4H24C32Br4N28
_chemical_formula_sum              "Zn4 H24 C32 Br4 N28"
_cell_length_a       7.29657
_cell_length_b       8.51438
_cell_length_c       17.0843
_cell_angle_alpha    90
_cell_angle_beta     93.7209
_cell_angle_gamma    90.0001

_space_group_name_H-M_alt    "P 1"
_space_group_IT_number       1

loop_
  _space_group_symop_operation_xyz
  'x, y, z'

loop_
  _atom_site_type_symbol
  _atom_site_label
  _atom_site_symmetry_multiplicity
  _atom_site_fract_x
  _atom_site_fract_y
  _atom_site_fract_z
  _atom_site_occupancy
  Zn  Zn1       1.0  0.23871  0.80375  0.19675  1.0000
  Zn  Zn2       1.0  0.76129  0.30375  0.30325  1.0000
  Zn  Zn3       1.0  0.76129  0.19625  0.80325  1.0000
  Zn  Zn4       1.0  0.23871  0.69625  0.69675  1.0000
  H   H1        1.0  0.43440  0.76085  0.86147  1.0000
  H   H2        1.0  0.56560  0.26085  0.63853  1.0000
  H   H3        1.0  0.56560  0.23915  0.13853  1.0000
  H   H4        1.0  0.43440  0.73915  0.36147  1.0000
  H   H5        1.0  0.42829  0.93746  0.91668  1.0000
  H   H6        1.0  0.57171  0.43746  0.58332  1.0000
  H   H7        1.0  0.57170  0.06254  0.08332  1.0000
  H   H8        1.0  0.42830  0.56254  0.41668  1.0000
  H   H9        1.0  0.25892  0.21234  0.91473  1.0000
  H   H10       1.0  0.74108  0.71234  0.58527  1.0000
  H   H11       1.0  0.74108  0.78766  0.08527  1.0000
  H   H12       1.0  0.25892  0.28766  0.41473  1.0000
  H   H13       1.0  0.33040  0.47555  0.86222  1.0000
  H   H14       1.0  0.66960  0.97555  0.63778  1.0000
  H   H15       1.0  0.66960  0.52445  0.13777  1.0000
  H   H16       1.0  0.33040  0.02445  0.36222  1.0000
  H   H17       1.0  0.15225  0.40434  0.14189  1.0000
  H   H18       1.0  0.84775  0.90434  0.35811  1.0000
  H   H19       1.0  0.84775  0.59566  0.85811  1.0000
  H   H20       1.0  0.15225  0.09566  0.64189  1.0000
  H   H21       1.0  0.17033  0.17562  0.04986  1.0000
  H   H22       1.0  0.82967  0.67562  0.45014  1.0000
  H   H23       1.0  0.82967  0.82438  0.95014  1.0000
  H   H24       1.0  0.17033  0.32438  0.54986  1.0000
  C   C1        1.0  0.34803  0.83415  0.89707  1.0000
  C   C2        1.0  0.65197  0.33415  0.60293  1.0000
  C   C3        1.0  0.65197  0.16585  0.10293  1.0000
  C   C4        1.0  0.34803  0.66585  0.39707  1.0000
  C   C5        1.0  0.23145  0.56863  0.05254  1.0000
  C   C6        1.0  0.76855  0.06863  0.44746  1.0000
  C   C7        1.0  0.76855  0.43137  0.94746  1.0000
  C   C8        1.0  0.23145  0.93138  0.55254  1.0000
  C   C9        1.0  0.27796  0.58751  0.97403  1.0000
  C   C10       1.0  0.72204  0.08751  0.52597  1.0000
  C   C11       1.0  0.72204  0.41249  0.02597  1.0000
  C   C12       1.0  0.27796  0.91249  0.47403  1.0000
  C   C13       1.0  0.25320  0.31466  0.95260  1.0000
  C   C14       1.0  0.74680  0.81466  0.54740  1.0000
  C   C15       1.0  0.74680  0.68534  0.04740  1.0000
  C   C16       1.0  0.25320  0.18534  0.45260  1.0000
  C   C17       1.0  0.29177  0.46109  0.92234  1.0000
  C   C18       1.0  0.70823  0.96109  0.57766  1.0000
  C   C19       1.0  0.70823  0.53891  0.07766  1.0000
  C   C20       1.0  0.29177  0.03891  0.42234  1.0000
  C   C21       1.0  0.19090  0.41940  0.08195  1.0000
  C   C22       1.0  0.80910  0.91940  0.41805  1.0000
  C   C23       1.0  0.80910  0.58060  0.91805  1.0000
  C   C24       1.0  0.19090  0.08060  0.58195  1.0000
  C   C25       1.0  0.20236  0.29400  0.03058  1.0000
  C   C26       1.0  0.79764  0.79400  0.46942  1.0000
  C   C27       1.0  0.79764  0.70600  0.96942  1.0000
  C   C28       1.0  0.20236  0.20600  0.53058  1.0000
  C   C29       1.0  0.17977  0.88628  0.84938  1.0000
  C   C30       1.0  0.82023  0.38628  0.65062  1.0000
  C   C31       1.0  0.82023  0.11372  0.15062  1.0000
  C   C32       1.0  0.17977  0.61372  0.34938  1.0000
  Br  Br1       1.0  0.54158  0.87311  0.23795  1.0000
  Br  Br2       1.0  0.45842  0.37311  0.26205  1.0000
  Br  Br3       1.0  0.45842  0.12689  0.76205  1.0000
  Br  Br4       1.0  0.54158  0.62689  0.73795  1.0000
  N   N1        1.0  0.28220  0.82132  0.03403  1.0000
  N   N2        1.0  0.71780  0.32132  0.46597  1.0000
  N   N3        1.0  0.71780  0.17868  0.96597  1.0000
  N   N4        1.0  0.28220  0.67868  0.53403  1.0000
  N   N5        1.0  0.23805  0.71612  0.08612  1.0000
  N   N6        1.0  0.76195  0.21613  0.41388  1.0000
  N   N7        1.0  0.76196  0.28387  0.91388  1.0000
  N   N8        1.0  0.23805  0.78388  0.58612  1.0000
  N   N9        1.0  0.30555  0.74596  0.96667  1.0000
  N   N10       1.0  0.69445  0.24596  0.53333  1.0000
  N   N11       1.0  0.69445  0.25403  0.03333  1.0000
  N   N12       1.0  0.30555  0.75404  0.46667  1.0000
  N   N13       1.0  0.12865  0.84097  0.77504  1.0000
  N   N14       1.0  0.87135  0.34097  0.72496  1.0000
  N   N15       1.0  0.87135  0.15902  0.22496  1.0000
  N   N16       1.0  0.12865  0.65903  0.27504  1.0000
  N   N17       1.0  0.06386  0.99439  0.87348  1.0000
  N   N18       1.0  0.93614  0.49439  0.62652  1.0000
  N   N19       1.0  0.93614  0.00561  0.12652  1.0000
  N   N20       1.0  0.06386  0.50561  0.37348  1.0000
  N   N21       1.0  0.97905  0.92423  0.75214  1.0000
  N   N22       1.0  0.02096  0.42423  0.74786  1.0000
  N   N23       1.0  0.02096  0.07577  0.24786  1.0000
  N   N24       1.0  0.97905  0.57577  0.25214  1.0000
  N   N25       1.0  0.94280  0.01495  0.81180  1.0000
  N   N26       1.0  0.05720  0.51495  0.68820  1.0000
  N   N27       1.0  0.05720  0.98505  0.18820  1.0000
  N   N28       1.0  0.94280  0.48505  0.31180  1.0000
