data_image0
_chemical_formula_structural       Zn4H38C48N42O2
_chemical_formula_sum              "Zn4 H38 C48 N42 O2"
_cell_length_a       8.43707
_cell_length_b       9.54081
_cell_length_c       18.5204
_cell_angle_alpha    80.9766
_cell_angle_beta     79.843
_cell_angle_gamma    73.5312

_space_group_name_H-M_alt    "P 1"
_space_group_IT_number       1

loop_
  _space_group_symop_operation_xyz
  'x, y, z'

loop_
  _atom_site_type_symbol
  _atom_site_label
  _atom_site_symmetry_multiplicity
  _atom_site_fract_x
  _atom_site_fract_y
  _atom_site_fract_z
  _atom_site_occupancy
  Zn  Zn1       1.0  0.78345  0.95409  0.18203  1.0000
  Zn  Zn2       1.0  0.21655  0.04591  0.81797  1.0000
  Zn  Zn3       1.0  0.20698  0.75856  0.13896  1.0000
  Zn  Zn4       1.0  0.79302  0.24144  0.86104  1.0000
  H   H1        1.0  0.99782  0.94850  0.06850  1.0000
  H   H2        1.0  0.00218  0.05150  0.93150  1.0000
  H   H3        1.0  0.45700  0.49449  0.32568  1.0000
  H   H4        1.0  0.54300  0.50551  0.67432  1.0000
  H   H5        1.0  0.39243  0.46934  0.24394  1.0000
  H   H6        1.0  0.60757  0.53066  0.75606  1.0000
  H   H7        1.0  0.61816  0.78355  0.36065  1.0000
  H   H8        1.0  0.38184  0.21645  0.63935  1.0000
  H   H9        1.0  0.71356  0.74555  0.44267  1.0000
  H   H10       1.0  0.28644  0.25445  0.55733  1.0000
  H   H11       1.0  0.66306  0.59598  0.06006  1.0000
  H   H12       1.0  0.33694  0.40402  0.93994  1.0000
  H   H13       1.0  0.85964  0.72649  0.08697  1.0000
  H   H14       1.0  0.14036  0.27351  0.91303  1.0000
  H   H15       1.0  0.23591  0.13478  0.32135  1.0000
  H   H16       1.0  0.76409  0.86521  0.67865  1.0000
  H   H17       1.0  0.09159  0.00483  0.25742  1.0000
  H   H18       1.0  0.90841  0.99516  0.74259  1.0000
  H   H19       1.0  0.74139  0.32584  0.06382  1.0000
  H   H20       1.0  0.25861  0.67416  0.93618  1.0000
  H   H21       1.0  0.81362  0.51894  0.32560  1.0000
  H   H22       1.0  0.18638  0.48106  0.67440  1.0000
  H   H23       1.0  0.02170  0.17218  0.09097  1.0000
  H   H24       1.0  0.97830  0.82782  0.90903  1.0000
  H   H25       1.0  0.09841  0.38488  0.35591  1.0000
  H   H26       1.0  0.90159  0.61512  0.64409  1.0000
  H   H27       1.0  0.86502  0.89480  0.51171  1.0000
  H   H28       1.0  0.13499  0.10520  0.48828  1.0000
  H   H29       1.0  0.69896  0.34716  0.55769  1.0000
  H   H30       1.0  0.30104  0.65284  0.44231  1.0000
  H   H31       1.0  0.49695  0.41113  0.46428  1.0000
  H   H32       1.0  0.50305  0.58887  0.53572  1.0000
  H   H33       1.0  0.87063  0.09603  0.58164  1.0000
  H   H34       1.0  0.12937  0.90398  0.41836  1.0000
  H   H35       1.0  0.29390  0.09981  0.12334  1.0000
  H   H36       1.0  0.70610  0.90019  0.87666  1.0000
  H   H37       1.0  0.40387  0.15207  0.18338  1.0000
  H   H38       1.0  0.59613  0.84793  0.81662  1.0000
  C   C1        1.0  0.09542  0.36713  0.10564  1.0000
  C   C2        1.0  0.90458  0.63287  0.89436  1.0000
  C   C3        1.0  0.04968  0.52141  0.10590  1.0000
  C   C4        1.0  0.95032  0.47859  0.89410  1.0000
  C   C5        1.0  0.49292  0.49311  0.26582  1.0000
  C   C6        1.0  0.50709  0.50689  0.73418  1.0000
  C   C7        1.0  0.86822  0.18836  0.25875  1.0000
  C   C8        1.0  0.13177  0.81164  0.74125  1.0000
  C   C9        1.0  0.70653  0.81239  0.38884  1.0000
  C   C10       1.0  0.29347  0.18761  0.61116  1.0000
  C   C11       1.0  0.78486  0.53290  0.07481  1.0000
  C   C12       1.0  0.21514  0.46710  0.92519  1.0000
  C   C13       1.0  0.79186  0.33275  0.27729  1.0000
  C   C14       1.0  0.20814  0.66724  0.72271  1.0000
  C   C15       1.0  0.89259  0.60721  0.08954  1.0000
  C   C16       1.0  0.10741  0.39279  0.91046  1.0000
  C   C17       1.0  0.10997  0.18797  0.30849  1.0000
  C   C18       1.0  0.89003  0.81202  0.69151  1.0000
  C   C19       1.0  0.03072  0.11434  0.27345  1.0000
  C   C20       1.0  0.96928  0.88566  0.72655  1.0000
  C   C21       1.0  0.83136  0.37790  0.07587  1.0000
  C   C22       1.0  0.16864  0.62210  0.92413  1.0000
  C   C23       1.0  0.87206  0.40696  0.31282  1.0000
  C   C24       1.0  0.12794  0.59304  0.68718  1.0000
  C   C25       1.0  0.98689  0.29135  0.09083  1.0000
  C   C26       1.0  0.01312  0.70865  0.90917  1.0000
  C   C27       1.0  0.03127  0.33158  0.32827  1.0000
  C   C28       1.0  0.96873  0.66842  0.67173  1.0000
  C   C29       1.0  0.87628  0.77828  0.34462  1.0000
  C   C30       1.0  0.12371  0.22172  0.65538  1.0000
  C   C31       1.0  0.67637  0.04346  0.44844  1.0000
  C   C32       1.0  0.32364  0.95654  0.55156  1.0000
  C   C33       1.0  0.57072  0.18688  0.43585  1.0000
  C   C34       1.0  0.42928  0.81312  0.56415  1.0000
  C   C35       1.0  0.78628  0.00593  0.50109  1.0000
  C   C36       1.0  0.21372  0.99408  0.49890  1.0000
  C   C37       1.0  0.68708  0.26395  0.52625  1.0000
  C   C38       1.0  0.31292  0.73605  0.47375  1.0000
  C   C39       1.0  0.57678  0.30015  0.47463  1.0000
  C   C40       1.0  0.42322  0.69985  0.52537  1.0000
  C   C41       1.0  0.78831  0.11885  0.53969  1.0000
  C   C42       1.0  0.21169  0.88115  0.46031  1.0000
  C   C43       1.0  0.51811  0.63888  0.23082  1.0000
  C   C44       1.0  0.48190  0.36112  0.76918  1.0000
  C   C45       1.0  0.36657  0.17596  0.12805  1.0000
  C   C46       1.0  0.63343  0.82404  0.87195  1.0000
  C   C47       1.0  0.51797  0.15604  0.07108  1.0000
  C   C48       1.0  0.48203  0.84396  0.92892  1.0000
  N   N1        1.0  0.18554  0.55846  0.12118  1.0000
  N   N2        1.0  0.81446  0.44154  0.87882  1.0000
  N   N3        1.0  0.75572  0.14802  0.22589  1.0000
  N   N4        1.0  0.24428  0.85198  0.77411  1.0000
  N   N5        1.0  0.63895  0.36851  0.25280  1.0000
  N   N6        1.0  0.36105  0.63149  0.74720  1.0000
  N   N7        1.0  0.62004  0.25611  0.22270  1.0000
  N   N8        1.0  0.37997  0.74389  0.77730  1.0000
  N   N9        1.0  0.91186  0.81575  0.27171  1.0000
  N   N10       1.0  0.08814  0.18425  0.72829  1.0000
  N   N11       1.0  0.30907  0.43960  0.12979  1.0000
  N   N12       1.0  0.69093  0.56040  0.87021  1.0000
  N   N13       1.0  0.25680  0.32417  0.12056  1.0000
  N   N14       1.0  0.74320  0.67583  0.87944  1.0000
  N   N15       1.0  0.13734  0.68162  0.31576  1.0000
  N   N16       1.0  0.86266  0.31838  0.68424  1.0000
  N   N17       1.0  0.07617  0.75352  0.25538  1.0000
  N   N18       1.0  0.92383  0.24648  0.74462  1.0000
  N   N19       1.0  0.01397  0.69532  0.37291  1.0000
  N   N20       1.0  0.98603  0.30468  0.62709  1.0000
  N   N21       1.0  0.63691  0.96601  0.40110  1.0000
  N   N22       1.0  0.36309  0.03400  0.59890  1.0000
  N   N23       1.0  0.51455  0.05460  0.36274  1.0000
  N   N24       1.0  0.48545  0.94540  0.63725  1.0000
  N   N25       1.0  0.47368  0.18654  0.38314  1.0000
  N   N26       1.0  0.52632  0.81346  0.61686  1.0000
  N   N27       1.0  0.42594  0.73294  0.18159  1.0000
  N   N28       1.0  0.57406  0.26706  0.81841  1.0000
  N   N29       1.0  0.48840  0.84974  0.16481  1.0000
  N   N30       1.0  0.51160  0.15026  0.83519  1.0000
  N   N31       1.0  0.61358  0.82619  0.20267  1.0000
  N   N32       1.0  0.38642  0.17381  0.79733  1.0000
  N   N33       1.0  0.63507  0.69599  0.24491  1.0000
  N   N34       1.0  0.36493  0.30401  0.75509  1.0000
  N   N35       1.0  0.66987  0.06963  0.08345  1.0000
  N   N36       1.0  0.33013  0.93037  0.91655  1.0000
  N   N37       1.0  0.52126  0.21790  0.00103  1.0000
  N   N38       1.0  0.47874  0.78209  0.99897  1.0000
  N   N39       1.0  0.76988  0.07743  0.01894  1.0000
  N   N40       1.0  0.23012  0.92257  0.98106  1.0000
  N   N41       1.0  0.67974  0.16679  0.97030  1.0000
  N   N42       1.0  0.32026  0.83321  0.02970  1.0000
  O   O1        1.0  0.00385  0.91530  0.12080  1.0000
  O   O2        1.0  0.99615  0.08470  0.87920  1.0000
