data_image0
_chemical_formula_structural       Cu12H24C36I12N24
_chemical_formula_sum              "Cu12 H24 C36 I12 N24"
_cell_length_a       5.1988
_cell_length_b       15.3968
_cell_length_c       19.6213
_cell_angle_alpha    90.0003
_cell_angle_beta     89.9998
_cell_angle_gamma    89.9995

_space_group_name_H-M_alt    "P 1"
_space_group_IT_number       1

loop_
  _space_group_symop_operation_xyz
  'x, y, z'

loop_
  _atom_site_type_symbol
  _atom_site_label
  _atom_site_symmetry_multiplicity
  _atom_site_fract_x
  _atom_site_fract_y
  _atom_site_fract_z
  _atom_site_occupancy
  Cu  Cu1       1.0  0.61978  0.62158  0.75000  1.0000
  Cu  Cu2       1.0  0.11978  0.87842  0.25000  1.0000
  Cu  Cu3       1.0  0.38022  0.37842  0.25000  1.0000
  Cu  Cu4       1.0  0.88022  0.12159  0.75000  1.0000
  Cu  Cu5       1.0  0.16244  0.51027  0.67089  1.0000
  Cu  Cu6       1.0  0.66243  0.98973  0.32911  1.0000
  Cu  Cu7       1.0  0.83756  0.48973  0.17089  1.0000
  Cu  Cu8       1.0  0.33757  0.01027  0.82911  1.0000
  Cu  Cu9       1.0  0.83756  0.48973  0.32911  1.0000
  Cu  Cu10      1.0  0.33758  0.01027  0.67089  1.0000
  Cu  Cu11      1.0  0.16244  0.51027  0.82911  1.0000
  Cu  Cu12      1.0  0.66243  0.98973  0.17089  1.0000
  H   H1        1.0  0.92920  0.68881  0.61936  1.0000
  H   H2        1.0  0.42919  0.81119  0.38064  1.0000
  H   H3        1.0  0.07080  0.31119  0.11936  1.0000
  H   H4        1.0  0.57080  0.18881  0.88064  1.0000
  H   H5        1.0  0.07081  0.31119  0.38064  1.0000
  H   H6        1.0  0.57081  0.18881  0.61936  1.0000
  H   H7        1.0  0.92920  0.68880  0.88064  1.0000
  H   H8        1.0  0.42920  0.81119  0.11936  1.0000
  H   H9        1.0  0.30126  0.55110  0.52115  1.0000
  H   H10       1.0  0.80126  0.94890  0.47884  1.0000
  H   H11       1.0  0.69872  0.44890  0.02116  1.0000
  H   H12       1.0  0.19873  0.05109  0.97884  1.0000
  H   H13       1.0  0.69873  0.44891  0.47884  1.0000
  H   H14       1.0  0.19874  0.05110  0.52116  1.0000
  H   H15       1.0  0.30125  0.55110  0.97885  1.0000
  H   H16       1.0  0.80127  0.94891  0.02116  1.0000
  H   H17       1.0  0.70062  0.37653  0.63925  1.0000
  H   H18       1.0  0.20061  0.12346  0.36075  1.0000
  H   H19       1.0  0.29937  0.62346  0.13925  1.0000
  H   H20       1.0  0.79940  0.87655  0.86075  1.0000
  H   H21       1.0  0.29940  0.62346  0.36075  1.0000
  H   H22       1.0  0.79940  0.87654  0.63925  1.0000
  H   H23       1.0  0.70062  0.37654  0.86075  1.0000
  H   H24       1.0  0.20061  0.12346  0.13926  1.0000
  C   C1        1.0  0.75958  0.65126  0.60642  1.0000
  C   C2        1.0  0.25957  0.84873  0.39358  1.0000
  C   C3        1.0  0.24042  0.34874  0.10642  1.0000
  C   C4        1.0  0.74042  0.15126  0.89358  1.0000
  C   C5        1.0  0.24042  0.34874  0.39358  1.0000
  C   C6        1.0  0.74042  0.15127  0.60642  1.0000
  C   C7        1.0  0.75958  0.65126  0.89358  1.0000
  C   C8        1.0  0.25958  0.84874  0.10642  1.0000
  C   C9        1.0  0.66155  0.62779  0.54262  1.0000
  C   C10       1.0  0.16154  0.87220  0.45738  1.0000
  C   C11       1.0  0.33844  0.37221  0.04262  1.0000
  C   C12       1.0  0.83844  0.12779  0.95738  1.0000
  C   C13       1.0  0.33844  0.37221  0.45738  1.0000
  C   C14       1.0  0.83844  0.12779  0.54262  1.0000
  C   C15       1.0  0.66154  0.62779  0.95738  1.0000
  C   C16       1.0  0.16155  0.87221  0.04262  1.0000
  C   C17       1.0  0.43745  0.58057  0.55601  1.0000
  C   C18       1.0  0.93743  0.91944  0.44400  1.0000
  C   C19       1.0  0.56255  0.41944  0.05601  1.0000
  C   C20       1.0  0.06254  0.08056  0.94399  1.0000
  C   C21       1.0  0.56255  0.41944  0.44399  1.0000
  C   C22       1.0  0.06255  0.08056  0.55601  1.0000
  C   C23       1.0  0.43745  0.58056  0.94399  1.0000
  C   C24       1.0  0.93745  0.91943  0.05601  1.0000
  C   C25       1.0  0.73717  0.38640  0.69313  1.0000
  C   C26       1.0  0.23715  0.11360  0.30687  1.0000
  C   C27       1.0  0.26283  0.61360  0.19313  1.0000
  C   C28       1.0  0.76286  0.88641  0.80687  1.0000
  C   C29       1.0  0.26285  0.61360  0.30687  1.0000
  C   C30       1.0  0.76286  0.88641  0.69313  1.0000
  C   C31       1.0  0.73717  0.38640  0.80687  1.0000
  C   C32       1.0  0.23715  0.11360  0.19313  1.0000
  C   C33       1.0  0.61721  0.34941  0.75000  1.0000
  C   C34       1.0  0.11719  0.15059  0.25000  1.0000
  C   C35       1.0  0.38280  0.65059  0.25000  1.0000
  C   C36       1.0  0.88283  0.84941  0.75000  1.0000
  I   I1        1.0  0.33018  0.25400  0.75000  1.0000
  I   I2        1.0  0.83015  0.24599  0.25001  1.0000
  I   I3        1.0  0.66983  0.74599  0.25000  1.0000
  I   I4        1.0  0.16984  0.75401  0.75000  1.0000
  I   I5        1.0  0.80489  0.66041  0.44732  1.0000
  I   I6        1.0  0.30489  0.83959  0.55269  1.0000
  I   I7        1.0  0.19510  0.33959  0.94732  1.0000
  I   I8        1.0  0.69510  0.16041  0.05268  1.0000
  I   I9        1.0  0.19511  0.33959  0.55268  1.0000
  I   I10       1.0  0.69510  0.16041  0.44731  1.0000
  I   I11       1.0  0.80490  0.66041  0.05269  1.0000
  I   I12       1.0  0.30491  0.83960  0.94732  1.0000
  N   N1        1.0  0.60222  0.61924  0.65524  1.0000
  N   N2        1.0  0.10223  0.88076  0.34476  1.0000
  N   N3        1.0  0.39777  0.38076  0.15524  1.0000
  N   N4        1.0  0.89777  0.11923  0.84476  1.0000
  N   N5        1.0  0.39777  0.38077  0.34476  1.0000
  N   N6        1.0  0.89778  0.11924  0.65524  1.0000
  N   N7        1.0  0.60223  0.61923  0.84476  1.0000
  N   N8        1.0  0.10223  0.88077  0.15524  1.0000
  N   N9        1.0  0.40459  0.57548  0.62415  1.0000
  N   N10       1.0  0.90460  0.92453  0.37585  1.0000
  N   N11       1.0  0.59540  0.42453  0.12415  1.0000
  N   N12       1.0  0.09540  0.07547  0.87585  1.0000
  N   N13       1.0  0.59540  0.42453  0.37585  1.0000
  N   N14       1.0  0.09541  0.07548  0.62415  1.0000
  N   N15       1.0  0.40460  0.57547  0.87585  1.0000
  N   N16       1.0  0.90460  0.92453  0.12415  1.0000
  N   N17       1.0  0.92077  0.44189  0.71504  1.0000
  N   N18       1.0  0.42076  0.05811  0.28496  1.0000
  N   N19       1.0  0.07923  0.55811  0.21504  1.0000
  N   N20       1.0  0.57925  0.94190  0.78496  1.0000
  N   N21       1.0  0.07924  0.55811  0.28496  1.0000
  N   N22       1.0  0.57925  0.94190  0.71504  1.0000
  N   N23       1.0  0.92077  0.44189  0.78496  1.0000
  N   N24       1.0  0.42076  0.05811  0.21504  1.0000
