data_image0
_chemical_formula_structural       Ba2H6C16N2O12
_chemical_formula_sum              "Ba2 H6 C16 N2 O12"
_cell_length_a       4.97485
_cell_length_b       7.28873
_cell_length_c       12.9511
_cell_angle_alpha    88.7884
_cell_angle_beta     80.1498
_cell_angle_gamma    73.7038

_space_group_name_H-M_alt    "P 1"
_space_group_IT_number       1

loop_
  _space_group_symop_operation_xyz
  'x, y, z'

loop_
  _atom_site_type_symbol
  _atom_site_label
  _atom_site_symmetry_multiplicity
  _atom_site_fract_x
  _atom_site_fract_y
  _atom_site_fract_z
  _atom_site_occupancy
  Ba  Ba1       1.0  0.18218  0.21366  0.57776  1.0000
  Ba  Ba2       1.0  0.81782  0.78634  0.42224  1.0000
  H   H1        1.0  0.68168  0.43760  0.02695  1.0000
  H   H2        1.0  0.31832  0.56240  0.97305  1.0000
  H   H3        1.0  0.13176  0.19438  0.95378  1.0000
  H   H4        1.0  0.86824  0.80562  0.04622  1.0000
  H   H5        1.0  0.42658  0.99888  0.08008  1.0000
  H   H6        1.0  0.57342  0.00112  0.91992  1.0000
  C   C1        1.0  0.14339  0.12931  0.21659  1.0000
  C   C2        1.0  0.85661  0.87069  0.78341  1.0000
  C   C3        1.0  0.88617  0.26478  0.25888  1.0000
  C   C4        1.0  0.11383  0.73522  0.74112  1.0000
  C   C5        1.0  0.72596  0.37260  0.18731  1.0000
  C   C6        1.0  0.27404  0.62740  0.81269  1.0000
  C   C7        1.0  0.81151  0.34931  0.07872  1.0000
  C   C8        1.0  0.18849  0.65069  0.92128  1.0000
  C   C9        1.0  0.06457  0.21455  0.03844  1.0000
  C   C10       1.0  0.93542  0.78545  0.96156  1.0000
  C   C11       1.0  0.22732  0.10651  0.10780  1.0000
  C   C12       1.0  0.77268  0.89349  0.89220  1.0000
  C   C13       1.0  0.33489  0.00061  0.28406  1.0000
  C   C14       1.0  0.66511  0.99939  0.71594  1.0000
  C   C15       1.0  0.78880  0.28996  0.37660  1.0000
  C   C16       1.0  0.21120  0.71004  0.62341  1.0000
  N   N1        1.0  0.45648  0.51404  0.22530  1.0000
  N   N2        1.0  0.54352  0.48596  0.77470  1.0000
  O   O1        1.0  0.58584  0.91458  0.24174  1.0000
  O   O2        1.0  0.41416  0.08542  0.75826  1.0000
  O   O3        1.0  0.23002  0.98271  0.38042  1.0000
  O   O4        1.0  0.76998  0.01729  0.61958  1.0000
  O   O5        1.0  0.88774  0.40100  0.42333  1.0000
  O   O6        1.0  0.11226  0.59900  0.57667  1.0000
  O   O7        1.0  0.62376  0.19576  0.41890  1.0000
  O   O8        1.0  0.37624  0.80424  0.58110  1.0000
  O   O9        1.0  0.39947  0.56165  0.32048  1.0000
  O   O10       1.0  0.60053  0.43835  0.67952  1.0000
  O   O11       1.0  0.29197  0.58144  0.16313  1.0000
  O   O12       1.0  0.70802  0.41856  0.83687  1.0000
