data_image0
_chemical_formula_structural       ZnH28C28N10O6
_chemical_formula_sum              "Zn1 H28 C28 N10 O6"
_cell_length_a       8.67394
_cell_length_b       9.41032
_cell_length_c       9.84377
_cell_angle_alpha    83.0568
_cell_angle_beta     64.7446
_cell_angle_gamma    81.7694

_space_group_name_H-M_alt    "P 1"
_space_group_IT_number       1

loop_
  _space_group_symop_operation_xyz
  'x, y, z'

loop_
  _atom_site_type_symbol
  _atom_site_label
  _atom_site_symmetry_multiplicity
  _atom_site_fract_x
  _atom_site_fract_y
  _atom_site_fract_z
  _atom_site_occupancy
  Zn  Zn1       1.0  1.00000  0.50000  0.00000  1.0000
  H   H1        1.0  0.57576  0.56043  0.17626  1.0000
  H   H2        1.0  0.42424  0.43956  0.82374  1.0000
  H   H3        1.0  0.36370  0.36840  0.16282  1.0000
  H   H4        1.0  0.63629  0.63160  0.83718  1.0000
  H   H5        1.0  0.88035  0.18653  0.97939  1.0000
  H   H6        1.0  0.11964  0.81346  0.02061  1.0000
  H   H7        1.0  0.38749  0.07390  0.26071  1.0000
  H   H8        1.0  0.61251  0.92609  0.73929  1.0000
  H   H9        1.0  0.88435  0.12626  0.74693  1.0000
  H   H10       1.0  0.11565  0.87374  0.25308  1.0000
  H   H11       1.0  0.73114  0.27644  0.75962  1.0000
  H   H12       1.0  0.26885  0.72356  0.24039  1.0000
  H   H13       1.0  0.76136  0.13449  0.64271  1.0000
  H   H14       1.0  0.23863  0.86551  0.35729  1.0000
  H   H15       1.0  0.74228  0.79004  0.14370  1.0000
  H   H16       1.0  0.25772  0.20996  0.85631  1.0000
  H   H17       1.0  0.00057  0.47562  0.33675  1.0000
  H   H18       1.0  0.99942  0.52438  0.66325  1.0000
  H   H19       1.0  0.81668  0.68578  0.54441  1.0000
  H   H20       1.0  0.18332  0.31422  0.45559  1.0000
  H   H21       1.0  0.44520  0.63655  0.59781  1.0000
  H   H22       1.0  0.55480  0.36345  0.40219  1.0000
  H   H23       1.0  0.43909  0.66750  0.41974  1.0000
  H   H24       1.0  0.56091  0.33251  0.58026  1.0000
  H   H25       1.0  0.25283  0.71450  0.58394  1.0000
  H   H26       1.0  0.74717  0.28551  0.41606  1.0000
  H   H27       1.0  0.80680  0.04035  0.35228  1.0000
  H   H28       1.0  0.19321  0.95965  0.64772  1.0000
  C   C1        1.0  0.60697  0.45318  0.13633  1.0000
  C   C2        1.0  0.39302  0.54682  0.86367  1.0000
  C   C3        1.0  0.50036  0.36038  0.13289  1.0000
  C   C4        1.0  0.49963  0.63961  0.86711  1.0000
  C   C5        1.0  0.77125  0.26478  0.02951  1.0000
  C   C6        1.0  0.22875  0.73521  0.97049  1.0000
  C   C7        1.0  0.55555  0.11809  0.02880  1.0000
  C   C8        1.0  0.44445  0.88190  0.97120  1.0000
  C   C9        1.0  0.43565  0.04034  0.14635  1.0000
  C   C10       1.0  0.56435  0.95966  0.85365  1.0000
  C   C11       1.0  0.62425  0.07968  0.87891  1.0000
  C   C12       1.0  0.37575  0.92031  0.12109  1.0000
  C   C13       1.0  0.75609  0.15943  0.75045  1.0000
  C   C14       1.0  0.24391  0.84057  0.24955  1.0000
  C   C15       1.0  0.78607  0.73003  0.22416  1.0000
  C   C16       1.0  0.21393  0.26997  0.77584  1.0000
  C   C17       1.0  0.91850  0.57180  0.32921  1.0000
  C   C18       1.0  0.08150  0.42820  0.67079  1.0000
  C   C19       1.0  0.82640  0.67180  0.43312  1.0000
  C   C20       1.0  0.17360  0.32820  0.56688  1.0000
  C   C21       1.0  0.61855  0.88798  0.43443  1.0000
  C   C22       1.0  0.38145  0.11203  0.56557  1.0000
  C   C23       1.0  0.44689  0.85937  0.51578  1.0000
  C   C24       1.0  0.55312  0.14064  0.48422  1.0000
  C   C25       1.0  0.39265  0.71186  0.53021  1.0000
  C   C26       1.0  0.60735  0.28814  0.46979  1.0000
  C   C27       1.0  0.67182  0.02438  0.41789  1.0000
  C   C28       1.0  0.32819  0.97562  0.58211  1.0000
  N   N1        1.0  0.89196  0.60949  0.20014  1.0000
  N   N2        1.0  0.10804  0.39051  0.79986  1.0000
  N   N3        1.0  0.74348  0.77149  0.36457  1.0000
  N   N4        1.0  0.25652  0.22852  0.63542  1.0000
  N   N5        1.0  0.77497  0.39246  0.07208  1.0000
  N   N6        1.0  0.22502  0.60753  0.92792  1.0000
  N   N7        1.0  0.60729  0.24124  0.06364  1.0000
  N   N8        1.0  0.39271  0.75875  0.93636  1.0000
  N   N9        1.0  0.08057  0.21755  0.18625  1.0000
  N   N10       1.0  0.91943  0.78245  0.81375  1.0000
  O   O1        1.0  0.04424  0.12150  0.12960  1.0000
  O   O2        1.0  0.95576  0.87850  0.87039  1.0000
  O   O3        1.0  0.05839  0.20622  0.32217  1.0000
  O   O4        1.0  0.94161  0.79378  0.67783  1.0000
  O   O5        1.0  0.14440  0.33064  0.10350  1.0000
  O   O6        1.0  0.85560  0.66937  0.89650  1.0000
