data_image0
_chemical_formula_structural       Mn4H20C24N8O22
_chemical_formula_sum              "Mn4 H20 C24 N8 O22"
_cell_length_a       8.58775
_cell_length_b       10.496
_cell_length_c       10.6504
_cell_angle_alpha    77.1836
_cell_angle_beta     66.2229
_cell_angle_gamma    65.8487

_space_group_name_H-M_alt    "P 1"
_space_group_IT_number       1

loop_
  _space_group_symop_operation_xyz
  'x, y, z'

loop_
  _atom_site_type_symbol
  _atom_site_label
  _atom_site_symmetry_multiplicity
  _atom_site_fract_x
  _atom_site_fract_y
  _atom_site_fract_z
  _atom_site_occupancy
  Mn  Mn1       1.0  0.03728  0.31849  0.58978  1.0000
  Mn  Mn2       1.0  0.94590  0.18159  0.91003  1.0000
  Mn  Mn3       1.0  0.96276  0.68167  0.41003  1.0000
  Mn  Mn4       1.0  0.05412  0.81824  0.09012  1.0000
  H   H1        1.0  0.21005  0.33534  0.73977  1.0000
  H   H2        1.0  0.28512  0.16468  0.76043  1.0000
  H   H3        1.0  0.78996  0.66462  0.26018  1.0000
  H   H4        1.0  0.71479  0.83534  0.23961  1.0000
  H   H5        1.0  0.58060  0.35183  0.35759  1.0000
  H   H6        1.0  0.29053  0.14820  0.14233  1.0000
  H   H7        1.0  0.41947  0.64822  0.64230  1.0000
  H   H8        1.0  0.70948  0.85179  0.85779  1.0000
  H   H9        1.0  0.69199  0.98438  0.60831  1.0000
  H   H10       1.0  0.28495  0.51571  0.89178  1.0000
  H   H11       1.0  0.30782  0.01579  0.39180  1.0000
  H   H12       1.0  0.71516  0.48412  0.10809  1.0000
  H   H13       1.0  0.32407  0.30732  0.35572  1.0000
  H   H14       1.0  0.98745  0.19253  0.14422  1.0000
  H   H15       1.0  0.67606  0.69259  0.64424  1.0000
  H   H16       1.0  0.01254  0.80756  0.85583  1.0000
  H   H17       1.0  0.40576  0.18984  0.45754  1.0000
  H   H18       1.0  0.05334  0.31016  0.04254  1.0000
  H   H19       1.0  0.59431  0.81014  0.54247  1.0000
  H   H20       1.0  0.94672  0.68985  0.95743  1.0000
  C   C1        1.0  0.80348  0.45742  0.39784  1.0000
  C   C2        1.0  0.65913  0.04258  0.10191  1.0000
  C   C3        1.0  0.19668  0.54258  0.60195  1.0000
  C   C4        1.0  0.34082  0.95741  0.89828  1.0000
  C   C5        1.0  0.76935  0.32371  0.45661  1.0000
  C   C6        1.0  0.55017  0.17628  0.04311  1.0000
  C   C7        1.0  0.23080  0.67628  0.54323  1.0000
  C   C8        1.0  0.44980  0.82374  0.95710  1.0000
  C   C9        1.0  0.65124  0.28480  0.42695  1.0000
  C   C10       1.0  0.36348  0.21521  0.07289  1.0000
  C   C11       1.0  0.34882  0.71524  0.57294  1.0000
  C   C12       1.0  0.63653  0.78477  0.92723  1.0000
  C   C13       1.0  0.71241  0.08292  0.56490  1.0000
  C   C14       1.0  0.36059  0.41713  0.93507  1.0000
  C   C15       1.0  0.28750  0.91720  0.43511  1.0000
  C   C16       1.0  0.63948  0.58276  0.06491  1.0000
  C   C17       1.0  0.82908  0.12267  0.59645  1.0000
  C   C18       1.0  0.54854  0.37741  0.90343  1.0000
  C   C19       1.0  0.17088  0.87741  0.40352  1.0000
  C   C20       1.0  0.45148  0.62252  0.09662  1.0000
  C   C21       1.0  0.92910  0.03774  0.69294  1.0000
  C   C22       1.0  0.65988  0.46248  0.80693  1.0000
  C   C23       1.0  0.07075  0.96232  0.30714  1.0000
  C   C24       1.0  0.34009  0.53746  0.19303  1.0000
  N   N1        1.0  0.85470  0.24401  0.54300  1.0000
  N   N2        1.0  0.64219  0.25601  0.95674  1.0000
  N   N3        1.0  0.14539  0.75601  0.45687  1.0000
  N   N4        1.0  0.35780  0.74399  0.04344  1.0000
  N   N5        1.0  0.62011  0.16591  0.48292  1.0000
  N   N6        1.0  0.26931  0.33413  0.01705  1.0000
  N   N7        1.0  0.37987  0.83417  0.51704  1.0000
  N   N8        1.0  0.73074  0.66579  0.98297  1.0000
  O   O1        1.0  0.90543  0.48281  0.44245  1.0000
  O   O2        1.0  0.83105  0.01722  0.05759  1.0000
  O   O3        1.0  0.09467  0.51725  0.55734  1.0000
  O   O4        1.0  0.16892  0.98271  0.94261  1.0000
  O   O5        1.0  0.73018  0.53305  0.31274  1.0000
  O   O6        1.0  0.57639  0.96684  0.18683  1.0000
  O   O7        1.0  0.26996  0.46692  0.68705  1.0000
  O   O8        1.0  0.42353  0.03316  0.81335  1.0000
  O   O9        1.0  0.01221  0.09929  0.72081  1.0000
  O   O10       1.0  0.83245  0.40096  0.77878  1.0000
  O   O11       1.0  0.98740  0.90085  0.27945  1.0000
  O   O12       1.0  0.16755  0.59888  0.22090  1.0000
  O   O13       1.0  0.92535  0.91735  0.73751  1.0000
  O   O14       1.0  0.58010  0.58297  0.76266  1.0000
  O   O15       1.0  0.07461  0.08266  0.26241  1.0000
  O   O16       1.0  0.41978  0.41706  0.23751  1.0000
  O   O17       1.0  0.17704  0.25000  0.75005  1.0000
  O   O18       1.0  0.82288  0.74999  0.24996  1.0000
  O   O19       1.0  0.29527  0.23424  0.43057  1.0000
  O   O20       1.0  0.96036  0.26570  0.06942  1.0000
  O   O21       1.0  0.70485  0.76569  0.56938  1.0000
  O   O22       1.0  0.03963  0.73436  0.93060  1.0000
