data_image0
_chemical_formula_structural       Zn4H28C52N4O16
_chemical_formula_sum              "Zn4 H28 C52 N4 O16"
_cell_length_a       8.00227
_cell_length_b       11.7484
_cell_length_c       14.5748
_cell_angle_alpha    78.8916
_cell_angle_beta     74.0821
_cell_angle_gamma    70.1106

_space_group_name_H-M_alt    "P 1"
_space_group_IT_number       1

loop_
  _space_group_symop_operation_xyz
  'x, y, z'

loop_
  _atom_site_type_symbol
  _atom_site_label
  _atom_site_symmetry_multiplicity
  _atom_site_fract_x
  _atom_site_fract_y
  _atom_site_fract_z
  _atom_site_occupancy
  Zn  Zn1       1.0  0.84131  0.81084  0.66867  1.0000
  Zn  Zn2       1.0  0.32074  0.68922  0.83138  1.0000
  Zn  Zn3       1.0  0.15869  0.18916  0.33133  1.0000
  Zn  Zn4       1.0  0.67927  0.31077  0.16862  1.0000
  H   H1        1.0  0.70566  0.70915  0.42842  1.0000
  H   H2        1.0  0.84373  0.79103  0.07173  1.0000
  H   H3        1.0  0.29434  0.29086  0.57158  1.0000
  H   H4        1.0  0.15626  0.20897  0.92827  1.0000
  H   H5        1.0  0.68720  0.57709  0.31777  1.0000
  H   H6        1.0  0.58257  0.92298  0.18231  1.0000
  H   H7        1.0  0.31280  0.42292  0.68223  1.0000
  H   H8        1.0  0.41743  0.07702  0.81769  1.0000
  H   H9        1.0  0.80585  0.40174  0.63975  1.0000
  H   H10       1.0  0.84696  0.09828  0.86012  1.0000
  H   H11       1.0  0.19415  0.59826  0.36025  1.0000
  H   H12       1.0  0.15304  0.90172  0.13988  1.0000
  H   H13       1.0  0.60112  0.21481  0.46946  1.0000
  H   H14       1.0  0.28543  0.28504  0.03063  1.0000
  H   H15       1.0  0.39889  0.78519  0.53054  1.0000
  H   H16       1.0  0.71457  0.71495  0.96937  1.0000
  H   H17       1.0  0.64871  0.99581  0.52969  1.0000
  H   H18       1.0  0.17406  0.50397  0.97045  1.0000
  H   H19       1.0  0.35129  0.00419  0.47031  1.0000
  H   H20       1.0  0.82594  0.49603  0.02955  1.0000
  H   H21       1.0  0.01377  0.99330  0.68483  1.0000
  H   H22       1.0  0.69119  0.50680  0.81488  1.0000
  H   H23       1.0  0.98623  0.00670  0.31517  1.0000
  H   H24       1.0  0.30881  0.49320  0.18512  1.0000
  H   H25       1.0  0.99482  0.21019  0.62403  1.0000
  H   H26       1.0  0.82854  0.28991  0.87548  1.0000
  H   H27       1.0  0.00519  0.78981  0.37597  1.0000
  H   H28       1.0  0.17146  0.71008  0.12452  1.0000
  C   C1        1.0  0.78830  0.63530  0.60466  1.0000
  C   C2        1.0  0.02829  0.86490  0.89532  1.0000
  C   C3        1.0  0.21170  0.36471  0.39534  1.0000
  C   C4        1.0  0.97171  0.13510  0.10468  1.0000
  C   C5        1.0  0.76135  0.56164  0.53988  1.0000
  C   C6        1.0  0.86287  0.93843  0.96009  1.0000
  C   C7        1.0  0.23864  0.43836  0.46012  1.0000
  C   C8        1.0  0.13714  0.06156  0.03992  1.0000
  C   C9        1.0  0.72363  0.61247  0.44996  1.0000
  C   C10       1.0  0.78633  0.88764  0.05007  1.0000
  C   C11       1.0  0.27637  0.38754  0.55004  1.0000
  C   C12       1.0  0.21367  0.11235  0.94993  1.0000
  C   C13       1.0  0.71331  0.53904  0.38867  1.0000
  C   C14       1.0  0.64126  0.96101  0.11135  1.0000
  C   C15       1.0  0.28669  0.46097  0.61133  1.0000
  C   C16       1.0  0.35874  0.03899  0.88865  1.0000
  C   C17       1.0  0.74529  0.41374  0.41469  1.0000
  C   C18       1.0  0.57375  0.08627  0.08525  1.0000
  C   C19       1.0  0.25471  0.58627  0.58531  1.0000
  C   C20       1.0  0.42625  0.91373  0.91475  1.0000
  C   C21       1.0  0.77616  0.36207  0.50683  1.0000
  C   C22       1.0  0.64496  0.13793  0.99308  1.0000
  C   C23       1.0  0.22384  0.63793  0.49317  1.0000
  C   C24       1.0  0.35504  0.86207  0.00693  1.0000
  C   C25       1.0  0.78339  0.43788  0.56797  1.0000
  C   C26       1.0  0.78905  0.06215  0.93194  1.0000
  C   C27       1.0  0.21661  0.56212  0.43203  1.0000
  C   C28       1.0  0.21096  0.93785  0.06806  1.0000
  C   C29       1.0  0.76335  0.33961  0.33762  1.0000
  C   C30       1.0  0.44068  0.16030  0.16234  1.0000
  C   C31       1.0  0.23665  0.66039  0.66238  1.0000
  C   C32       1.0  0.55932  0.83970  0.83766  1.0000
  C   C33       1.0  0.79584  0.23254  0.54114  1.0000
  C   C34       1.0  0.56936  0.26740  0.95874  1.0000
  C   C35       1.0  0.20416  0.76746  0.45886  1.0000
  C   C36       1.0  0.43064  0.73260  0.04126  1.0000
  C   C37       1.0  0.69724  0.16970  0.51523  1.0000
  C   C38       1.0  0.38210  0.33017  0.98477  1.0000
  C   C39       1.0  0.30277  0.83030  0.48477  1.0000
  C   C40       1.0  0.61790  0.66982  0.01523  1.0000
  C   C41       1.0  0.72095  0.04792  0.54935  1.0000
  C   C42       1.0  0.31803  0.45196  0.95076  1.0000
  C   C43       1.0  0.27906  0.95208  0.45065  1.0000
  C   C44       1.0  0.68197  0.54804  0.04924  1.0000
  C   C45       1.0  0.92664  0.04579  0.63549  1.0000
  C   C46       1.0  0.60738  0.45423  0.86428  1.0000
  C   C47       1.0  0.07336  0.95421  0.36451  1.0000
  C   C48       1.0  0.39262  0.54576  0.13572  1.0000
  C   C49       1.0  0.91202  0.16721  0.60304  1.0000
  C   C50       1.0  0.68186  0.33284  0.89671  1.0000
  C   C51       1.0  0.08799  0.83280  0.39696  1.0000
  C   C52       1.0  0.31814  0.66716  0.10329  1.0000
  N   N1        1.0  0.83355  0.98653  0.60821  1.0000
  N   N2        1.0  0.42787  0.51343  0.89176  1.0000
  N   N3        1.0  0.16645  0.01347  0.39179  1.0000
  N   N4        1.0  0.57213  0.48657  0.10824  1.0000
  O   O1        1.0  0.84599  0.58503  0.67859  1.0000
  O   O2        1.0  0.10962  0.91529  0.82148  1.0000
  O   O3        1.0  0.15401  0.41498  0.32141  1.0000
  O   O4        1.0  0.89038  0.08471  0.17852  1.0000
  O   O5        1.0  0.75638  0.75182  0.57718  1.0000
  O   O6        1.0  0.08538  0.74834  0.92272  1.0000
  O   O7        1.0  0.24362  0.24818  0.42282  1.0000
  O   O8        1.0  0.91462  0.25166  0.07727  1.0000
  O   O9        1.0  0.63279  0.37293  0.29461  1.0000
  O   O10       1.0  0.30072  0.12676  0.20548  1.0000
  O   O11       1.0  0.36720  0.62707  0.70539  1.0000
  O   O12       1.0  0.69928  0.87324  0.79452  1.0000
  O   O13       1.0  0.90585  0.25127  0.31415  1.0000
  O   O14       1.0  0.47116  0.24884  0.18570  1.0000
  O   O15       1.0  0.09416  0.74873  0.68584  1.0000
  O   O16       1.0  0.52883  0.75116  0.81430  1.0000
