data_image0
_chemical_formula_structural       Cd4H28C52N4O16
_chemical_formula_sum              "Cd4 H28 C52 N4 O16"
_cell_length_a       6.96263
_cell_length_b       8.27478
_cell_length_c       21.4038
_cell_angle_alpha    95.0183
_cell_angle_beta     90
_cell_angle_gamma    90.0003

_space_group_name_H-M_alt    "P 1"
_space_group_IT_number       1

loop_
  _space_group_symop_operation_xyz
  'x, y, z'

loop_
  _atom_site_type_symbol
  _atom_site_label
  _atom_site_symmetry_multiplicity
  _atom_site_fract_x
  _atom_site_fract_y
  _atom_site_fract_z
  _atom_site_occupancy
  Cd  Cd1       1.0  0.71226  0.16818  0.71219  1.0000
  Cd  Cd2       1.0  0.21225  0.33182  0.78781  1.0000
  Cd  Cd3       1.0  0.28773  0.83182  0.28781  1.0000
  Cd  Cd4       1.0  0.78774  0.66818  0.21219  1.0000
  H   H1        1.0  0.30288  0.29802  0.58491  1.0000
  H   H2        1.0  0.80287  0.20200  0.91509  1.0000
  H   H3        1.0  0.69711  0.70198  0.41509  1.0000
  H   H4        1.0  0.19711  0.79801  0.08491  1.0000
  H   H5        1.0  0.30503  0.21777  0.46924  1.0000
  H   H6        1.0  0.80503  0.28225  0.03076  1.0000
  H   H7        1.0  0.69497  0.78223  0.53076  1.0000
  H   H8        1.0  0.19498  0.71776  0.96924  1.0000
  H   H9        1.0  0.20273  0.72324  0.50372  1.0000
  H   H10       1.0  0.70274  0.77677  0.99627  1.0000
  H   H11       1.0  0.79729  0.27676  0.49628  1.0000
  H   H12       1.0  0.29727  0.22323  0.00373  1.0000
  H   H13       1.0  0.96133  0.63558  0.58734  1.0000
  H   H14       1.0  0.46134  0.86443  0.91266  1.0000
  H   H15       1.0  0.03868  0.36442  0.41266  1.0000
  H   H16       1.0  0.53865  0.13556  0.08734  1.0000
  H   H17       1.0  0.95849  0.42691  0.66378  1.0000
  H   H18       1.0  0.45849  0.07310  0.83621  1.0000
  H   H19       1.0  0.04152  0.57309  0.33622  1.0000
  H   H20       1.0  0.54149  0.92690  0.16379  1.0000
  H   H21       1.0  0.41933  0.64195  0.76230  1.0000
  H   H22       1.0  0.91932  0.85805  0.73770  1.0000
  H   H23       1.0  0.58069  0.35804  0.23769  1.0000
  H   H24       1.0  0.08067  0.14196  0.26230  1.0000
  H   H25       1.0  0.45166  0.85215  0.68573  1.0000
  H   H26       1.0  0.95166  0.64785  0.81427  1.0000
  H   H27       1.0  0.54835  0.14784  0.31427  1.0000
  H   H28       1.0  0.04834  0.35216  0.18573  1.0000
  C   C1        1.0  0.23078  0.11345  0.67745  1.0000
  C   C2        1.0  0.73079  0.38656  0.82256  1.0000
  C   C3        1.0  0.76923  0.88656  0.32255  1.0000
  C   C4        1.0  0.26920  0.61344  0.17744  1.0000
  C   C5        1.0  0.24691  0.05539  0.60931  1.0000
  C   C6        1.0  0.74691  0.44462  0.89069  1.0000
  C   C7        1.0  0.75309  0.94461  0.39069  1.0000
  C   C8        1.0  0.25309  0.55538  0.10931  1.0000
  C   C9        1.0  0.27823  0.17238  0.56695  1.0000
  C   C10       1.0  0.77823  0.32763  0.93305  1.0000
  C   C11       1.0  0.72176  0.82762  0.43305  1.0000
  C   C12       1.0  0.22177  0.67237  0.06695  1.0000
  C   C13       1.0  0.27815  0.12857  0.50273  1.0000
  C   C14       1.0  0.77815  0.37144  0.99727  1.0000
  C   C15       1.0  0.72186  0.87144  0.49727  1.0000
  C   C16       1.0  0.22186  0.62856  0.00273  1.0000
  C   C17       1.0  0.24815  0.96684  0.47988  1.0000
  C   C18       1.0  0.74816  0.53317  0.02012  1.0000
  C   C19       1.0  0.75185  0.03315  0.52012  1.0000
  C   C20       1.0  0.25186  0.46683  0.97988  1.0000
  C   C21       1.0  0.21877  0.84956  0.52211  1.0000
  C   C22       1.0  0.71877  0.65047  0.97789  1.0000
  C   C23       1.0  0.78125  0.15044  0.47789  1.0000
  C   C24       1.0  0.28124  0.34955  0.02211  1.0000
  C   C25       1.0  0.21878  0.89160  0.58689  1.0000
  C   C26       1.0  0.71878  0.60840  0.91311  1.0000
  C   C27       1.0  0.78123  0.10839  0.41311  1.0000
  C   C28       1.0  0.28122  0.39160  0.08689  1.0000
  C   C29       1.0  0.25748  0.92110  0.41085  1.0000
  C   C30       1.0  0.75748  0.57892  0.08915  1.0000
  C   C31       1.0  0.74252  0.07890  0.58915  1.0000
  C   C32       1.0  0.24253  0.42109  0.91085  1.0000
  C   C33       1.0  0.20485  0.76491  0.63106  1.0000
  C   C34       1.0  0.70486  0.73510  0.86894  1.0000
  C   C35       1.0  0.79516  0.23509  0.36894  1.0000
  C   C36       1.0  0.29513  0.26491  0.13106  1.0000
  C   C37       1.0  0.06730  0.64070  0.62487  1.0000
  C   C38       1.0  0.56730  0.85931  0.87513  1.0000
  C   C39       1.0  0.93269  0.35930  0.37513  1.0000
  C   C40       1.0  0.43269  0.14068  0.12487  1.0000
  C   C41       1.0  0.06327  0.52522  0.66836  1.0000
  C   C42       1.0  0.56327  0.97479  0.83163  1.0000
  C   C43       1.0  0.93675  0.47478  0.33164  1.0000
  C   C44       1.0  0.43670  0.02521  0.16837  1.0000
  C   C45       1.0  0.32058  0.64597  0.72293  1.0000
  C   C46       1.0  0.82059  0.85403  0.77707  1.0000
  C   C47       1.0  0.67944  0.35402  0.27707  1.0000
  C   C48       1.0  0.17940  0.14598  0.22293  1.0000
  C   C49       1.0  0.33544  0.76399  0.68101  1.0000
  C   C50       1.0  0.83543  0.73602  0.81899  1.0000
  C   C51       1.0  0.66458  0.23601  0.31899  1.0000
  C   C52       1.0  0.16456  0.26399  0.18101  1.0000
  N   N1        1.0  0.18634  0.52826  0.71707  1.0000
  N   N2        1.0  0.68633  0.97175  0.78293  1.0000
  N   N3        1.0  0.81367  0.47173  0.28293  1.0000
  N   N4        1.0  0.31365  0.02825  0.21707  1.0000
  O   O1        1.0  0.37438  0.18953  0.70426  1.0000
  O   O2        1.0  0.87437  0.31048  0.79574  1.0000
  O   O3        1.0  0.62560  0.81046  0.29574  1.0000
  O   O4        1.0  0.12563  0.68951  0.20426  1.0000
  O   O5        1.0  0.07516  0.09886  0.70653  1.0000
  O   O6        1.0  0.57514  0.40116  0.79347  1.0000
  O   O7        1.0  0.92482  0.90114  0.29347  1.0000
  O   O8        1.0  0.42487  0.59884  0.20653  1.0000
  O   O9        1.0  0.28696  0.03271  0.37463  1.0000
  O   O10       1.0  0.78694  0.46730  0.12537  1.0000
  O   O11       1.0  0.71304  0.96729  0.62537  1.0000
  O   O12       1.0  0.21305  0.53270  0.87463  1.0000
  O   O13       1.0  0.23898  0.77112  0.39036  1.0000
  O   O14       1.0  0.73899  0.72889  0.10964  1.0000
  O   O15       1.0  0.76101  0.22887  0.60964  1.0000
  O   O16       1.0  0.26103  0.27112  0.89036  1.0000
