data_image0
_chemical_formula_structural       Ba8H32C56N8O40
_chemical_formula_sum              "Ba8 H32 C56 N8 O40"
_cell_length_a       9.845
_cell_length_b       13.3132
_cell_length_c       14.687
_cell_angle_alpha    115.905
_cell_angle_beta     109.587
_cell_angle_gamma    90.0082

_space_group_name_H-M_alt    "P 1"
_space_group_IT_number       1

loop_
  _space_group_symop_operation_xyz
  'x, y, z'

loop_
  _atom_site_type_symbol
  _atom_site_label
  _atom_site_symmetry_multiplicity
  _atom_site_fract_x
  _atom_site_fract_y
  _atom_site_fract_z
  _atom_site_occupancy
  Ba  Ba1       1.0  0.70147  0.08521  0.66367  1.0000
  Ba  Ba2       1.0  0.03763  0.41481  0.33621  1.0000
  Ba  Ba3       1.0  0.29852  0.91479  0.33632  1.0000
  Ba  Ba4       1.0  0.96237  0.58519  0.66380  1.0000
  Ba  Ba5       1.0  0.78689  0.39220  0.95967  1.0000
  Ba  Ba6       1.0  0.82735  0.10779  0.04034  1.0000
  Ba  Ba7       1.0  0.21311  0.60780  0.04033  1.0000
  Ba  Ba8       1.0  0.17265  0.89221  0.95966  1.0000
  H   H1        1.0  0.77712  0.12653  0.29556  1.0000
  H   H2        1.0  0.48129  0.37390  0.70449  1.0000
  H   H3        1.0  0.22288  0.87347  0.70444  1.0000
  H   H4        1.0  0.51871  0.62610  0.29551  1.0000
  H   H5        1.0  0.19943  0.15496  0.52741  1.0000
  H   H6        1.0  0.67170  0.34503  0.47255  1.0000
  H   H7        1.0  0.80057  0.84505  0.47259  1.0000
  H   H8        1.0  0.32830  0.65498  0.52745  1.0000
  H   H9        1.0  0.31255  0.16984  0.67160  1.0000
  H   H10       1.0  0.64057  0.32983  0.32823  1.0000
  H   H11       1.0  0.68745  0.83016  0.32840  1.0000
  H   H12       1.0  0.35943  0.67017  0.67177  1.0000
  H   H13       1.0  0.29918  0.13860  0.94702  1.0000
  H   H14       1.0  0.35196  0.36120  0.05281  1.0000
  H   H15       1.0  0.70082  0.86140  0.05298  1.0000
  H   H16       1.0  0.64805  0.63880  0.94719  1.0000
  H   H17       1.0  0.46119  0.50756  0.90387  1.0000
  H   H18       1.0  0.55729  0.99248  0.09605  1.0000
  H   H19       1.0  0.53881  0.49244  0.09614  1.0000
  H   H20       1.0  0.44271  0.00752  0.90395  1.0000
  H   H21       1.0  0.42646  0.37520  0.83701  1.0000
  H   H22       1.0  0.58969  0.12485  0.16298  1.0000
  H   H23       1.0  0.57354  0.62480  0.16299  1.0000
  H   H24       1.0  0.41031  0.87515  0.83702  1.0000
  H   H25       1.0  0.83482  0.57918  0.21666  1.0000
  H   H26       1.0  0.61816  0.92065  0.78341  1.0000
  H   H27       1.0  0.16518  0.42082  0.78334  1.0000
  H   H28       1.0  0.38183  0.07934  0.21659  1.0000
  H   H29       1.0  0.98241  0.59972  0.20899  1.0000
  H   H30       1.0  0.77346  0.90029  0.79102  1.0000
  H   H31       1.0  0.01759  0.40028  0.79101  1.0000
  H   H32       1.0  0.22654  0.09972  0.20898  1.0000
  C   C1        1.0  0.78457  0.11961  0.44134  1.0000
  C   C2        1.0  0.34297  0.38070  0.55864  1.0000
  C   C3        1.0  0.21543  0.88039  0.55865  1.0000
  C   C4        1.0  0.65703  0.61930  0.44136  1.0000
  C   C5        1.0  0.84677  0.13262  0.37363  1.0000
  C   C6        1.0  0.47284  0.36773  0.62640  1.0000
  C   C7        1.0  0.15323  0.86738  0.62636  1.0000
  C   C8        1.0  0.52716  0.63227  0.37360  1.0000
  C   C9        1.0  0.99819  0.14315  0.40376  1.0000
  C   C10       1.0  0.59411  0.35706  0.59626  1.0000
  C   C11       1.0  0.00181  0.85686  0.59624  1.0000
  C   C12       1.0  0.40589  0.64295  0.40374  1.0000
  C   C13       1.0  0.08125  0.14758  0.50358  1.0000
  C   C14       1.0  0.57739  0.35250  0.49642  1.0000
  C   C15       1.0  0.91875  0.85242  0.49642  1.0000
  C   C16       1.0  0.42261  0.64750  0.50359  1.0000
  C   C17       1.0  0.01150  0.14187  0.57071  1.0000
  C   C18       1.0  0.44050  0.35817  0.42925  1.0000
  C   C19       1.0  0.98850  0.85813  0.42929  1.0000
  C   C20       1.0  0.55950  0.64183  0.57075  1.0000
  C   C21       1.0  0.09685  0.14795  0.67824  1.0000
  C   C22       1.0  0.41830  0.35195  0.32167  1.0000
  C   C23       1.0  0.90315  0.85205  0.32176  1.0000
  C   C24       1.0  0.58170  0.64805  0.67834  1.0000
  C   C25       1.0  0.25002  0.15947  0.71643  1.0000
  C   C26       1.0  0.53325  0.34028  0.28343  1.0000
  C   C27       1.0  0.74997  0.84053  0.28357  1.0000
  C   C28       1.0  0.46675  0.65972  0.71657  1.0000
  C   C29       1.0  0.32575  0.15463  0.81296  1.0000
  C   C30       1.0  0.51251  0.34510  0.18691  1.0000
  C   C31       1.0  0.67425  0.84537  0.18704  1.0000
  C   C32       1.0  0.48749  0.65489  0.81310  1.0000
  C   C33       1.0  0.24572  0.14286  0.87127  1.0000
  C   C34       1.0  0.37421  0.35695  0.12857  1.0000
  C   C35       1.0  0.75428  0.85714  0.12873  1.0000
  C   C36       1.0  0.62579  0.64305  0.87143  1.0000
  C   C37       1.0  0.09443  0.13770  0.83095  1.0000
  C   C38       1.0  0.26330  0.36227  0.16897  1.0000
  C   C39       1.0  0.90557  0.86230  0.16905  1.0000
  C   C40       1.0  0.73670  0.63773  0.83103  1.0000
  C   C41       1.0  0.00447  0.12692  0.89295  1.0000
  C   C42       1.0  0.11137  0.37311  0.10696  1.0000
  C   C43       1.0  0.99553  0.87308  0.10704  1.0000
  C   C44       1.0  0.88863  0.62689  0.89304  1.0000
  C   C45       1.0  0.48965  0.15793  0.85042  1.0000
  C   C46       1.0  0.63911  0.34178  0.14958  1.0000
  C   C47       1.0  0.51035  0.84207  0.14959  1.0000
  C   C48       1.0  0.36089  0.65822  0.85042  1.0000
  C   C49       1.0  0.06803  0.14206  0.32613  1.0000
  C   C50       1.0  0.74149  0.35805  0.67389  1.0000
  C   C51       1.0  0.93197  0.85794  0.67387  1.0000
  C   C52       1.0  0.25851  0.64195  0.32611  1.0000
  C   C53       1.0  0.61915  0.09096  0.40152  1.0000
  C   C54       1.0  0.21739  0.40934  0.59839  1.0000
  C   C55       1.0  0.38085  0.90903  0.59848  1.0000
  C   C56       1.0  0.78261  0.59066  0.40161  1.0000
  N   N1        1.0  0.86428  0.12455  0.53791  1.0000
  N   N2        1.0  0.32610  0.37559  0.46203  1.0000
  N   N3        1.0  0.13572  0.87545  0.46209  1.0000
  N   N4        1.0  0.67390  0.62441  0.53797  1.0000
  N   N5        1.0  0.02105  0.13881  0.73622  1.0000
  N   N6        1.0  0.28461  0.36124  0.26371  1.0000
  N   N7        1.0  0.97895  0.86119  0.26377  1.0000
  N   N8        1.0  0.71539  0.63876  0.73629  1.0000
  O   O1        1.0  0.88485  0.16608  0.88179  1.0000
  O   O2        1.0  0.00285  0.33412  0.11821  1.0000
  O   O3        1.0  0.11515  0.83392  0.11820  1.0000
  O   O4        1.0  0.99715  0.66588  0.88179  1.0000
  O   O5        1.0  0.05325  0.07920  0.95274  1.0000
  O   O6        1.0  0.10038  0.42069  0.04706  1.0000
  O   O7        1.0  0.94675  0.92079  0.04725  1.0000
  O   O8        1.0  0.89962  0.57931  0.95293  1.0000
  O   O9        1.0  0.54656  0.12360  0.92056  1.0000
  O   O10       1.0  0.62615  0.37626  0.07957  1.0000
  O   O11       1.0  0.45344  0.87641  0.07944  1.0000
  O   O12       1.0  0.37385  0.62374  0.92043  1.0000
  O   O13       1.0  0.55855  0.19517  0.80880  1.0000
  O   O14       1.0  0.74949  0.30441  0.19119  1.0000
  O   O15       1.0  0.44144  0.80484  0.19121  1.0000
  O   O16       1.0  0.25051  0.69559  0.80881  1.0000
  O   O17       1.0  0.18272  0.09862  0.32858  1.0000
  O   O18       1.0  0.85385  0.40149  0.67157  1.0000
  O   O19       1.0  0.81728  0.90138  0.67142  1.0000
  O   O20       1.0  0.14615  0.59852  0.32844  1.0000
  O   O21       1.0  0.00537  0.18306  0.26208  1.0000
  O   O22       1.0  0.74269  0.31697  0.73785  1.0000
  O   O23       1.0  0.99462  0.81694  0.73792  1.0000
  O   O24       1.0  0.25731  0.68304  0.26215  1.0000
  O   O25       1.0  0.54638  0.09438  0.31455  1.0000
  O   O26       1.0  0.23153  0.40612  0.68542  1.0000
  O   O27       1.0  0.45362  0.90562  0.68545  1.0000
  O   O28       1.0  0.76847  0.59388  0.31458  1.0000
  O   O29       1.0  0.56647  0.06201  0.45705  1.0000
  O   O30       1.0  0.10915  0.43811  0.54269  1.0000
  O   O31       1.0  0.43353  0.93799  0.54294  1.0000
  O   O32       1.0  0.89085  0.56189  0.45731  1.0000
  O   O33       1.0  0.50717  0.43823  0.88722  1.0000
  O   O34       1.0  0.62001  0.06177  0.11270  1.0000
  O   O35       1.0  0.49283  0.56177  0.11278  1.0000
  O   O36       1.0  0.37999  0.93823  0.88730  1.0000
  O   O37       1.0  0.87711  0.57794  0.16373  1.0000
  O   O38       1.0  0.71350  0.92204  0.83633  1.0000
  O   O39       1.0  0.12289  0.42206  0.83627  1.0000
  O   O40       1.0  0.28650  0.07796  0.16367  1.0000
