data_image0
_chemical_formula_structural       Sr2Cu2H20C28N4O22
_chemical_formula_sum              "Sr2 Cu2 H20 C28 N4 O22"
_cell_length_a       9.23649
_cell_length_b       9.60269
_cell_length_c       10.2719
_cell_angle_alpha    106.701
_cell_angle_beta     92.4558
_cell_angle_gamma    116.166

_space_group_name_H-M_alt    "P 1"
_space_group_IT_number       1

loop_
  _space_group_symop_operation_xyz
  'x, y, z'

loop_
  _atom_site_type_symbol
  _atom_site_label
  _atom_site_symmetry_multiplicity
  _atom_site_fract_x
  _atom_site_fract_y
  _atom_site_fract_z
  _atom_site_occupancy
  Sr  Sr1       1.0  0.58658  0.40066  0.11654  1.0000
  Sr  Sr2       1.0  0.41341  0.59933  0.88346  1.0000
  Cu  Cu1       1.0  0.16414  0.82322  0.19269  1.0000
  Cu  Cu2       1.0  0.83586  0.17678  0.80730  1.0000
  H   H1        1.0  0.05479  0.23703  0.22644  1.0000
  H   H2        1.0  0.94521  0.76297  0.77356  1.0000
  H   H3        1.0  0.24198  0.65502  0.60280  1.0000
  H   H4        1.0  0.75801  0.34498  0.39720  1.0000
  H   H5        1.0  0.32965  0.90715  0.68684  1.0000
  H   H6        1.0  0.67035  0.09284  0.31315  1.0000
  H   H7        1.0  0.47315  0.35051  0.58466  1.0000
  H   H8        1.0  0.52685  0.64949  0.41534  1.0000
  H   H9        1.0  0.97034  0.96565  0.31866  1.0000
  H   H10       1.0  0.02966  0.03435  0.68134  1.0000
  H   H11       1.0  0.87994  0.77371  0.29455  1.0000
  H   H12       1.0  0.12006  0.22629  0.70545  1.0000
  H   H13       1.0  0.19297  0.18646  0.92120  1.0000
  H   H14       1.0  0.80703  0.81354  0.07880  1.0000
  H   H15       1.0  0.23049  0.13698  0.05082  1.0000
  H   H16       1.0  0.76950  0.86302  0.94918  1.0000
  H   H17       1.0  0.59390  0.05602  0.12003  1.0000
  H   H18       1.0  0.40610  0.94396  0.87997  1.0000
  H   H19       1.0  0.75736  0.18976  0.09400  1.0000
  H   H20       1.0  0.24263  0.81023  0.90600  1.0000
  C   C1        1.0  0.10719  0.47155  0.20722  1.0000
  C   C2        1.0  0.89281  0.52846  0.79277  1.0000
  C   C3        1.0  0.09776  0.36747  0.28178  1.0000
  C   C4        1.0  0.90223  0.63253  0.71822  1.0000
  C   C5        1.0  0.14620  0.43198  0.42598  1.0000
  C   C6        1.0  0.85379  0.56803  0.57403  1.0000
  C   C7        1.0  0.20155  0.60023  0.49062  1.0000
  C   C8        1.0  0.79845  0.39978  0.50938  1.0000
  C   C9        1.0  0.20407  0.69616  0.41053  1.0000
  C   C10       1.0  0.79593  0.30384  0.58947  1.0000
  C   C11       1.0  0.26973  0.87521  0.47185  1.0000
  C   C12       1.0  0.73027  0.12479  0.52815  1.0000
  C   C13       1.0  0.33505  0.96785  0.61144  1.0000
  C   C14       1.0  0.66495  0.03215  0.38856  1.0000
  C   C15       1.0  0.40782  0.13946  0.65399  1.0000
  C   C16       1.0  0.59218  0.86055  0.34601  1.0000
  C   C17       1.0  0.41557  0.21677  0.55594  1.0000
  C   C18       1.0  0.58443  0.78323  0.44406  1.0000
  C   C19       1.0  0.34732  0.11639  0.41817  1.0000
  C   C20       1.0  0.65269  0.88361  0.58183  1.0000
  C   C21       1.0  0.35153  0.17368  0.29652  1.0000
  C   C22       1.0  0.64848  0.82633  0.70348  1.0000
  C   C23       1.0  0.48159  0.23596  0.80504  1.0000
  C   C24       1.0  0.51841  0.76403  0.19496  1.0000
  C   C25       1.0  0.13424  0.32148  0.51011  1.0000
  C   C26       1.0  0.86578  0.67853  0.48989  1.0000
  C   C27       1.0  0.06146  0.40192  0.05090  1.0000
  C   C28       1.0  0.93854  0.59808  0.94910  1.0000
  N   N1        1.0  0.15710  0.63327  0.27002  1.0000
  N   N2        1.0  0.84290  0.36673  0.72998  1.0000
  N   N3        1.0  0.27570  0.95166  0.38040  1.0000
  N   N4        1.0  0.72430  0.04834  0.61960  1.0000
  O   O1        1.0  0.26998  0.05673  0.17911  1.0000
  O   O2        1.0  0.73003  0.94327  0.82090  1.0000
  O   O3        1.0  0.43485  0.32307  0.31142  1.0000
  O   O4        1.0  0.56515  0.67694  0.68859  1.0000
  O   O5        1.0  0.50034  0.38165  0.85259  1.0000
  O   O6        1.0  0.49965  0.61833  0.14742  1.0000
  O   O7        1.0  0.52144  0.16593  0.87709  1.0000
  O   O8        1.0  0.47855  0.83407  0.12292  1.0000
  O   O9        1.0  0.19514  0.39123  0.64032  1.0000
  O   O10       1.0  0.80486  0.60878  0.35968  1.0000
  O   O11       1.0  0.06190  0.16822  0.44604  1.0000
  O   O12       1.0  0.93812  0.83179  0.55397  1.0000
  O   O13       1.0  0.92337  0.26647  0.00350  1.0000
  O   O14       1.0  0.07663  0.73353  0.99649  1.0000
  O   O15       1.0  0.15080  0.47357  0.97883  1.0000
  O   O16       1.0  0.84920  0.52642  0.02117  1.0000
  O   O17       1.0  0.92924  0.85588  0.24637  1.0000
  O   O18       1.0  0.07076  0.14412  0.75364  1.0000
  O   O19       1.0  0.26131  0.22821  0.01425  1.0000
  O   O20       1.0  0.73868  0.77179  0.98576  1.0000
  O   O21       1.0  0.66668  0.17588  0.14549  1.0000
  O   O22       1.0  0.33331  0.82411  0.85450  1.0000
