data_image0
_chemical_formula_structural       Cu2H48C52N12O12
_chemical_formula_sum              "Cu2 H48 C52 N12 O12"
_cell_length_a       9.36457
_cell_length_b       11.7805
_cell_length_c       13.2007
_cell_angle_alpha    114.971
_cell_angle_beta     110.8
_cell_angle_gamma    89.9931

_space_group_name_H-M_alt    "P 1"
_space_group_IT_number       1

loop_
  _space_group_symop_operation_xyz
  'x, y, z'

loop_
  _atom_site_type_symbol
  _atom_site_label
  _atom_site_symmetry_multiplicity
  _atom_site_fract_x
  _atom_site_fract_y
  _atom_site_fract_z
  _atom_site_occupancy
  Cu  Cu1       1.0  1.00000  0.50000  0.50000  1.0000
  Cu  Cu2       1.0  0.50000  0.00000  0.50000  1.0000
  H   H1        1.0  0.65649  0.69277  0.48503  1.0000
  H   H2        1.0  0.17164  0.80724  0.51509  1.0000
  H   H3        1.0  0.34351  0.30723  0.51497  1.0000
  H   H4        1.0  0.82836  0.19276  0.48492  1.0000
  H   H5        1.0  0.86773  0.10959  0.93992  1.0000
  H   H6        1.0  0.92759  0.39044  0.06003  1.0000
  H   H7        1.0  0.13227  0.89041  0.06008  1.0000
  H   H8        1.0  0.07241  0.60956  0.93997  1.0000
  H   H9        1.0  0.93834  0.17948  0.86626  1.0000
  H   H10       1.0  0.07176  0.32037  0.13366  1.0000
  H   H11       1.0  0.06165  0.82052  0.13374  1.0000
  H   H12       1.0  0.92824  0.67963  0.86634  1.0000
  H   H13       1.0  0.74465  0.08865  0.79093  1.0000
  H   H14       1.0  0.95366  0.41143  0.20904  1.0000
  H   H15       1.0  0.25535  0.91135  0.20908  1.0000
  H   H16       1.0  0.04634  0.58857  0.79096  1.0000
  H   H17       1.0  0.25890  0.75853  0.89587  1.0000
  H   H18       1.0  0.36271  0.74159  0.10432  1.0000
  H   H19       1.0  0.74110  0.24147  0.10412  1.0000
  H   H20       1.0  0.63730  0.25841  0.89568  1.0000
  H   H21       1.0  0.33779  0.81766  0.82032  1.0000
  H   H22       1.0  0.51753  0.68253  0.17972  1.0000
  H   H23       1.0  0.66220  0.18233  0.17968  1.0000
  H   H24       1.0  0.48247  0.31747  0.82028  1.0000
  H   H25       1.0  0.32154  0.92653  0.95945  1.0000
  H   H26       1.0  0.36194  0.57362  0.04066  1.0000
  H   H27       1.0  0.67846  0.07347  0.04055  1.0000
  H   H28       1.0  0.63807  0.42638  0.95934  1.0000
  H   H29       1.0  0.62582  0.38215  0.46773  1.0000
  H   H30       1.0  0.15814  0.11799  0.53235  1.0000
  H   H31       1.0  0.37418  0.61785  0.53227  1.0000
  H   H32       1.0  0.84186  0.88201  0.46765  1.0000
  H   H33       1.0  0.39370  0.22790  0.29643  1.0000
  H   H34       1.0  0.09725  0.27208  0.70359  1.0000
  H   H35       1.0  0.60630  0.77210  0.70357  1.0000
  H   H36       1.0  0.90275  0.72792  0.29641  1.0000
  H   H37       1.0  0.30153  0.22833  0.09471  1.0000
  H   H38       1.0  0.20696  0.27153  0.90528  1.0000
  H   H39       1.0  0.69847  0.77166  0.90529  1.0000
  H   H40       1.0  0.79305  0.72847  0.09472  1.0000
  H   H41       1.0  0.44578  0.38187  0.06529  1.0000
  H   H42       1.0  0.38058  0.11802  0.93471  1.0000
  H   H43       1.0  0.55421  0.61813  0.93471  1.0000
  H   H44       1.0  0.61942  0.88198  0.06529  1.0000
  H   H45       1.0  0.68120  0.53520  0.23804  1.0000
  H   H46       1.0  0.44323  0.96475  0.76197  1.0000
  H   H47       1.0  0.31880  0.46480  0.76196  1.0000
  H   H48       1.0  0.55677  0.03525  0.23803  1.0000
  C   C1        1.0  0.77270  0.67114  0.51984  1.0000
  C   C2        1.0  0.25284  0.82890  0.48015  1.0000
  C   C3        1.0  0.22730  0.32886  0.48015  1.0000
  C   C4        1.0  0.74716  0.17110  0.51985  1.0000
  C   C5        1.0  0.87845  0.77278  0.62808  1.0000
  C   C6        1.0  0.25039  0.72721  0.37196  1.0000
  C   C7        1.0  0.12155  0.22722  0.37192  1.0000
  C   C8        1.0  0.74961  0.27280  0.62804  1.0000
  C   C9        1.0  0.02921  0.75885  0.69193  1.0000
  C   C10       1.0  0.33726  0.74117  0.30816  1.0000
  C   C11       1.0  0.97080  0.24115  0.30807  1.0000
  C   C12       1.0  0.66273  0.25883  0.69184  1.0000
  C   C13       1.0  0.05973  0.96505  0.86417  1.0000
  C   C14       1.0  0.19578  0.53483  0.13590  1.0000
  C   C15       1.0  0.94027  0.03495  0.13583  1.0000
  C   C16       1.0  0.80422  0.46518  0.86410  1.0000
  C   C17       1.0  0.81895  0.88734  0.67890  1.0000
  C   C18       1.0  0.14023  0.61253  0.32108  1.0000
  C   C19       1.0  0.18105  0.11266  0.32110  1.0000
  C   C20       1.0  0.85977  0.38748  0.67892  1.0000
  C   C21       1.0  0.86371  0.09785  0.85215  1.0000
  C   C22       1.0  0.01142  0.40212  0.14778  1.0000
  C   C23       1.0  0.13629  0.90215  0.14785  1.0000
  C   C24       1.0  0.98858  0.59788  0.85222  1.0000
  C   C25       1.0  0.26816  0.83850  0.87526  1.0000
  C   C26       1.0  0.39285  0.66162  0.12488  1.0000
  C   C27       1.0  0.73184  0.16150  0.12473  1.0000
  C   C28       1.0  0.60715  0.33839  0.87512  1.0000
  C   C29       1.0  0.66457  0.46838  0.36272  1.0000
  C   C30       1.0  0.30205  0.03171  0.63735  1.0000
  C   C31       1.0  0.33543  0.53162  0.63728  1.0000
  C   C32       1.0  0.69795  0.96829  0.36265  1.0000
  C   C33       1.0  0.58474  0.38152  0.37923  1.0000
  C   C34       1.0  0.20564  0.11855  0.62081  1.0000
  C   C35       1.0  0.41527  0.61848  0.62077  1.0000
  C   C36       1.0  0.79436  0.88145  0.37919  1.0000
  C   C37       1.0  0.45432  0.29570  0.28277  1.0000
  C   C38       1.0  0.17165  0.20432  0.71724  1.0000
  C   C39       1.0  0.54568  0.70430  0.71723  1.0000
  C   C40       1.0  0.82835  0.79568  0.28276  1.0000
  C   C41       1.0  0.40344  0.29593  0.16964  1.0000
  C   C42       1.0  0.23400  0.20409  0.83037  1.0000
  C   C43       1.0  0.59656  0.70407  0.83036  1.0000
  C   C44       1.0  0.76600  0.79591  0.16963  1.0000
  C   C45       1.0  0.48495  0.38205  0.15354  1.0000
  C   C46       1.0  0.33163  0.11795  0.84649  1.0000
  C   C47       1.0  0.51505  0.61795  0.84646  1.0000
  C   C48       1.0  0.66837  0.88205  0.15352  1.0000
  C   C49       1.0  0.61555  0.46822  0.24948  1.0000
  C   C50       1.0  0.36631  0.03184  0.75059  1.0000
  C   C51       1.0  0.38445  0.53178  0.75052  1.0000
  C   C52       1.0  0.63369  0.96816  0.24942  1.0000
  N   N1        1.0  0.79662  0.55642  0.46239  1.0000
  N   N2        1.0  0.33419  0.94363  0.53757  1.0000
  N   N3        1.0  0.20338  0.44358  0.53760  1.0000
  N   N4        1.0  0.66581  0.05637  0.46243  1.0000
  N   N5        1.0  0.11440  0.85492  0.80793  1.0000
  N   N6        1.0  0.30667  0.64502  0.19225  1.0000
  N   N7        1.0  0.88560  0.14508  0.19207  1.0000
  N   N8        1.0  0.69333  0.35498  0.80775  1.0000
  N   N9        1.0  0.91765  0.98038  0.79479  1.0000
  N   N10       1.0  0.12293  0.51951  0.20517  1.0000
  N   N11       1.0  0.08235  0.01962  0.20520  1.0000
  N   N12       1.0  0.87707  0.48049  0.79483  1.0000
  O   O1        1.0  0.09312  0.66336  0.65330  1.0000
  O   O2        1.0  0.43970  0.83674  0.34672  1.0000
  O   O3        1.0  0.90688  0.33665  0.34670  1.0000
  O   O4        1.0  0.56030  0.16326  0.65327  1.0000
  O   O5        1.0  0.68713  0.90552  0.62782  1.0000
  O   O6        1.0  0.05958  0.59424  0.37213  1.0000
  O   O7        1.0  0.31287  0.09447  0.37218  1.0000
  O   O8        1.0  0.94043  0.40576  0.62787  1.0000
  O   O9        1.0  0.13464  0.04505  0.97002  1.0000
  O   O10       1.0  0.16493  0.45481  0.03009  1.0000
  O   O11       1.0  0.86537  0.95495  0.02998  1.0000
  O   O12       1.0  0.83506  0.54519  0.96990  1.0000
