data_image0
_chemical_formula_structural       U4H24C20O28
_chemical_formula_sum              "U4 H24 C20 O28"
_cell_length_a       8.35142
_cell_length_b       9.67515
_cell_length_c       10.6144
_cell_angle_alpha    90.0001
_cell_angle_beta     105.03
_cell_angle_gamma    90

_space_group_name_H-M_alt    "P 1"
_space_group_IT_number       1

loop_
  _space_group_symop_operation_xyz
  'x, y, z'

loop_
  _atom_site_type_symbol
  _atom_site_label
  _atom_site_symmetry_multiplicity
  _atom_site_fract_x
  _atom_site_fract_y
  _atom_site_fract_z
  _atom_site_occupancy
  U   U1        1.0  0.23719  0.50671  0.58713  1.0000
  U   U2        1.0  0.76280  0.00671  0.41286  1.0000
  U   U3        1.0  0.21761  0.75388  0.12067  1.0000
  U   U4        1.0  0.78239  0.25388  0.87934  1.0000
  H   H1        1.0  0.93475  0.68563  0.47961  1.0000
  H   H2        1.0  0.06525  0.18563  0.52039  1.0000
  H   H3        1.0  0.91894  0.57646  0.99130  1.0000
  H   H4        1.0  0.08107  0.07646  0.00870  1.0000
  H   H5        1.0  0.56210  0.45863  0.33768  1.0000
  H   H6        1.0  0.43790  0.95862  0.66231  1.0000
  H   H7        1.0  0.62899  0.52924  0.49772  1.0000
  H   H8        1.0  0.37102  0.02923  0.50227  1.0000
  H   H9        1.0  0.83231  0.63599  0.23454  1.0000
  H   H10       1.0  0.16770  0.13599  0.76546  1.0000
  H   H11       1.0  0.77108  0.46193  0.19082  1.0000
  H   H12       1.0  0.22892  0.96192  0.80917  1.0000
  H   H13       1.0  0.98312  0.50315  0.26639  1.0000
  H   H14       1.0  0.01689  0.00315  0.73361  1.0000
  H   H15       1.0  0.86041  0.67662  0.75890  1.0000
  H   H16       1.0  0.13958  0.17663  0.24109  1.0000
  H   H17       1.0  0.68424  0.78639  0.72230  1.0000
  H   H18       1.0  0.31575  0.28640  0.27770  1.0000
  H   H19       1.0  0.59680  0.66666  0.99741  1.0000
  H   H20       1.0  0.40319  0.16665  0.00259  1.0000
  H   H21       1.0  0.54787  0.83065  0.92199  1.0000
  H   H22       1.0  0.45214  0.33065  0.07801  1.0000
  H   H23       1.0  0.67977  0.82069  0.08244  1.0000
  H   H24       1.0  0.32023  0.32069  0.91756  1.0000
  C   C1        1.0  0.82368  0.50468  0.39847  1.0000
  C   C2        1.0  0.17632  0.00467  0.60152  1.0000
  C   C3        1.0  0.87112  0.35462  0.43741  1.0000
  C   C4        1.0  0.12887  0.85462  0.56258  1.0000
  C   C5        1.0  0.64276  0.53594  0.39791  1.0000
  C   C6        1.0  0.35723  0.03594  0.60209  1.0000
  C   C7        1.0  0.58760  0.67882  0.34512  1.0000
  C   C8        1.0  0.41240  0.17881  0.65488  1.0000
  C   C9        1.0  0.85415  0.52750  0.26373  1.0000
  C   C10       1.0  0.14586  0.02749  0.73627  1.0000
  C   C11       1.0  0.79581  0.75956  0.92988  1.0000
  C   C12       1.0  0.20419  0.25956  0.07011  1.0000
  C   C13       1.0  0.87106  0.90513  0.93498  1.0000
  C   C14       1.0  0.12894  0.40512  0.06501  1.0000
  C   C15       1.0  0.74726  0.70467  0.78842  1.0000
  C   C16       1.0  0.25274  0.20468  0.21158  1.0000
  C   C17       1.0  0.63700  0.57693  0.76907  1.0000
  C   C18       1.0  0.36300  0.07694  0.23094  1.0000
  C   C19       1.0  0.64591  0.76973  0.98701  1.0000
  C   C20       1.0  0.35410  0.26973  0.01299  1.0000
  O   O1        1.0  0.26620  0.52092  0.42535  1.0000
  O   O2        1.0  0.73380  0.02092  0.57466  1.0000
  O   O3        1.0  0.20981  0.48739  0.74899  1.0000
  O   O4        1.0  0.79018  0.98739  0.25102  1.0000
  O   O5        1.0  0.15935  0.77948  0.27090  1.0000
  O   O6        1.0  0.84066  0.27948  0.72910  1.0000
  O   O7        1.0  0.27110  0.73719  0.96746  1.0000
  O   O8        1.0  0.72890  0.23718  0.03254  1.0000
  O   O9        1.0  0.93867  0.58237  0.49762  1.0000
  O   O10       1.0  0.06133  0.08237  0.50238  1.0000
  O   O11       1.0  0.01911  0.33874  0.50904  1.0000
  O   O12       1.0  0.98088  0.83874  0.49096  1.0000
  O   O13       1.0  0.77416  0.25607  0.39451  1.0000
  O   O14       1.0  0.22584  0.75606  0.60548  1.0000
  O   O15       1.0  0.65257  0.78362  0.41144  1.0000
  O   O16       1.0  0.34742  0.28362  0.58857  1.0000
  O   O17       1.0  0.48026  0.68940  0.23608  1.0000
  O   O18       1.0  0.51974  0.18940  0.76392  1.0000
  O   O19       1.0  0.92545  0.67819  0.01274  1.0000
  O   O20       1.0  0.07455  0.17818  0.98725  1.0000
  O   O21       1.0  0.01710  0.92056  0.00966  1.0000
  O   O22       1.0  0.98290  0.42056  0.99034  1.0000
  O   O23       1.0  0.78838  0.00265  0.87141  1.0000
  O   O24       1.0  0.21163  0.50266  0.12859  1.0000
  O   O25       1.0  0.51421  0.57297  0.66879  1.0000
  O   O26       1.0  0.48579  0.07298  0.33122  1.0000
  O   O27       1.0  0.67219  0.47861  0.85104  1.0000
  O   O28       1.0  0.32781  0.97861  0.14897  1.0000
