data_image0
_chemical_formula_structural       Pr2H40C30N2O14
_chemical_formula_sum              "Pr2 H40 C30 N2 O14"
_cell_length_a       7.82573
_cell_length_b       10.9801
_cell_length_c       11.6354
_cell_angle_alpha    110.017
_cell_angle_beta     106.496
_cell_angle_gamma    103.356

_space_group_name_H-M_alt    "P 1"
_space_group_IT_number       1

loop_
  _space_group_symop_operation_xyz
  'x, y, z'

loop_
  _atom_site_type_symbol
  _atom_site_label
  _atom_site_symmetry_multiplicity
  _atom_site_fract_x
  _atom_site_fract_y
  _atom_site_fract_z
  _atom_site_occupancy
  Pr  Pr1       1.0  0.28044  0.02299  0.07211  1.0000
  Pr  Pr2       1.0  0.71956  0.97701  0.92790  1.0000
  H   H1        1.0  0.23426  0.41879  0.06992  1.0000
  H   H2        1.0  0.76574  0.58121  0.93009  1.0000
  H   H3        1.0  0.28048  0.30312  0.94682  1.0000
  H   H4        1.0  0.71952  0.69688  0.05318  1.0000
  H   H5        1.0  0.96649  0.42344  0.87998  1.0000
  H   H6        1.0  0.03351  0.57656  0.12003  1.0000
  H   H7        1.0  0.05458  0.33310  0.76866  1.0000
  H   H8        1.0  0.94543  0.66690  0.23135  1.0000
  H   H9        1.0  0.83244  0.80091  0.51931  1.0000
  H   H10       1.0  0.16755  0.19909  0.48069  1.0000
  H   H11       1.0  0.08485  0.83878  0.57630  1.0000
  H   H12       1.0  0.91515  0.16122  0.42370  1.0000
  H   H13       1.0  0.08057  0.64622  0.82718  1.0000
  H   H14       1.0  0.91943  0.35379  0.17282  1.0000
  H   H15       1.0  0.15532  0.53796  0.71340  1.0000
  H   H16       1.0  0.84468  0.46204  0.28660  1.0000
  H   H17       1.0  0.14120  0.09282  0.64482  1.0000
  H   H18       1.0  0.85880  0.90718  0.35518  1.0000
  H   H19       1.0  0.89187  0.05375  0.58564  1.0000
  H   H20       1.0  0.10813  0.94624  0.41436  1.0000
  H   H21       1.0  0.28405  0.61698  0.01258  1.0000
  H   H22       1.0  0.71595  0.38302  0.98742  1.0000
  H   H23       1.0  0.38464  0.52438  0.91113  1.0000
  H   H24       1.0  0.61536  0.47562  0.08887  1.0000
  H   H25       1.0  0.51886  0.94994  0.28159  1.0000
  H   H26       1.0  0.48114  0.05006  0.71841  1.0000
  H   H27       1.0  0.66195  0.02308  0.22520  1.0000
  H   H28       1.0  0.33805  0.97692  0.77480  1.0000
  H   H29       1.0  0.48144  0.49072  0.74285  1.0000
  H   H30       1.0  0.51856  0.50928  0.25715  1.0000
  H   H31       1.0  0.67337  0.27240  0.45054  1.0000
  H   H32       1.0  0.32663  0.72760  0.54946  1.0000
  H   H33       1.0  0.42835  0.28512  0.79689  1.0000
  H   H34       1.0  0.57165  0.71488  0.20311  1.0000
  H   H35       1.0  0.62262  0.08214  0.51966  1.0000
  H   H36       1.0  0.37738  0.91786  0.48034  1.0000
  H   H37       1.0  0.70017  0.51566  0.50047  1.0000
  H   H38       1.0  0.29982  0.48435  0.49953  1.0000
  H   H39       1.0  0.64966  0.61506  0.63551  1.0000
  H   H40       1.0  0.35033  0.38495  0.36449  1.0000
  C   C1        1.0  0.98478  0.91497  0.73127  1.0000
  C   C2        1.0  0.01522  0.08503  0.26873  1.0000
  C   C3        1.0  0.16713  0.34041  0.96491  1.0000
  C   C4        1.0  0.83288  0.65959  0.03509  1.0000
  C   C5        1.0  0.09689  0.40596  0.87327  1.0000
  C   C6        1.0  0.90312  0.59404  0.12673  1.0000
  C   C7        1.0  0.97338  0.88001  0.59081  1.0000
  C   C8        1.0  0.02662  0.11998  0.40919  1.0000
  C   C9        1.0  0.19926  0.61192  0.81766  1.0000
  C   C10       1.0  0.80074  0.38808  0.18234  1.0000
  C   C11       1.0  0.01558  0.22136  0.95773  1.0000
  C   C12       1.0  0.98442  0.77864  0.04227  1.0000
  C   C13       1.0  0.00281  0.01255  0.56922  1.0000
  C   C14       1.0  0.99719  0.98745  0.43077  1.0000
  C   C15       1.0  0.25184  0.54286  0.91054  1.0000
  C   C16       1.0  0.74816  0.45714  0.08946  1.0000
  C   C17       1.0  0.37289  0.73533  0.85447  1.0000
  C   C18       1.0  0.62711  0.26467  0.14553  1.0000
  C   C19       1.0  0.51493  0.40119  0.69249  1.0000
  C   C20       1.0  0.48507  0.59881  0.30751  1.0000
  C   C21       1.0  0.62552  0.28257  0.53150  1.0000
  C   C22       1.0  0.37448  0.71743  0.46850  1.0000
  C   C23       1.0  0.48506  0.28731  0.72161  1.0000
  C   C24       1.0  0.51494  0.71269  0.27839  1.0000
  C   C25       1.0  0.58521  0.39936  0.59390  1.0000
  C   C26       1.0  0.41478  0.60064  0.40610  1.0000
  C   C27       1.0  0.59298  0.17417  0.56827  1.0000
  C   C28       1.0  0.40701  0.82583  0.43173  1.0000
  C   C29       1.0  0.59970  0.51321  0.55002  1.0000
  C   C30       1.0  0.40030  0.48679  0.44998  1.0000
  N   N1        1.0  0.52131  0.17414  0.66035  1.0000
  N   N2        1.0  0.47869  0.82587  0.33965  1.0000
  O   O1        1.0  0.06867  0.15268  0.02297  1.0000
  O   O2        1.0  0.93133  0.84732  0.97703  1.0000
  O   O3        1.0  0.15208  0.96073  0.82431  1.0000
  O   O4        1.0  0.84792  0.03927  0.17569  1.0000
  O   O5        1.0  0.54805  0.02306  0.24799  1.0000
  O   O6        1.0  0.45195  0.97694  0.75201  1.0000
  O   O7        1.0  0.41154  0.85361  0.95117  1.0000
  O   O8        1.0  0.58846  0.14639  0.04883  1.0000
  O   O9        1.0  0.83110  0.90326  0.74932  1.0000
  O   O10       1.0  0.16890  0.09674  0.25068  1.0000
  O   O11       1.0  0.48571  0.72058  0.79568  1.0000
  O   O12       1.0  0.51429  0.27942  0.20432  1.0000
  O   O13       1.0  0.84054  0.19145  0.89260  1.0000
  O   O14       1.0  0.15947  0.80855  0.10740  1.0000
