data_image0
_chemical_formula_structural       Cu8H32C48N40
_chemical_formula_sum              "Cu8 H32 C48 N40"
_cell_length_a       8.48659
_cell_length_b       8.65504
_cell_length_c       19.0795
_cell_angle_alpha    89.9999
_cell_angle_beta     90.0001
_cell_angle_gamma    107.848

_space_group_name_H-M_alt    "P 1"
_space_group_IT_number       1

loop_
  _space_group_symop_operation_xyz
  'x, y, z'

loop_
  _atom_site_type_symbol
  _atom_site_label
  _atom_site_symmetry_multiplicity
  _atom_site_fract_x
  _atom_site_fract_y
  _atom_site_fract_z
  _atom_site_occupancy
  Cu  Cu1       1.0  0.54592  0.19041  0.82666  1.0000
  Cu  Cu2       1.0  0.95408  0.30959  0.32666  1.0000
  Cu  Cu3       1.0  0.45408  0.80959  0.17334  1.0000
  Cu  Cu4       1.0  0.04592  0.69041  0.67334  1.0000
  Cu  Cu5       1.0  0.53564  0.56441  0.90833  1.0000
  Cu  Cu6       1.0  0.96436  0.93559  0.40833  1.0000
  Cu  Cu7       1.0  0.46436  0.43559  0.09167  1.0000
  Cu  Cu8       1.0  0.03564  0.06440  0.59167  1.0000
  H   H1        1.0  0.57339  0.84978  0.79476  1.0000
  H   H2        1.0  0.92661  0.65023  0.29476  1.0000
  H   H3        1.0  0.42662  0.15022  0.20524  1.0000
  H   H4        1.0  0.07339  0.34977  0.70524  1.0000
  H   H5        1.0  0.09214  0.90031  0.81858  1.0000
  H   H6        1.0  0.40786  0.59970  0.31858  1.0000
  H   H7        1.0  0.90786  0.09970  0.18142  1.0000
  H   H8        1.0  0.59214  0.40030  0.68142  1.0000
  H   H9        1.0  0.13771  0.19152  0.85185  1.0000
  H   H10       1.0  0.36229  0.30848  0.35185  1.0000
  H   H11       1.0  0.86230  0.80848  0.14815  1.0000
  H   H12       1.0  0.63771  0.69152  0.64815  1.0000
  H   H13       1.0  0.89128  0.29092  0.86138  1.0000
  H   H14       1.0  0.60872  0.20908  0.36138  1.0000
  H   H15       1.0  0.10872  0.70908  0.13862  1.0000
  H   H16       1.0  0.39128  0.79092  0.63862  1.0000
  H   H17       1.0  0.01019  0.85683  0.96915  1.0000
  H   H18       1.0  0.48982  0.64317  0.46914  1.0000
  H   H19       1.0  0.98982  0.14317  0.03086  1.0000
  H   H20       1.0  0.51018  0.35683  0.53086  1.0000
  H   H21       1.0  0.51689  0.90273  0.91599  1.0000
  H   H22       1.0  0.98311  0.59727  0.41599  1.0000
  H   H23       1.0  0.48311  0.09727  0.08401  1.0000
  H   H24       1.0  0.01689  0.40273  0.58401  1.0000
  H   H25       1.0  0.16756  0.44806  0.90659  1.0000
  H   H26       1.0  0.33244  0.05194  0.40659  1.0000
  H   H27       1.0  0.83244  0.55194  0.09341  1.0000
  H   H28       1.0  0.66756  0.94806  0.59341  1.0000
  H   H29       1.0  0.94044  0.56082  0.94209  1.0000
  H   H30       1.0  0.55956  0.93919  0.44209  1.0000
  H   H31       1.0  0.05956  0.43918  0.05791  1.0000
  H   H32       1.0  0.44044  0.06082  0.55791  1.0000
  C   C1        1.0  0.26984  0.90337  0.94304  1.0000
  C   C2        1.0  0.23016  0.59663  0.44304  1.0000
  C   C3        1.0  0.73016  0.09663  0.05696  1.0000
  C   C4        1.0  0.76983  0.40337  0.55696  1.0000
  C   C5        1.0  0.31751  0.07837  0.95556  1.0000
  C   C6        1.0  0.18249  0.42163  0.45556  1.0000
  C   C7        1.0  0.68249  0.92162  0.04444  1.0000
  C   C8        1.0  0.81751  0.57837  0.54444  1.0000
  C   C9        1.0  0.69944  0.92022  0.80909  1.0000
  C   C10       1.0  0.80056  0.57978  0.30909  1.0000
  C   C11       1.0  0.30056  0.07978  0.19091  1.0000
  C   C12       1.0  0.19944  0.42022  0.69091  1.0000
  C   C13       1.0  0.82880  0.85132  0.80692  1.0000
  C   C14       1.0  0.67120  0.64868  0.30692  1.0000
  C   C15       1.0  0.17120  0.14867  0.19308  1.0000
  C   C16       1.0  0.32881  0.35133  0.69308  1.0000
  C   C17       1.0  0.98973  0.95056  0.82100  1.0000
  C   C18       1.0  0.51027  0.54944  0.32100  1.0000
  C   C19       1.0  0.01027  0.04944  0.17900  1.0000
  C   C20       1.0  0.48973  0.45056  0.67900  1.0000
  C   C21       1.0  0.01425  0.11132  0.83995  1.0000
  C   C22       1.0  0.48575  0.38868  0.33995  1.0000
  C   C23       1.0  0.98575  0.88868  0.16005  1.0000
  C   C24       1.0  0.51425  0.61132  0.66005  1.0000
  C   C25       1.0  0.87810  0.16741  0.84480  1.0000
  C   C26       1.0  0.62189  0.33260  0.34480  1.0000
  C   C27       1.0  0.12190  0.83260  0.15520  1.0000
  C   C28       1.0  0.37810  0.66740  0.65520  1.0000
  C   C29       1.0  0.10617  0.80483  0.95273  1.0000
  C   C30       1.0  0.39383  0.69518  0.45273  1.0000
  C   C31       1.0  0.89383  0.19517  0.04727  1.0000
  C   C32       1.0  0.60617  0.30482  0.54727  1.0000
  C   C33       1.0  0.38794  0.83024  0.92187  1.0000
  C   C34       1.0  0.11206  0.66976  0.42187  1.0000
  C   C35       1.0  0.61206  0.16976  0.07813  1.0000
  C   C36       1.0  0.88794  0.33024  0.57813  1.0000
  C   C37       1.0  0.19259  0.57706  0.91695  1.0000
  C   C38       1.0  0.30741  0.92294  0.41695  1.0000
  C   C39       1.0  0.80741  0.42294  0.08305  1.0000
  C   C40       1.0  0.69259  0.07706  0.58304  1.0000
  C   C41       1.0  0.06742  0.63997  0.93757  1.0000
  C   C42       1.0  0.43258  0.86003  0.43756  1.0000
  C   C43       1.0  0.93258  0.36003  0.06244  1.0000
  C   C44       1.0  0.56742  0.13997  0.56243  1.0000
  C   C45       1.0  0.79746  0.67783  0.79471  1.0000
  C   C46       1.0  0.70254  0.82217  0.29471  1.0000
  C   C47       1.0  0.20254  0.32217  0.20529  1.0000
  C   C48       1.0  0.29746  0.17783  0.70529  1.0000
  N   N1        1.0  0.42292  0.19408  0.91529  1.0000
  N   N2        1.0  0.07707  0.30592  0.41529  1.0000
  N   N3        1.0  0.57708  0.80592  0.08471  1.0000
  N   N4        1.0  0.92292  0.69408  0.58471  1.0000
  N   N5        1.0  0.72299  0.07586  0.82789  1.0000
  N   N6        1.0  0.77701  0.42414  0.32789  1.0000
  N   N7        1.0  0.27701  0.92414  0.17211  1.0000
  N   N8        1.0  0.22299  0.57586  0.67211  1.0000
  N   N9        1.0  0.43218  0.33601  0.94672  1.0000
  N   N10       1.0  0.06782  0.16399  0.44672  1.0000
  N   N11       1.0  0.56782  0.66399  0.05328  1.0000
  N   N12       1.0  0.93218  0.83601  0.55328  1.0000
  N   N13       1.0  0.26340  0.14559  0.01048  1.0000
  N   N14       1.0  0.23660  0.35441  0.51048  1.0000
  N   N15       1.0  0.73660  0.85441  0.98952  1.0000
  N   N16       1.0  0.76340  0.64559  0.48952  1.0000
  N   N17       1.0  0.33842  0.30600  0.00461  1.0000
  N   N18       1.0  0.16158  0.19400  0.50461  1.0000
  N   N19       1.0  0.66158  0.69400  0.99539  1.0000
  N   N20       1.0  0.83842  0.80600  0.49539  1.0000
  N   N21       1.0  0.35246  0.66930  0.91073  1.0000
  N   N22       1.0  0.14754  0.83070  0.41073  1.0000
  N   N23       1.0  0.64754  0.33070  0.08927  1.0000
  N   N24       1.0  0.85246  0.16930  0.58927  1.0000
  N   N25       1.0  0.68253  0.56057  0.82975  1.0000
  N   N26       1.0  0.81747  0.93943  0.32975  1.0000
  N   N27       1.0  0.31747  0.43943  0.17025  1.0000
  N   N28       1.0  0.18253  0.06057  0.67025  1.0000
  N   N29       1.0  0.69919  0.41887  0.80643  1.0000
  N   N30       1.0  0.80081  0.08113  0.30644  1.0000
  N   N31       1.0  0.30081  0.58113  0.19357  1.0000
  N   N32       1.0  0.19919  0.91887  0.69356  1.0000
  N   N33       1.0  0.88353  0.60959  0.75138  1.0000
  N   N34       1.0  0.61648  0.89041  0.25138  1.0000
  N   N35       1.0  0.11648  0.39041  0.24862  1.0000
  N   N36       1.0  0.38352  0.10959  0.74862  1.0000
  N   N37       1.0  0.81940  0.44781  0.75960  1.0000
  N   N38       1.0  0.68060  0.05220  0.25960  1.0000
  N   N39       1.0  0.18060  0.55219  0.24040  1.0000
  N   N40       1.0  0.31939  0.94780  0.74040  1.0000
