data_image0
_chemical_formula_structural       Cd8Cu4H32C48N40Cl12
_chemical_formula_sum              "Cd8 Cu4 H32 C48 N40 Cl12"
_cell_length_a       6.62004
_cell_length_b       14.957
_cell_length_c       17.9513
_cell_angle_alpha    90
_cell_angle_beta     90.0002
_cell_angle_gamma    89.9999

_space_group_name_H-M_alt    "P 1"
_space_group_IT_number       1

loop_
  _space_group_symop_operation_xyz
  'x, y, z'

loop_
  _atom_site_type_symbol
  _atom_site_label
  _atom_site_symmetry_multiplicity
  _atom_site_fract_x
  _atom_site_fract_y
  _atom_site_fract_z
  _atom_site_occupancy
  Cd  Cd1       1.0  0.75982  0.61671  0.29778  1.0000
  Cd  Cd2       1.0  0.24018  0.11671  0.70222  1.0000
  Cd  Cd3       1.0  0.24018  0.88329  0.79778  1.0000
  Cd  Cd4       1.0  0.75982  0.38329  0.20222  1.0000
  Cd  Cd5       1.0  0.24018  0.38329  0.70222  1.0000
  Cd  Cd6       1.0  0.75982  0.88329  0.29778  1.0000
  Cd  Cd7       1.0  0.75982  0.11671  0.20222  1.0000
  Cd  Cd8       1.0  0.24018  0.61671  0.79778  1.0000
  Cu  Cu1       1.0  0.32218  0.75000  0.19881  1.0000
  Cu  Cu2       1.0  0.67782  0.25000  0.80119  1.0000
  Cu  Cu3       1.0  0.67782  0.75000  0.69881  1.0000
  Cu  Cu4       1.0  0.32218  0.25000  0.30119  1.0000
  H   H1        1.0  0.91836  0.61954  0.12316  1.0000
  H   H2        1.0  0.08164  0.11954  0.87684  1.0000
  H   H3        1.0  0.08165  0.88046  0.62316  1.0000
  H   H4        1.0  0.91836  0.38046  0.37684  1.0000
  H   H5        1.0  0.08163  0.38046  0.87684  1.0000
  H   H6        1.0  0.91836  0.88046  0.12316  1.0000
  H   H7        1.0  0.91836  0.11954  0.37684  1.0000
  H   H8        1.0  0.08165  0.61954  0.62316  1.0000
  H   H9        1.0  0.67836  0.64872  0.01694  1.0000
  H   H10       1.0  0.32164  0.14872  0.98306  1.0000
  H   H11       1.0  0.32164  0.85129  0.51694  1.0000
  H   H12       1.0  0.67836  0.35128  0.48306  1.0000
  H   H13       1.0  0.32164  0.35128  0.98306  1.0000
  H   H14       1.0  0.67836  0.85128  0.01694  1.0000
  H   H15       1.0  0.67836  0.14872  0.48306  1.0000
  H   H16       1.0  0.32164  0.64872  0.51694  1.0000
  H   H17       1.0  0.81159  0.65129  0.88684  1.0000
  H   H18       1.0  0.18841  0.15129  0.11316  1.0000
  H   H19       1.0  0.18841  0.84871  0.38685  1.0000
  H   H20       1.0  0.81159  0.34871  0.61316  1.0000
  H   H21       1.0  0.18841  0.34870  0.11316  1.0000
  H   H22       1.0  0.81159  0.84871  0.88684  1.0000
  H   H23       1.0  0.81159  0.15129  0.61316  1.0000
  H   H24       1.0  0.18841  0.65130  0.38684  1.0000
  H   H25       1.0  0.39433  0.60011  0.96044  1.0000
  H   H26       1.0  0.60567  0.10011  0.03956  1.0000
  H   H27       1.0  0.60567  0.89989  0.46045  1.0000
  H   H28       1.0  0.39434  0.39989  0.53955  1.0000
  H   H29       1.0  0.60566  0.39989  0.03956  1.0000
  H   H30       1.0  0.39434  0.89989  0.96044  1.0000
  H   H31       1.0  0.39433  0.10011  0.53955  1.0000
  H   H32       1.0  0.60567  0.60011  0.46045  1.0000
  C   C1        1.0  0.32809  0.58322  0.10497  1.0000
  C   C2        1.0  0.67192  0.08322  0.89503  1.0000
  C   C3        1.0  0.67192  0.91678  0.60497  1.0000
  C   C4        1.0  0.32808  0.41678  0.39503  1.0000
  C   C5        1.0  0.67191  0.41678  0.89503  1.0000
  C   C6        1.0  0.32809  0.91678  0.10497  1.0000
  C   C7        1.0  0.32808  0.08322  0.39503  1.0000
  C   C8        1.0  0.67192  0.58322  0.60497  1.0000
  C   C9        1.0  0.17528  0.60818  0.04952  1.0000
  C   C10       1.0  0.82472  0.10818  0.95048  1.0000
  C   C11       1.0  0.82472  0.89182  0.54952  1.0000
  C   C12       1.0  0.17528  0.39182  0.45048  1.0000
  C   C13       1.0  0.82471  0.39182  0.95048  1.0000
  C   C14       1.0  0.17528  0.89182  0.04952  1.0000
  C   C15       1.0  0.17528  0.10818  0.45048  1.0000
  C   C16       1.0  0.82472  0.60818  0.54952  1.0000
  C   C17       1.0  0.97097  0.62254  0.06575  1.0000
  C   C18       1.0  0.02903  0.12254  0.93424  1.0000
  C   C19       1.0  0.02903  0.87746  0.56576  1.0000
  C   C20       1.0  0.97097  0.37746  0.43425  1.0000
  C   C21       1.0  0.02902  0.37746  0.93425  1.0000
  C   C22       1.0  0.97097  0.87746  0.06575  1.0000
  C   C23       1.0  0.97097  0.12254  0.43425  1.0000
  C   C24       1.0  0.02903  0.62254  0.56575  1.0000
  C   C25       1.0  0.83873  0.63841  0.00692  1.0000
  C   C26       1.0  0.16127  0.13841  0.99308  1.0000
  C   C27       1.0  0.16127  0.86159  0.50693  1.0000
  C   C28       1.0  0.83874  0.36159  0.49308  1.0000
  C   C29       1.0  0.16126  0.36159  0.99308  1.0000
  C   C30       1.0  0.83873  0.86159  0.00692  1.0000
  C   C31       1.0  0.83873  0.13841  0.49308  1.0000
  C   C32       1.0  0.16127  0.63841  0.50692  1.0000
  C   C33       1.0  0.91173  0.63995  0.93411  1.0000
  C   C34       1.0  0.08827  0.13995  0.06588  1.0000
  C   C35       1.0  0.08827  0.86005  0.43412  1.0000
  C   C36       1.0  0.91173  0.36005  0.56589  1.0000
  C   C37       1.0  0.08827  0.36005  0.06589  1.0000
  C   C38       1.0  0.91173  0.86005  0.93411  1.0000
  C   C39       1.0  0.91173  0.13995  0.56589  1.0000
  C   C40       1.0  0.08827  0.63995  0.43411  1.0000
  C   C41       1.0  0.23703  0.61220  0.97517  1.0000
  C   C42       1.0  0.76297  0.11221  0.02482  1.0000
  C   C43       1.0  0.76297  0.88779  0.47518  1.0000
  C   C44       1.0  0.23703  0.38780  0.52482  1.0000
  C   C45       1.0  0.76297  0.38779  0.02482  1.0000
  C   C46       1.0  0.23703  0.88780  0.97517  1.0000
  C   C47       1.0  0.23702  0.11220  0.52482  1.0000
  C   C48       1.0  0.76297  0.61221  0.47518  1.0000
  N   N1        1.0  0.39612  0.63322  0.16260  1.0000
  N   N2        1.0  0.60388  0.13322  0.83740  1.0000
  N   N3        1.0  0.60388  0.86678  0.66260  1.0000
  N   N4        1.0  0.39612  0.36678  0.33740  1.0000
  N   N5        1.0  0.60388  0.36678  0.83740  1.0000
  N   N6        1.0  0.39612  0.86678  0.16260  1.0000
  N   N7        1.0  0.39612  0.13322  0.33740  1.0000
  N   N8        1.0  0.60388  0.63322  0.66260  1.0000
  N   N9        1.0  0.54504  0.58493  0.19342  1.0000
  N   N10       1.0  0.45496  0.08493  0.80658  1.0000
  N   N11       1.0  0.45496  0.91507  0.69342  1.0000
  N   N12       1.0  0.54504  0.41507  0.30658  1.0000
  N   N13       1.0  0.45496  0.41507  0.80658  1.0000
  N   N14       1.0  0.54504  0.91507  0.19342  1.0000
  N   N15       1.0  0.54504  0.08493  0.30658  1.0000
  N   N16       1.0  0.45496  0.58493  0.69342  1.0000
  N   N17       1.0  0.43126  0.50595  0.10075  1.0000
  N   N18       1.0  0.56874  0.00595  0.89925  1.0000
  N   N19       1.0  0.56874  0.99405  0.60075  1.0000
  N   N20       1.0  0.43126  0.49405  0.39925  1.0000
  N   N21       1.0  0.56874  0.49405  0.89925  1.0000
  N   N22       1.0  0.43126  0.99405  0.10075  1.0000
  N   N23       1.0  0.43126  0.00595  0.39925  1.0000
  N   N24       1.0  0.56875  0.50595  0.60075  1.0000
  N   N25       1.0  0.56366  0.50908  0.15642  1.0000
  N   N26       1.0  0.43634  0.00908  0.84358  1.0000
  N   N27       1.0  0.43634  0.99092  0.65642  1.0000
  N   N28       1.0  0.56366  0.49092  0.34358  1.0000
  N   N29       1.0  0.43634  0.49092  0.84358  1.0000
  N   N30       1.0  0.56366  0.99092  0.15642  1.0000
  N   N31       1.0  0.56366  0.00908  0.34358  1.0000
  N   N32       1.0  0.43634  0.50908  0.65642  1.0000
  N   N33       1.0  0.10859  0.62780  0.91875  1.0000
  N   N34       1.0  0.89141  0.12781  0.08125  1.0000
  N   N35       1.0  0.89141  0.87219  0.41876  1.0000
  N   N36       1.0  0.10860  0.37220  0.58125  1.0000
  N   N37       1.0  0.89141  0.37219  0.08125  1.0000
  N   N38       1.0  0.10859  0.87220  0.91875  1.0000
  N   N39       1.0  0.10859  0.12780  0.58125  1.0000
  N   N40       1.0  0.89141  0.62781  0.41875  1.0000
  Cl  Cl1       1.0  0.97641  0.75000  0.23833  1.0000
  Cl  Cl2       1.0  0.02358  0.25000  0.76167  1.0000
  Cl  Cl3       1.0  0.02358  0.75000  0.73833  1.0000
  Cl  Cl4       1.0  0.97642  0.25000  0.26167  1.0000
  Cl  Cl5       1.0  0.49663  0.75000  0.32710  1.0000
  Cl  Cl6       1.0  0.50337  0.25000  0.67289  1.0000
  Cl  Cl7       1.0  0.50337  0.75000  0.82711  1.0000
  Cl  Cl8       1.0  0.49663  0.25000  0.17290  1.0000
  Cl  Cl9       1.0  0.02285  0.50000  0.25000  1.0000
  Cl  Cl10      1.0  0.97715  0.00000  0.75000  1.0000
  Cl  Cl11      1.0  0.97715  0.50000  0.75000  1.0000
  Cl  Cl12      1.0  0.02285  1.00000  0.25000  1.0000
