data_image0
_chemical_formula_structural       Mn3H26C24O22
_chemical_formula_sum              "Mn3 H26 C24 O22"
_cell_length_a       4.66861
_cell_length_b       12.4777
_cell_length_c       14.3767
_cell_angle_alpha    63.5264
_cell_angle_beta     83.2525
_cell_angle_gamma    79.8525

_space_group_name_H-M_alt    "P 1"
_space_group_IT_number       1

loop_
  _space_group_symop_operation_xyz
  'x, y, z'

loop_
  _atom_site_type_symbol
  _atom_site_label
  _atom_site_symmetry_multiplicity
  _atom_site_fract_x
  _atom_site_fract_y
  _atom_site_fract_z
  _atom_site_occupancy
  Mn  Mn1       1.0  0.99999  0.00000  0.50000  1.0000
  Mn  Mn2       1.0  0.32344  0.61904  0.89746  1.0000
  Mn  Mn3       1.0  0.67657  0.38096  0.10255  1.0000
  H   H1        1.0  0.40815  0.78466  0.01678  1.0000
  H   H2        1.0  0.59186  0.21535  0.98322  1.0000
  H   H3        1.0  0.45817  0.66327  0.14112  1.0000
  H   H4        1.0  0.54183  0.33674  0.85888  1.0000
  H   H5        1.0  0.81303  0.56595  0.22569  1.0000
  H   H6        1.0  0.18697  0.43405  0.77431  1.0000
  H   H7        1.0  0.79864  0.40252  0.35796  1.0000
  H   H8        1.0  0.20136  0.59747  0.64204  1.0000
  H   H9        1.0  0.08407  0.28720  0.42505  1.0000
  H   H10       1.0  0.91593  0.71280  0.57495  1.0000
  H   H11       1.0  0.38903  0.61047  0.41430  1.0000
  H   H12       1.0  0.61097  0.38953  0.58570  1.0000
  H   H13       1.0  0.99180  0.92359  0.15225  1.0000
  H   H14       1.0  0.00821  0.07641  0.84775  1.0000
  H   H15       1.0  0.69703  0.77653  0.80634  1.0000
  H   H16       1.0  0.30298  0.22347  0.19366  1.0000
  H   H17       1.0  0.43726  0.88207  0.78470  1.0000
  H   H18       1.0  0.56274  0.11793  0.21530  1.0000
  H   H19       1.0  0.81851  0.21445  0.32701  1.0000
  H   H20       1.0  0.18147  0.78555  0.67299  1.0000
  H   H21       1.0  0.58654  0.11656  0.37821  1.0000
  H   H22       1.0  0.41345  0.88344  0.62179  1.0000
  H   H23       1.0  0.68998  0.75072  0.38554  1.0000
  H   H24       1.0  0.31002  0.24928  0.61446  1.0000
  H   H25       1.0  0.36593  0.75572  0.46441  1.0000
  H   H26       1.0  0.63408  0.24428  0.53559  1.0000
  C   C1        1.0  0.77485  0.65591  0.02143  1.0000
  C   C2        1.0  0.22516  0.34409  0.97857  1.0000
  C   C3        1.0  0.57408  0.72602  0.07271  1.0000
  C   C4        1.0  0.42592  0.27399  0.92729  1.0000
  C   C5        1.0  0.15955  0.37031  0.26076  1.0000
  C   C6        1.0  0.84045  0.62970  0.73925  1.0000
  C   C7        1.0  0.92393  0.62461  0.24198  1.0000
  C   C8        1.0  0.07607  0.37539  0.75802  1.0000
  C   C9        1.0  0.88438  0.74987  0.18009  1.0000
  C   C10       1.0  0.11563  0.25013  0.81991  1.0000
  C   C11       1.0  0.10836  0.57717  0.32492  1.0000
  C   C12       1.0  0.89164  0.42283  0.67508  1.0000
  C   C13       1.0  0.03729  0.37824  0.36099  1.0000
  C   C14       1.0  0.96271  0.62176  0.63901  1.0000
  C   C15       1.0  0.24566  0.65169  0.34946  1.0000
  C   C16       1.0  0.75434  0.34831  0.65054  1.0000
  C   C17       1.0  0.19866  0.77658  0.28699  1.0000
  C   C18       1.0  0.80134  0.22342  0.71301  1.0000
  C   C19       1.0  0.02080  0.82664  0.20153  1.0000
  C   C20       1.0  0.97921  0.17336  0.79847  1.0000
  C   C21       1.0  0.57456  0.91112  0.40974  1.0000
  C   C22       1.0  0.42543  0.08889  0.59025  1.0000
  C   C23       1.0  0.49198  0.80889  0.39351  1.0000
  C   C24       1.0  0.50802  0.19111  0.60649  1.0000
  O   O1        1.0  0.39242  0.41153  0.21821  1.0000
  O   O2        1.0  0.60759  0.58847  0.78179  1.0000
  O   O3        1.0  0.01835  0.31351  0.22818  1.0000
  O   O4        1.0  0.98166  0.68649  0.77182  1.0000
  O   O5        1.0  0.02549  0.68297  0.98765  1.0000
  O   O6        1.0  0.97452  0.31703  0.01235  1.0000
  O   O7        1.0  0.49779  0.79776  0.83177  1.0000
  O   O8        1.0  0.50221  0.20223  0.16823  1.0000
  O   O9        1.0  0.66748  0.57269  0.01129  1.0000
  O   O10       1.0  0.33253  0.42731  0.98871  1.0000
  O   O11       1.0  0.17008  0.45501  0.38664  1.0000
  O   O12       1.0  0.82990  0.54499  0.61336  1.0000
  O   O13       1.0  0.71313  0.80337  0.09561  1.0000
  O   O14       1.0  0.28687  0.19663  0.90439  1.0000
  O   O15       1.0  0.32084  0.85749  0.30439  1.0000
  O   O16       1.0  0.67916  0.14251  0.69561  1.0000
  O   O17       1.0  0.39933  0.01073  0.38257  1.0000
  O   O18       1.0  0.60066  0.98927  0.61743  1.0000
  O   O19       1.0  0.81209  0.88923  0.45368  1.0000
  O   O20       1.0  0.18791  0.11078  0.54632  1.0000
  O   O21       1.0  0.73312  0.15598  0.39318  1.0000
  O   O22       1.0  0.26685  0.84402  0.60681  1.0000
