data_image0
_chemical_formula_structural       Zn4P4H20C8N16O12
_chemical_formula_sum              "Zn4 P4 H20 C8 N16 O12"
_cell_length_a       8.19096
_cell_length_b       9.16396
_cell_length_c       9.83727
_cell_angle_alpha    103.74
_cell_angle_beta     90
_cell_angle_gamma    90

_space_group_name_H-M_alt    "P 1"
_space_group_IT_number       1

loop_
  _space_group_symop_operation_xyz
  'x, y, z'

loop_
  _atom_site_type_symbol
  _atom_site_label
  _atom_site_symmetry_multiplicity
  _atom_site_fract_x
  _atom_site_fract_y
  _atom_site_fract_z
  _atom_site_occupancy
  Zn  Zn1       1.0  0.10483  0.03834  0.31940  1.0000
  Zn  Zn2       1.0  0.60483  0.46166  0.68060  1.0000
  Zn  Zn3       1.0  0.89517  0.96166  0.68060  1.0000
  Zn  Zn4       1.0  0.39517  0.53834  0.31940  1.0000
  P   P1        1.0  0.16767  0.78862  0.48248  1.0000
  P   P2        1.0  0.66767  0.71138  0.51752  1.0000
  P   P3        1.0  0.83232  0.21138  0.51752  1.0000
  P   P4        1.0  0.33233  0.28862  0.48248  1.0000
  H   H1        1.0  0.31997  0.86120  0.50229  1.0000
  H   H2        1.0  0.81997  0.63880  0.49771  1.0000
  H   H3        1.0  0.68003  0.13880  0.49771  1.0000
  H   H4        1.0  0.18003  0.36120  0.50229  1.0000
  H   H5        1.0  0.47792  0.79954  0.77066  1.0000
  H   H6        1.0  0.97792  0.70046  0.22934  1.0000
  H   H7        1.0  0.52208  0.20046  0.22934  1.0000
  H   H8        1.0  0.02208  0.29954  0.77066  1.0000
  H   H9        1.0  0.33347  0.81638  0.90097  1.0000
  H   H10       1.0  0.83346  0.68362  0.09903  1.0000
  H   H11       1.0  0.66654  0.18362  0.09903  1.0000
  H   H12       1.0  0.16654  0.31638  0.90097  1.0000
  H   H13       1.0  0.53142  0.99869  0.67009  1.0000
  H   H14       1.0  0.03142  0.50131  0.32991  1.0000
  H   H15       1.0  0.46858  0.00131  0.32991  1.0000
  H   H16       1.0  0.96858  0.49869  0.67009  1.0000
  H   H17       1.0  0.42132  0.16746  0.72135  1.0000
  H   H18       1.0  0.92132  0.33254  0.27865  1.0000
  H   H19       1.0  0.57869  0.83254  0.27865  1.0000
  H   H20       1.0  0.07868  0.66746  0.72135  1.0000
  C   C1        1.0  0.20564  0.05996  0.02495  1.0000
  C   C2        1.0  0.70564  0.44004  0.97505  1.0000
  C   C3        1.0  0.79437  0.94004  0.97504  1.0000
  C   C4        1.0  0.29436  0.55996  0.02495  1.0000
  C   C5        1.0  0.37415  0.00911  0.83387  1.0000
  C   C6        1.0  0.87415  0.49089  0.16613  1.0000
  C   C7        1.0  0.62585  0.99089  0.16614  1.0000
  C   C8        1.0  0.12585  0.50911  0.83387  1.0000
  N   N1        1.0  0.14494  0.03197  0.12471  1.0000
  N   N2        1.0  0.64494  0.46803  0.87529  1.0000
  N   N3        1.0  0.85506  0.96803  0.87529  1.0000
  N   N4        1.0  0.35506  0.53197  0.12471  1.0000
  N   N5        1.0  0.26459  0.09914  0.91827  1.0000
  N   N6        1.0  0.76459  0.40086  0.08173  1.0000
  N   N7        1.0  0.73542  0.90086  0.08173  1.0000
  N   N8        1.0  0.23541  0.59914  0.91827  1.0000
  N   N9        1.0  0.40936  0.86999  0.84639  1.0000
  N   N10       1.0  0.90937  0.63001  0.15361  1.0000
  N   N11       1.0  0.59064  0.13001  0.15361  1.0000
  N   N12       1.0  0.09063  0.36999  0.84639  1.0000
  N   N13       1.0  0.45062  0.06439  0.73776  1.0000
  N   N14       1.0  0.95062  0.43561  0.26224  1.0000
  N   N15       1.0  0.54938  0.93561  0.26224  1.0000
  N   N16       1.0  0.04938  0.56439  0.73775  1.0000
  O   O1        1.0  0.07419  0.84633  0.36918  1.0000
  O   O2        1.0  0.57419  0.65368  0.63082  1.0000
  O   O3        1.0  0.92581  0.15368  0.63082  1.0000
  O   O4        1.0  0.42581  0.34633  0.36918  1.0000
  O   O5        1.0  0.08039  0.82500  0.62504  1.0000
  O   O6        1.0  0.58039  0.67500  0.37496  1.0000
  O   O7        1.0  0.91961  0.17500  0.37496  1.0000
  O   O8        1.0  0.41961  0.32500  0.62505  1.0000
  O   O9        1.0  0.19863  0.61852  0.43251  1.0000
  O   O10       1.0  0.69863  0.88148  0.56749  1.0000
  O   O11       1.0  0.80136  0.38148  0.56749  1.0000
  O   O12       1.0  0.30137  0.11853  0.43251  1.0000
