data_image0
_chemical_formula_structural       Zn4P4H20C8N16O12
_chemical_formula_sum              "Zn4 P4 H20 C8 N16 O12"
_cell_length_a       8.83948
_cell_length_b       8.83949
_cell_length_c       10.3489
_cell_angle_alpha    70.2576
_cell_angle_beta     70.2576
_cell_angle_gamma    73.84

_space_group_name_H-M_alt    "P 1"
_space_group_IT_number       1

loop_
  _space_group_symop_operation_xyz
  'x, y, z'

loop_
  _atom_site_type_symbol
  _atom_site_label
  _atom_site_symmetry_multiplicity
  _atom_site_fract_x
  _atom_site_fract_y
  _atom_site_fract_z
  _atom_site_occupancy
  Zn  Zn1       1.0  0.27377  0.55973  0.95613  1.0000
  Zn  Zn2       1.0  0.44027  0.72624  0.54387  1.0000
  Zn  Zn3       1.0  0.72623  0.44026  0.04387  1.0000
  Zn  Zn4       1.0  0.55973  0.27377  0.45613  1.0000
  P   P1        1.0  0.61628  0.67279  0.77543  1.0000
  P   P2        1.0  0.32721  0.38373  0.72456  1.0000
  P   P3        1.0  0.38372  0.32721  0.22457  1.0000
  P   P4        1.0  0.67279  0.61628  0.27543  1.0000
  H   H1        1.0  0.67259  0.81822  0.74584  1.0000
  H   H2        1.0  0.18178  0.32741  0.75416  1.0000
  H   H3        1.0  0.32741  0.18178  0.25416  1.0000
  H   H4        1.0  0.81823  0.67259  0.24584  1.0000
  H   H5        1.0  0.61071  0.13821  0.78867  1.0000
  H   H6        1.0  0.86179  0.38929  0.71133  1.0000
  H   H7        1.0  0.38929  0.86179  0.21133  1.0000
  H   H8        1.0  0.13821  0.61071  0.28867  1.0000
  H   H9        1.0  0.55969  0.21117  0.93586  1.0000
  H   H10       1.0  0.78882  0.44031  0.56414  1.0000
  H   H11       1.0  0.44032  0.78882  0.06414  1.0000
  H   H12       1.0  0.21118  0.55968  0.43586  1.0000
  H   H13       1.0  0.69379  0.09497  0.10939  1.0000
  H   H14       1.0  0.90503  0.30620  0.39061  1.0000
  H   H15       1.0  0.30621  0.90503  0.89061  1.0000
  H   H16       1.0  0.09497  0.69379  0.60939  1.0000
  H   H17       1.0  0.85076  0.92168  0.10171  1.0000
  H   H18       1.0  0.07832  0.14924  0.39829  1.0000
  H   H19       1.0  0.14924  0.07832  0.89829  1.0000
  H   H20       1.0  0.92168  0.85076  0.60171  1.0000
  C   C1        1.0  0.95757  0.79839  0.89734  1.0000
  C   C2        1.0  0.20161  0.04243  0.60266  1.0000
  C   C3        1.0  0.04242  0.20161  0.10266  1.0000
  C   C4        1.0  0.79840  0.95757  0.39734  1.0000
  C   C5        1.0  0.74780  0.01348  0.93302  1.0000
  C   C6        1.0  0.98652  0.25220  0.56698  1.0000
  C   C7        1.0  0.25220  0.98652  0.06698  1.0000
  C   C8        1.0  0.01348  0.74780  0.43302  1.0000
  N   N1        1.0  0.06755  0.69464  0.92680  1.0000
  N   N2        1.0  0.30536  0.93246  0.57320  1.0000
  N   N3        1.0  0.93245  0.30535  0.07320  1.0000
  N   N4        1.0  0.69464  0.06755  0.42680  1.0000
  N   N5        1.0  0.84098  0.90707  0.85566  1.0000
  N   N6        1.0  0.09293  0.15902  0.64434  1.0000
  N   N7        1.0  0.15902  0.09293  0.14434  1.0000
  N   N8        1.0  0.90707  0.84098  0.35566  1.0000
  N   N9        1.0  0.63144  0.12673  0.88304  1.0000
  N   N10       1.0  0.87327  0.36856  0.61696  1.0000
  N   N11       1.0  0.36856  0.87327  0.11696  1.0000
  N   N12       1.0  0.12673  0.63144  0.38304  1.0000
  N   N13       1.0  0.76861  0.01046  0.05653  1.0000
  N   N14       1.0  0.98954  0.23139  0.44347  1.0000
  N   N15       1.0  0.23139  0.98954  0.94346  1.0000
  N   N16       1.0  0.01046  0.76861  0.55654  1.0000
  O   O1        1.0  0.44346  0.70046  0.87837  1.0000
  O   O2        1.0  0.29955  0.55654  0.62163  1.0000
  O   O3        1.0  0.55654  0.29954  0.12163  1.0000
  O   O4        1.0  0.70046  0.44346  0.37837  1.0000
  O   O5        1.0  0.73785  0.53046  0.84191  1.0000
  O   O6        1.0  0.46954  0.26215  0.65809  1.0000
  O   O7        1.0  0.26215  0.46954  0.15809  1.0000
  O   O8        1.0  0.53046  0.73785  0.34191  1.0000
  O   O9        1.0  0.61804  0.65167  0.63373  1.0000
  O   O10       1.0  0.34833  0.38196  0.86627  1.0000
  O   O11       1.0  0.38196  0.34833  0.36627  1.0000
  O   O12       1.0  0.65167  0.61804  0.13373  1.0000
