data_image0
_chemical_formula_structural       H18Pb2C26S2N2O10
_chemical_formula_sum              "H18 Pb2 C26 S2 N2 O10"
_cell_length_a       7.89138
_cell_length_b       8.24323
_cell_length_c       11.5464
_cell_angle_alpha    107.979
_cell_angle_beta     101.967
_cell_angle_gamma    102.063

_space_group_name_H-M_alt    "P 1"
_space_group_IT_number       1

loop_
  _space_group_symop_operation_xyz
  'x, y, z'

loop_
  _atom_site_type_symbol
  _atom_site_label
  _atom_site_symmetry_multiplicity
  _atom_site_fract_x
  _atom_site_fract_y
  _atom_site_fract_z
  _atom_site_occupancy
  H   H1        1.0  0.95866  0.07691  0.42377  1.0000
  H   H2        1.0  0.04134  0.92308  0.57622  1.0000
  H   H3        1.0  0.64109  0.96655  0.28295  1.0000
  H   H4        1.0  0.35891  0.03345  0.71705  1.0000
  H   H5        1.0  0.84488  0.12891  0.00385  1.0000
  H   H6        1.0  0.15511  0.87109  0.99615  1.0000
  H   H7        1.0  0.15595  0.23233  0.15622  1.0000
  H   H8        1.0  0.84404  0.76767  0.84377  1.0000
  H   H9        1.0  0.42919  0.92660  0.09473  1.0000
  H   H10       1.0  0.57080  0.07340  0.90527  1.0000
  H   H11       1.0  0.01672  0.39368  0.58624  1.0000
  H   H12       1.0  0.98328  0.60632  0.41377  1.0000
  H   H13       1.0  0.97826  0.31970  0.93443  1.0000
  H   H14       1.0  0.02174  0.68031  0.06558  1.0000
  H   H15       1.0  0.30084  0.50142  0.04185  1.0000
  H   H16       1.0  0.69917  0.49858  0.95815  1.0000
  H   H17       1.0  0.48273  0.62307  0.91697  1.0000
  H   H18       1.0  0.51728  0.37694  0.08303  1.0000
  Pb  Pb1       1.0  0.38626  0.22018  0.43883  1.0000
  Pb  Pb2       1.0  0.61374  0.77982  0.56117  1.0000
  C   C1        1.0  0.92871  0.08529  0.32951  1.0000
  C   C2        1.0  0.07129  0.91470  0.67048  1.0000
  C   C3        1.0  0.75172  0.02412  0.25137  1.0000
  C   C4        1.0  0.24827  0.97587  0.74862  1.0000
  C   C5        1.0  0.71496  0.04097  0.13181  1.0000
  C   C6        1.0  0.28503  0.95903  0.86819  1.0000
  C   C7        1.0  0.86416  0.11542  0.09623  1.0000
  C   C8        1.0  0.13583  0.88458  0.90377  1.0000
  C   C9        1.0  0.03723  0.17256  0.17982  1.0000
  C   C10       1.0  0.96277  0.82744  0.82018  1.0000
  C   C11       1.0  0.52764  0.98712  0.05498  1.0000
  C   C12       1.0  0.47236  0.01288  0.94503  1.0000
  C   C13       1.0  0.37372  0.58348  0.67118  1.0000
  C   C14       1.0  0.62628  0.41652  0.32882  1.0000
  C   C15       1.0  0.26270  0.51194  0.74432  1.0000
  C   C16       1.0  0.73731  0.48806  0.25568  1.0000
  C   C17       1.0  0.07977  0.41470  0.68516  1.0000
  C   C18       1.0  0.92024  0.58530  0.31485  1.0000
  C   C19       1.0  0.97917  0.34815  0.75534  1.0000
  C   C20       1.0  0.02084  0.65185  0.24467  1.0000
  C   C21       1.0  0.05895  0.37507  0.88231  1.0000
  C   C22       1.0  0.94106  0.62494  0.11770  1.0000
  C   C23       1.0  0.24027  0.47509  0.94148  1.0000
  C   C24       1.0  0.75974  0.52492  0.05852  1.0000
  C   C25       1.0  0.34153  0.54385  0.87281  1.0000
  C   C26       1.0  0.65847  0.45615  0.12719  1.0000
  S   S1        1.0  0.74339  0.23378  0.68462  1.0000
  S   S2        1.0  0.25661  0.76623  0.31538  1.0000
  N   N1        1.0  0.06949  0.15904  0.29528  1.0000
  N   N2        1.0  0.93050  0.84096  0.70471  1.0000
  O   O1        1.0  0.64662  0.36891  0.70533  1.0000
  O   O2        1.0  0.35338  0.63109  0.29468  1.0000
  O   O3        1.0  0.72036  0.13695  0.54795  1.0000
  O   O4        1.0  0.27964  0.86305  0.45205  1.0000
  O   O5        1.0  0.69970  0.10756  0.74928  1.0000
  O   O6        1.0  0.30031  0.89244  0.25073  1.0000
  O   O7        1.0  0.32070  0.51358  0.54921  1.0000
  O   O8        1.0  0.67930  0.48642  0.45079  1.0000
  O   O9        1.0  0.51743  0.71392  0.73274  1.0000
  O   O10       1.0  0.48258  0.28608  0.26725  1.0000
