data_image0
_chemical_formula_structural       Zn2H18C30N6O12
_chemical_formula_sum              "Zn2 H18 C30 N6 O12"
_cell_length_a       8.61638
_cell_length_b       9.61519
_cell_length_c       10.2306
_cell_angle_alpha    61.3905
_cell_angle_beta     83.5133
_cell_angle_gamma    77.5836

_space_group_name_H-M_alt    "P 1"
_space_group_IT_number       1

loop_
  _space_group_symop_operation_xyz
  'x, y, z'

loop_
  _atom_site_type_symbol
  _atom_site_label
  _atom_site_symmetry_multiplicity
  _atom_site_fract_x
  _atom_site_fract_y
  _atom_site_fract_z
  _atom_site_occupancy
  Zn  Zn1       1.0  0.66130  0.55569  0.85455  1.0000
  Zn  Zn2       1.0  0.33870  0.44431  0.14545  1.0000
  H   H1        1.0  0.43446  0.15049  0.63217  1.0000
  H   H2        1.0  0.56554  0.84951  0.36783  1.0000
  H   H3        1.0  0.61046  0.58203  0.33965  1.0000
  H   H4        1.0  0.38954  0.41797  0.66035  1.0000
  H   H5        1.0  0.95671  0.22368  0.27366  1.0000
  H   H6        1.0  0.04329  0.77632  0.72634  1.0000
  H   H7        1.0  0.97686  0.28541  0.66219  1.0000
  H   H8        1.0  0.02314  0.71459  0.33781  1.0000
  H   H9        1.0  0.44129  0.88210  0.63846  1.0000
  H   H10       1.0  0.55871  0.11790  0.36154  1.0000
  H   H11       1.0  0.58108  0.25295  0.80993  1.0000
  H   H12       1.0  0.41892  0.74705  0.19007  1.0000
  H   H13       1.0  0.78668  0.14304  0.00344  1.0000
  H   H14       1.0  0.21332  0.85696  0.99656  1.0000
  H   H15       1.0  0.92684  0.86046  0.10676  1.0000
  H   H16       1.0  0.07317  0.13954  0.89324  1.0000
  H   H17       1.0  0.86453  0.67384  0.02444  1.0000
  H   H18       1.0  0.13547  0.32616  0.97556  1.0000
  C   C1        1.0  0.79113  0.44915  0.50640  1.0000
  C   C2        1.0  0.20887  0.55086  0.49360  1.0000
  C   C3        1.0  0.71559  0.48772  0.37652  1.0000
  C   C4        1.0  0.28441  0.51228  0.62348  1.0000
  C   C5        1.0  0.77330  0.40661  0.29292  1.0000
  C   C6        1.0  0.22670  0.59339  0.70708  1.0000
  C   C7        1.0  0.90898  0.28617  0.33850  1.0000
  C   C8        1.0  0.09102  0.71383  0.66150  1.0000
  C   C9        1.0  0.97725  0.24364  0.47292  1.0000
  C   C10       1.0  0.02275  0.75636  0.52708  1.0000
  C   C11       1.0  0.92089  0.32191  0.55790  1.0000
  C   C12       1.0  0.07910  0.67810  0.44210  1.0000
  C   C13       1.0  0.73032  0.53992  0.59282  1.0000
  C   C14       1.0  0.26968  0.46008  0.40718  1.0000
  C   C15       1.0  0.68633  0.44976  0.15638  1.0000
  C   C16       1.0  0.31367  0.55024  0.84362  1.0000
  C   C17       1.0  0.51116  0.89959  0.70936  1.0000
  C   C18       1.0  0.48884  0.10041  0.29064  1.0000
  C   C19       1.0  0.60591  0.02206  0.81047  1.0000
  C   C20       1.0  0.39409  0.97794  0.18953  1.0000
  C   C21       1.0  0.64109  0.12777  0.85541  1.0000
  C   C22       1.0  0.35891  0.87223  0.14459  1.0000
  C   C23       1.0  0.75612  0.06502  0.96436  1.0000
  C   C24       1.0  0.24389  0.93498  0.03564  1.0000
  C   C25       1.0  0.83497  0.90313  0.02441  1.0000
  C   C26       1.0  0.16504  0.09687  0.97559  1.0000
  C   C27       1.0  0.79971  0.79743  0.98003  1.0000
  C   C28       1.0  0.20029  0.20257  0.01997  1.0000
  C   C29       1.0  0.68090  0.85790  0.87375  1.0000
  C   C30       1.0  0.31910  0.14210  0.12625  1.0000
  N   N1        1.0  0.11018  0.10738  0.53056  1.0000
  N   N2        1.0  0.88982  0.89262  0.46944  1.0000
  N   N3        1.0  0.61700  0.78455  0.80848  1.0000
  N   N4        1.0  0.38300  0.21545  0.19152  1.0000
  N   N5        1.0  0.50076  0.04271  0.70695  1.0000
  N   N6        1.0  0.49924  0.95729  0.29305  1.0000
  O   O1        1.0  0.78566  0.47296  0.72605  1.0000
  O   O2        1.0  0.21434  0.52704  0.27395  1.0000
  O   O3        1.0  0.63181  0.66968  0.53565  1.0000
  O   O4        1.0  0.36819  0.33033  0.46435  1.0000
  O   O5        1.0  0.54081  0.51704  0.14787  1.0000
  O   O6        1.0  0.45919  0.48296  0.85213  1.0000
  O   O7        1.0  0.76356  0.42167  0.05457  1.0000
  O   O8        1.0  0.23644  0.57833  0.94543  1.0000
  O   O9        1.0  0.17095  0.04789  0.44821  1.0000
  O   O10       1.0  0.82905  0.95211  0.55179  1.0000
  O   O11       1.0  0.15377  0.05630  0.65985  1.0000
  O   O12       1.0  0.84623  0.94370  0.34014  1.0000
