data_image0
_chemical_formula_structural       Cd2H22C30N6O14
_chemical_formula_sum              "Cd2 H22 C30 N6 O14"
_cell_length_a       8.07309
_cell_length_b       10.1545
_cell_length_c       11.6051
_cell_angle_alpha    68.854
_cell_angle_beta     77.7945
_cell_angle_gamma    66.7843

_space_group_name_H-M_alt    "P 1"
_space_group_IT_number       1

loop_
  _space_group_symop_operation_xyz
  'x, y, z'

loop_
  _atom_site_type_symbol
  _atom_site_label
  _atom_site_symmetry_multiplicity
  _atom_site_fract_x
  _atom_site_fract_y
  _atom_site_fract_z
  _atom_site_occupancy
  Cd  Cd1       1.0  0.66868  0.56765  0.57110  1.0000
  Cd  Cd2       1.0  0.33132  0.43235  0.42890  1.0000
  H   H1        1.0  0.26485  0.32275  0.94862  1.0000
  H   H2        1.0  0.73516  0.67725  0.05138  1.0000
  H   H3        1.0  0.66113  0.05633  0.53715  1.0000
  H   H4        1.0  0.33887  0.94368  0.46285  1.0000
  H   H5        1.0  0.00498  0.29155  0.28759  1.0000
  H   H6        1.0  0.99502  0.70845  0.71241  1.0000
  H   H7        1.0  0.00463  0.88675  0.24644  1.0000
  H   H8        1.0  0.99537  0.11324  0.75356  1.0000
  H   H9        1.0  0.45329  0.31584  0.74103  1.0000
  H   H10       1.0  0.54671  0.68416  0.25897  1.0000
  H   H11       1.0  0.13486  0.53023  0.09476  1.0000
  H   H12       1.0  0.86514  0.46977  0.90524  1.0000
  H   H13       1.0  0.16771  0.76466  0.09228  1.0000
  H   H14       1.0  0.83229  0.23534  0.90772  1.0000
  H   H15       1.0  0.35500  0.88765  0.92707  1.0000
  H   H16       1.0  0.64499  0.11235  0.07293  1.0000
  H   H17       1.0  0.51934  0.78127  0.75369  1.0000
  H   H18       1.0  0.48066  0.21873  0.24631  1.0000
  H   H19       1.0  0.01676  0.38517  0.66917  1.0000
  H   H20       1.0  0.98324  0.61483  0.33084  1.0000
  H   H21       1.0  0.99768  0.55153  0.62640  1.0000
  H   H22       1.0  0.00232  0.44847  0.37360  1.0000
  C   C1        1.0  0.82776  0.95631  0.39804  1.0000
  C   C2        1.0  0.17224  0.04369  0.60196  1.0000
  C   C3        1.0  0.76255  0.06543  0.45928  1.0000
  C   C4        1.0  0.23745  0.93457  0.54072  1.0000
  C   C5        1.0  0.82459  0.18640  0.42095  1.0000
  C   C6        1.0  0.17541  0.81360  0.57905  1.0000
  C   C7        1.0  0.95405  0.19881  0.32033  1.0000
  C   C8        1.0  0.04595  0.80119  0.67967  1.0000
  C   C9        1.0  0.01625  0.08983  0.25991  1.0000
  C   C10       1.0  0.98375  0.91017  0.74009  1.0000
  C   C11       1.0  0.95526  0.96882  0.29661  1.0000
  C   C12       1.0  0.04474  0.03118  0.70339  1.0000
  C   C13       1.0  0.76200  0.82580  0.44227  1.0000
  C   C14       1.0  0.23800  0.17420  0.55773  1.0000
  C   C15       1.0  0.74577  0.30419  0.48567  1.0000
  C   C16       1.0  0.25423  0.69581  0.51432  1.0000
  C   C17       1.0  0.42313  0.40074  0.78587  1.0000
  C   C18       1.0  0.57687  0.59926  0.21413  1.0000
  C   C19       1.0  0.30489  0.52861  0.92140  1.0000
  C   C20       1.0  0.69511  0.47139  0.07860  1.0000
  C   C21       1.0  0.21418  0.58569  0.01922  1.0000
  C   C22       1.0  0.78582  0.41432  0.98079  1.0000
  C   C23       1.0  0.23485  0.71620  0.01765  1.0000
  C   C24       1.0  0.76515  0.28380  0.98235  1.0000
  C   C25       1.0  0.34295  0.78620  0.92322  1.0000
  C   C26       1.0  0.65705  0.21380  0.07678  1.0000
  C   C27       1.0  0.43492  0.72811  0.82654  1.0000
  C   C28       1.0  0.56508  0.27189  0.17346  1.0000
  C   C29       1.0  0.41406  0.59780  0.82620  1.0000
  C   C30       1.0  0.58594  0.40221  0.17380  1.0000
  N   N1        1.0  0.14661  0.10575  0.15170  1.0000
  N   N2        1.0  0.85339  0.89425  0.84831  1.0000
  N   N3        1.0  0.48515  0.51477  0.74296  1.0000
  N   N4        1.0  0.51485  0.48523  0.25704  1.0000
  N   N5        1.0  0.31427  0.40506  0.89165  1.0000
  N   N6        1.0  0.68573  0.59494  0.10835  1.0000
  O   O1        1.0  0.79313  0.74470  0.37300  1.0000
  O   O2        1.0  0.20687  0.25530  0.62700  1.0000
  O   O3        1.0  0.67868  0.80104  0.55006  1.0000
  O   O4        1.0  0.32132  0.19896  0.44994  1.0000
  O   O5        1.0  0.59468  0.31653  0.54834  1.0000
  O   O6        1.0  0.40531  0.68347  0.45166  1.0000
  O   O7        1.0  0.83522  0.38892  0.47413  1.0000
  O   O8        1.0  0.16478  0.61108  0.52587  1.0000
  O   O9        1.0  0.18189  0.22433  0.11216  1.0000
  O   O10       1.0  0.81811  0.77567  0.88784  1.0000
  O   O11       1.0  0.21442  0.00270  0.10423  1.0000
  O   O12       1.0  0.78559  0.99730  0.89577  1.0000
  O   O13       1.0  0.92926  0.48416  0.67641  1.0000
  O   O14       1.0  0.07074  0.51584  0.32359  1.0000
