data_image0
_chemical_formula_structural       Hg2H32C40Br4N8
_chemical_formula_sum              "Hg2 H32 C40 Br4 N8"
_cell_length_a       7.99358
_cell_length_b       12.284
_cell_length_c       12.4783
_cell_angle_alpha    86.0763
_cell_angle_beta     71.1634
_cell_angle_gamma    77.9929

_space_group_name_H-M_alt    "P 1"
_space_group_IT_number       1

loop_
  _space_group_symop_operation_xyz
  'x, y, z'

loop_
  _atom_site_type_symbol
  _atom_site_label
  _atom_site_symmetry_multiplicity
  _atom_site_fract_x
  _atom_site_fract_y
  _atom_site_fract_z
  _atom_site_occupancy
  Hg  Hg1       1.0  0.82913  0.74989  0.34192  1.0000
  Hg  Hg2       1.0  0.17087  0.25011  0.65809  1.0000
  H   H1        1.0  0.77080  0.62893  0.59354  1.0000
  H   H2        1.0  0.63327  0.87107  0.59332  1.0000
  H   H3        1.0  0.22920  0.37106  0.40646  1.0000
  H   H4        1.0  0.36673  0.12893  0.40669  1.0000
  H   H5        1.0  0.56337  0.53412  0.74715  1.0000
  H   H6        1.0  0.68574  0.96658  0.74626  1.0000
  H   H7        1.0  0.43664  0.46587  0.25284  1.0000
  H   H8        1.0  0.31429  0.03342  0.25374  1.0000
  H   H9        1.0  0.25767  0.52641  0.73121  1.0000
  H   H10       1.0  0.00747  0.97371  0.73086  1.0000
  H   H11       1.0  0.74234  0.47358  0.26879  1.0000
  H   H12       1.0  0.99256  0.02629  0.26914  1.0000
  H   H13       1.0  0.17727  0.61402  0.56509  1.0000
  H   H14       1.0  0.25547  0.88564  0.56528  1.0000
  H   H15       1.0  0.82272  0.38597  0.43491  1.0000
  H   H16       1.0  0.74454  0.11436  0.43471  1.0000
  H   H17       1.0  0.76450  0.66014  0.09168  1.0000
  H   H18       1.0  0.14480  0.84007  0.09169  1.0000
  H   H19       1.0  0.23550  0.33986  0.90831  1.0000
  H   H20       1.0  0.85520  0.15992  0.90831  1.0000
  H   H21       1.0  0.72175  0.72722  0.80338  1.0000
  H   H22       1.0  0.47698  0.77155  0.80354  1.0000
  H   H23       1.0  0.27824  0.27278  0.19661  1.0000
  H   H24       1.0  0.52302  0.22845  0.19645  1.0000
  H   H25       1.0  0.80095  0.60607  0.87202  1.0000
  H   H26       1.0  0.32940  0.89324  0.87085  1.0000
  H   H27       1.0  0.19904  0.39393  0.12798  1.0000
  H   H28       1.0  0.67060  0.10676  0.12916  1.0000
  H   H29       1.0  0.86749  0.73229  0.88271  1.0000
  H   H30       1.0  0.25126  0.76708  0.88377  1.0000
  H   H31       1.0  0.13250  0.26772  0.11729  1.0000
  H   H32       1.0  0.74873  0.23293  0.11623  1.0000
  C   C1        1.0  0.39133  0.71830  0.38896  1.0000
  C   C2        1.0  0.21886  0.78188  0.38900  1.0000
  C   C3        1.0  0.60867  0.28170  0.61104  1.0000
  C   C4        1.0  0.78113  0.21812  0.61100  1.0000
  C   C5        1.0  0.42920  0.67174  0.49362  1.0000
  C   C6        1.0  0.07557  0.82819  0.49372  1.0000
  C   C7        1.0  0.57080  0.32826  0.50638  1.0000
  C   C8        1.0  0.92444  0.17181  0.50628  1.0000
  C   C9        1.0  0.63605  0.62646  0.59169  1.0000
  C   C10       1.0  0.76985  0.87366  0.59146  1.0000
  C   C11       1.0  0.36394  0.37354  0.40831  1.0000
  C   C12       1.0  0.23016  0.12634  0.40855  1.0000
  C   C13       1.0  0.51955  0.57378  0.67735  1.0000
  C   C14       1.0  0.79996  0.92665  0.67678  1.0000
  C   C15       1.0  0.48045  0.42621  0.32264  1.0000
  C   C16       1.0  0.20006  0.07335  0.32323  1.0000
  C   C17       1.0  0.35110  0.57013  0.66882  1.0000
  C   C18       1.0  0.97702  0.92998  0.66855  1.0000
  C   C19       1.0  0.64890  0.42987  0.33118  1.0000
  C   C20       1.0  0.02300  0.07002  0.33145  1.0000
  C   C21       1.0  0.30529  0.61946  0.57575  1.0000
  C   C22       1.0  0.11667  0.88040  0.57580  1.0000
  C   C23       1.0  0.69471  0.38054  0.42425  1.0000
  C   C24       1.0  0.88335  0.11960  0.42420  1.0000
  C   C25       1.0  0.49180  0.72333  0.19380  1.0000
  C   C26       1.0  0.31481  0.77728  0.19380  1.0000
  C   C27       1.0  0.50819  0.27666  0.80620  1.0000
  C   C28       1.0  0.68519  0.22272  0.80620  1.0000
  C   C29       1.0  0.62981  0.69971  0.08968  1.0000
  C   C30       1.0  0.28155  0.80077  0.08969  1.0000
  C   C31       1.0  0.37018  0.30029  0.91031  1.0000
  C   C32       1.0  0.71844  0.19922  0.91030  1.0000
  C   C33       1.0  0.59689  0.72517  0.98734  1.0000
  C   C34       1.0  0.41739  0.77530  0.98733  1.0000
  C   C35       1.0  0.40310  0.27483  0.01266  1.0000
  C   C36       1.0  0.58260  0.22469  0.01267  1.0000
  C   C37       1.0  0.75312  0.69682  0.88048  1.0000
  C   C38       1.0  0.36831  0.80259  0.88051  1.0000
  C   C39       1.0  0.24687  0.30318  0.11952  1.0000
  C   C40       1.0  0.63168  0.19741  0.11949  1.0000
  Br  Br1       1.0  0.67675  0.93889  0.28443  1.0000
  Br  Br2       1.0  0.04072  0.56127  0.28553  1.0000
  Br  Br3       1.0  0.32323  0.06113  0.71560  1.0000
  Br  Br4       1.0  0.95929  0.43874  0.71446  1.0000
  N   N1        1.0  0.52432  0.69292  0.29288  1.0000
  N   N2        1.0  0.18265  0.80754  0.29294  1.0000
  N   N3        1.0  0.47568  0.30708  0.70712  1.0000
  N   N4        1.0  0.81734  0.19245  0.70706  1.0000
  N   N5        1.0  0.59183  0.67498  0.50237  1.0000
  N   N6        1.0  0.90414  0.82488  0.50243  1.0000
  N   N7        1.0  0.40816  0.32502  0.49763  1.0000
  N   N8        1.0  0.09586  0.17513  0.49757  1.0000
