data_image0
_chemical_formula_structural       Nd4H56C24Cl12O12
_chemical_formula_sum              "Nd4 H56 C24 Cl12 O12"
_cell_length_a       8.28022
_cell_length_b       8.68529
_cell_length_c       16.3467
_cell_angle_alpha    89.9999
_cell_angle_beta     94.862
_cell_angle_gamma    90

_space_group_name_H-M_alt    "P 1"
_space_group_IT_number       1

loop_
  _space_group_symop_operation_xyz
  'x, y, z'

loop_
  _atom_site_type_symbol
  _atom_site_label
  _atom_site_symmetry_multiplicity
  _atom_site_fract_x
  _atom_site_fract_y
  _atom_site_fract_z
  _atom_site_occupancy
  Nd  Nd1       1.0  0.31305  0.37200  0.22423  1.0000
  Nd  Nd2       1.0  0.18696  0.87201  0.27577  1.0000
  Nd  Nd3       1.0  0.68695  0.62799  0.77577  1.0000
  Nd  Nd4       1.0  0.81305  0.12799  0.72423  1.0000
  H   H1        1.0  0.50720  0.35364  0.97062  1.0000
  H   H2        1.0  0.99279  0.85364  0.52938  1.0000
  H   H3        1.0  0.49279  0.64636  0.02938  1.0000
  H   H4        1.0  0.00720  0.14636  0.47062  1.0000
  H   H5        1.0  0.30908  0.33911  0.00808  1.0000
  H   H6        1.0  0.19092  0.83911  0.49192  1.0000
  H   H7        1.0  0.69092  0.66089  0.99192  1.0000
  H   H8        1.0  0.80908  0.16089  0.50808  1.0000
  H   H9        1.0  0.44895  0.18133  0.02243  1.0000
  H   H10       1.0  0.05105  0.68133  0.47757  1.0000
  H   H11       1.0  0.55105  0.81867  0.97757  1.0000
  H   H12       1.0  0.94895  0.31867  0.52243  1.0000
  H   H13       1.0  0.73124  0.39578  0.06607  1.0000
  H   H14       1.0  0.76876  0.89577  0.43393  1.0000
  H   H15       1.0  0.26876  0.60423  0.93394  1.0000
  H   H16       1.0  0.23124  0.10423  0.56606  1.0000
  H   H17       1.0  0.68316  0.22065  0.11687  1.0000
  H   H18       1.0  0.81684  0.72064  0.38313  1.0000
  H   H19       1.0  0.31684  0.77936  0.88313  1.0000
  H   H20       1.0  0.18316  0.27935  0.61687  1.0000
  H   H21       1.0  0.84902  0.38657  0.21085  1.0000
  H   H22       1.0  0.65098  0.88657  0.28914  1.0000
  H   H23       1.0  0.15098  0.61343  0.78914  1.0000
  H   H24       1.0  0.34902  0.11343  0.71085  1.0000
  H   H25       1.0  0.71098  0.54463  0.19374  1.0000
  H   H26       1.0  0.78902  0.04463  0.30626  1.0000
  H   H27       1.0  0.28902  0.45537  0.80626  1.0000
  H   H28       1.0  0.21098  0.95537  0.69374  1.0000
  H   H29       1.0  0.67477  0.52398  0.34667  1.0000
  H   H30       1.0  0.82523  0.02398  0.15333  1.0000
  H   H31       1.0  0.32523  0.47602  0.65333  1.0000
  H   H32       1.0  0.17477  0.97602  0.84667  1.0000
  H   H33       1.0  0.81198  0.36333  0.34877  1.0000
  H   H34       1.0  0.68802  0.86333  0.15123  1.0000
  H   H35       1.0  0.18802  0.63667  0.65123  1.0000
  H   H36       1.0  0.31198  0.13667  0.84877  1.0000
  H   H37       1.0  0.59036  0.18820  0.38982  1.0000
  H   H38       1.0  0.90965  0.68820  0.11018  1.0000
  H   H39       1.0  0.40964  0.81180  0.61018  1.0000
  H   H40       1.0  0.09036  0.31180  0.88982  1.0000
  H   H41       1.0  0.62165  0.34494  0.46032  1.0000
  H   H42       1.0  0.87835  0.84494  0.03968  1.0000
  H   H43       1.0  0.37835  0.65506  0.53968  1.0000
  H   H44       1.0  0.12165  0.15506  0.96032  1.0000
  H   H45       1.0  0.31605  0.19708  0.45123  1.0000
  H   H46       1.0  0.18395  0.69708  0.04877  1.0000
  H   H47       1.0  0.68395  0.80292  0.54877  1.0000
  H   H48       1.0  0.81605  0.30292  0.95123  1.0000
  H   H49       1.0  0.19783  0.36819  0.42697  1.0000
  H   H50       1.0  0.30217  0.86819  0.07303  1.0000
  H   H51       1.0  0.80217  0.63181  0.57303  1.0000
  H   H52       1.0  0.69783  0.13181  0.92697  1.0000
  H   H53       1.0  0.37236  0.37588  0.50098  1.0000
  H   H54       1.0  0.12764  0.87588  0.99902  1.0000
  H   H55       1.0  0.62764  0.62412  0.49902  1.0000
  H   H56       1.0  0.87236  0.12412  0.00098  1.0000
  C   C1        1.0  0.43690  0.30769  0.01926  1.0000
  C   C2        1.0  0.06310  0.80769  0.48074  1.0000
  C   C3        1.0  0.56310  0.69231  0.98074  1.0000
  C   C4        1.0  0.93690  0.19231  0.51926  1.0000
  C   C5        1.0  0.66333  0.34624  0.11478  1.0000
  C   C6        1.0  0.83667  0.84624  0.38522  1.0000
  C   C7        1.0  0.33667  0.65376  0.88522  1.0000
  C   C8        1.0  0.16333  0.15376  0.61478  1.0000
  C   C9        1.0  0.72166  0.41828  0.19530  1.0000
  C   C10       1.0  0.77834  0.91828  0.30470  1.0000
  C   C11       1.0  0.27834  0.58172  0.80471  1.0000
  C   C12       1.0  0.22166  0.08172  0.69530  1.0000
  C   C13       1.0  0.68389  0.39813  0.33879  1.0000
  C   C14       1.0  0.81611  0.89813  0.16121  1.0000
  C   C15       1.0  0.31611  0.60186  0.66121  1.0000
  C   C16       1.0  0.18389  0.10186  0.83879  1.0000
  C   C17       1.0  0.58252  0.31431  0.39631  1.0000
  C   C18       1.0  0.91748  0.81431  0.10369  1.0000
  C   C19       1.0  0.41748  0.68569  0.60369  1.0000
  C   C20       1.0  0.08252  0.18569  0.89631  1.0000
  C   C21       1.0  0.31908  0.32271  0.44379  1.0000
  C   C22       1.0  0.18092  0.82271  0.05621  1.0000
  C   C23       1.0  0.68091  0.67729  0.55621  1.0000
  C   C24       1.0  0.81908  0.17729  0.94379  1.0000
  Cl  Cl1       1.0  0.42451  0.67673  0.21163  1.0000
  Cl  Cl2       1.0  0.07549  0.17673  0.28837  1.0000
  Cl  Cl3       1.0  0.57549  0.32327  0.78837  1.0000
  Cl  Cl4       1.0  0.92451  0.82327  0.71163  1.0000
  Cl  Cl5       1.0  0.09964  0.56712  0.30769  1.0000
  Cl  Cl6       1.0  0.40036  0.06712  0.19231  1.0000
  Cl  Cl7       1.0  0.90036  0.43288  0.69231  1.0000
  Cl  Cl8       1.0  0.59964  0.93288  0.80769  1.0000
  Cl  Cl9       1.0  0.08809  0.40410  0.09812  1.0000
  Cl  Cl10      1.0  0.41191  0.90410  0.40188  1.0000
  Cl  Cl11      1.0  0.91191  0.59590  0.90188  1.0000
  Cl  Cl12      1.0  0.58809  0.09590  0.59812  1.0000
  O   O1        1.0  0.49244  0.37481  0.09713  1.0000
  O   O2        1.0  0.00756  0.87481  0.40287  1.0000
  O   O3        1.0  0.50756  0.62519  0.90287  1.0000
  O   O4        1.0  0.99244  0.12520  0.59713  1.0000
  O   O5        1.0  0.62267  0.35817  0.25655  1.0000
  O   O6        1.0  0.87733  0.85817  0.24345  1.0000
  O   O7        1.0  0.37733  0.64183  0.74345  1.0000
  O   O8        1.0  0.12267  0.14183  0.75655  1.0000
  O   O9        1.0  0.41638  0.36169  0.37776  1.0000
  O   O10       1.0  0.08362  0.86169  0.12224  1.0000
  O   O11       1.0  0.58362  0.63831  0.62224  1.0000
  O   O12       1.0  0.91637  0.13831  0.87776  1.0000
