data_image0
_chemical_formula_structural       K4H28C32N16O32
_chemical_formula_sum              "K4 H28 C32 N16 O32"
_cell_length_a       6.84015
_cell_length_b       11.9154
_cell_length_c       14.5435
_cell_angle_alpha    90.0002
_cell_angle_beta     103.973
_cell_angle_gamma    90.0003

_space_group_name_H-M_alt    "P 1"
_space_group_IT_number       1

loop_
  _space_group_symop_operation_xyz
  'x, y, z'

loop_
  _atom_site_type_symbol
  _atom_site_label
  _atom_site_symmetry_multiplicity
  _atom_site_fract_x
  _atom_site_fract_y
  _atom_site_fract_z
  _atom_site_occupancy
  K   K1        1.0  0.18913  0.13199  0.76620  1.0000
  K   K2        1.0  0.31087  0.63198  0.73381  1.0000
  K   K3        1.0  0.81087  0.86801  0.23381  1.0000
  K   K4        1.0  0.68912  0.36802  0.26620  1.0000
  H   H1        1.0  0.61827  0.54840  0.61406  1.0000
  H   H2        1.0  0.88173  0.04840  0.88594  1.0000
  H   H3        1.0  0.38173  0.45160  0.38594  1.0000
  H   H4        1.0  0.11827  0.95160  0.11406  1.0000
  H   H5        1.0  0.09168  0.36111  0.57478  1.0000
  H   H6        1.0  0.40832  0.86110  0.92522  1.0000
  H   H7        1.0  0.90832  0.63889  0.42522  1.0000
  H   H8        1.0  0.59169  0.13890  0.07478  1.0000
  H   H9        1.0  0.19180  0.96495  0.48313  1.0000
  H   H10       1.0  0.30819  0.46495  0.01686  1.0000
  H   H11       1.0  0.80820  0.03505  0.51687  1.0000
  H   H12       1.0  0.69181  0.53505  0.98313  1.0000
  H   H13       1.0  0.23160  0.21375  0.29456  1.0000
  H   H14       1.0  0.26840  0.71374  0.20544  1.0000
  H   H15       1.0  0.76840  0.78625  0.70544  1.0000
  H   H16       1.0  0.73160  0.28626  0.79456  1.0000
  H   H17       1.0  0.58990  0.14179  0.67750  1.0000
  H   H18       1.0  0.91010  0.64179  0.82250  1.0000
  H   H19       1.0  0.41010  0.85821  0.32250  1.0000
  H   H20       1.0  0.08990  0.35821  0.17749  1.0000
  H   H21       1.0  0.32689  0.38805  0.78758  1.0000
  H   H22       1.0  0.17311  0.88805  0.71242  1.0000
  H   H23       1.0  0.67311  0.61195  0.21242  1.0000
  H   H24       1.0  0.82689  0.11195  0.28758  1.0000
  H   H25       1.0  0.14011  0.41379  0.82493  1.0000
  H   H26       1.0  0.35989  0.91379  0.67507  1.0000
  H   H27       1.0  0.85989  0.58621  0.17507  1.0000
  H   H28       1.0  0.64011  0.08621  0.32493  1.0000
  C   C1        1.0  0.54375  0.37981  0.59844  1.0000
  C   C2        1.0  0.95625  0.87981  0.90156  1.0000
  C   C3        1.0  0.45626  0.62019  0.40156  1.0000
  C   C4        1.0  0.04375  0.12019  0.09844  1.0000
  C   C5        1.0  0.87292  0.46404  0.60243  1.0000
  C   C6        1.0  0.62707  0.96405  0.89757  1.0000
  C   C7        1.0  0.12707  0.53595  0.39757  1.0000
  C   C8        1.0  0.37293  0.03595  0.10243  1.0000
  C   C9        1.0  0.83551  0.26413  0.56230  1.0000
  C   C10       1.0  0.66448  0.76413  0.93770  1.0000
  C   C11       1.0  0.16449  0.73587  0.43770  1.0000
  C   C12       1.0  0.33552  0.23587  0.06230  1.0000
  C   C13       1.0  0.38511  0.09660  0.54449  1.0000
  C   C14       1.0  0.11489  0.59660  0.95551  1.0000
  C   C15       1.0  0.61489  0.90341  0.45551  1.0000
  C   C16       1.0  0.88511  0.40340  0.04449  1.0000
  C   C17       1.0  0.18738  0.08275  0.38076  1.0000
  C   C18       1.0  0.31260  0.58276  0.11923  1.0000
  C   C19       1.0  0.81262  0.91725  0.61924  1.0000
  C   C20       1.0  0.68740  0.41724  0.88077  1.0000
  C   C21       1.0  0.42087  0.23819  0.42833  1.0000
  C   C22       1.0  0.07913  0.73819  0.07167  1.0000
  C   C23       1.0  0.57913  0.76181  0.57167  1.0000
  C   C24       1.0  0.92087  0.26181  0.92833  1.0000
  C   C25       1.0  0.63024  0.26123  0.59023  1.0000
  C   C26       1.0  0.86976  0.76123  0.90977  1.0000
  C   C27       1.0  0.36976  0.73877  0.40977  1.0000
  C   C28       1.0  0.13024  0.23877  0.09023  1.0000
  C   C29       1.0  0.47718  0.19389  0.52053  1.0000
  C   C30       1.0  0.02282  0.69389  0.97946  1.0000
  C   C31       1.0  0.52281  0.80611  0.47947  1.0000
  C   C32       1.0  0.97719  0.30611  0.02054  1.0000
  N   N1        1.0  0.67529  0.46761  0.60928  1.0000
  N   N2        1.0  0.82470  0.96761  0.89073  1.0000
  N   N3        1.0  0.32471  0.53239  0.39072  1.0000
  N   N4        1.0  0.17530  0.03239  0.10928  1.0000
  N   N5        1.0  0.94285  0.36192  0.57858  1.0000
  N   N6        1.0  0.55715  0.86192  0.92142  1.0000
  N   N7        1.0  0.05715  0.63808  0.42142  1.0000
  N   N8        1.0  0.44286  0.13808  0.07858  1.0000
  N   N9        1.0  0.24662  0.04343  0.47186  1.0000
  N   N10       1.0  0.25338  0.54343  0.02813  1.0000
  N   N11       1.0  0.75338  0.95657  0.52814  1.0000
  N   N12       1.0  0.74662  0.45657  0.97186  1.0000
  N   N13       1.0  0.27462  0.18104  0.36246  1.0000
  N   N14       1.0  0.22539  0.68104  0.13754  1.0000
  N   N15       1.0  0.72538  0.81896  0.63754  1.0000
  N   N16       1.0  0.77462  0.31896  0.86246  1.0000
  O   O1        1.0  0.36644  0.39433  0.60057  1.0000
  O   O2        1.0  0.13355  0.89433  0.89943  1.0000
  O   O3        1.0  0.63356  0.60567  0.39943  1.0000
  O   O4        1.0  0.86645  0.10567  0.10057  1.0000
  O   O5        1.0  0.97889  0.54894  0.61533  1.0000
  O   O6        1.0  0.52111  0.04893  0.88467  1.0000
  O   O7        1.0  0.02112  0.45107  0.38467  1.0000
  O   O8        1.0  0.47889  0.95107  0.11533  1.0000
  O   O9        1.0  0.90942  0.17934  0.53534  1.0000
  O   O10       1.0  0.59058  0.67935  0.96467  1.0000
  O   O11       1.0  0.09058  0.82066  0.46466  1.0000
  O   O12       1.0  0.40942  0.32065  0.03534  1.0000
  O   O13       1.0  0.42255  0.05348  0.62795  1.0000
  O   O14       1.0  0.07744  0.55348  0.87204  1.0000
  O   O15       1.0  0.57745  0.94652  0.37205  1.0000
  O   O16       1.0  0.92256  0.44652  0.12796  1.0000
  O   O17       1.0  0.06059  0.03270  0.31793  1.0000
  O   O18       1.0  0.43942  0.53270  0.18207  1.0000
  O   O19       1.0  0.93941  0.96730  0.68207  1.0000
  O   O20       1.0  0.56058  0.46730  0.81793  1.0000
  O   O21       1.0  0.49791  0.32710  0.40400  1.0000
  O   O22       1.0  0.00209  0.82710  0.09600  1.0000
  O   O23       1.0  0.50208  0.67290  0.59600  1.0000
  O   O24       1.0  0.99792  0.17290  0.90400  1.0000
  O   O25       1.0  0.67478  0.21311  0.68363  1.0000
  O   O26       1.0  0.82521  0.71311  0.81637  1.0000
  O   O27       1.0  0.32521  0.78689  0.31637  1.0000
  O   O28       1.0  0.17479  0.28689  0.18363  1.0000
  O   O29       1.0  0.19222  0.35819  0.78682  1.0000
  O   O30       1.0  0.30778  0.85819  0.71318  1.0000
  O   O31       1.0  0.80778  0.64180  0.21318  1.0000
  O   O32       1.0  0.69222  0.14181  0.28682  1.0000
