data_image0
_chemical_formula_structural       Sm4H56C24Cl12O12
_chemical_formula_sum              "Sm4 H56 C24 Cl12 O12"
_cell_length_a       8.25338
_cell_length_b       8.58843
_cell_length_c       16.3218
_cell_angle_alpha    89.9999
_cell_angle_beta     94.9696
_cell_angle_gamma    90

_space_group_name_H-M_alt    "P 1"
_space_group_IT_number       1

loop_
  _space_group_symop_operation_xyz
  'x, y, z'

loop_
  _atom_site_type_symbol
  _atom_site_label
  _atom_site_symmetry_multiplicity
  _atom_site_fract_x
  _atom_site_fract_y
  _atom_site_fract_z
  _atom_site_occupancy
  Sm  Sm1       1.0  0.31282  0.37114  0.22433  1.0000
  Sm  Sm2       1.0  0.18718  0.87113  0.27567  1.0000
  Sm  Sm3       1.0  0.68718  0.62887  0.77567  1.0000
  Sm  Sm4       1.0  0.81282  0.12887  0.72433  1.0000
  H   H1        1.0  0.50371  0.35251  0.97067  1.0000
  H   H2        1.0  0.99629  0.85251  0.52933  1.0000
  H   H3        1.0  0.49629  0.64749  0.02933  1.0000
  H   H4        1.0  0.00372  0.14749  0.47067  1.0000
  H   H5        1.0  0.30482  0.33865  0.00803  1.0000
  H   H6        1.0  0.19518  0.83865  0.49197  1.0000
  H   H7        1.0  0.69518  0.66135  0.99197  1.0000
  H   H8        1.0  0.80483  0.16135  0.50803  1.0000
  H   H9        1.0  0.44440  0.17858  0.02255  1.0000
  H   H10       1.0  0.05560  0.67858  0.47745  1.0000
  H   H11       1.0  0.55560  0.82142  0.97745  1.0000
  H   H12       1.0  0.94440  0.32142  0.52255  1.0000
  H   H13       1.0  0.72796  0.39555  0.06565  1.0000
  H   H14       1.0  0.77204  0.89555  0.43435  1.0000
  H   H15       1.0  0.27204  0.60445  0.93435  1.0000
  H   H16       1.0  0.22796  0.10445  0.56565  1.0000
  H   H17       1.0  0.68034  0.21855  0.11644  1.0000
  H   H18       1.0  0.81967  0.71855  0.38356  1.0000
  H   H19       1.0  0.31967  0.78145  0.88356  1.0000
  H   H20       1.0  0.18034  0.28145  0.61644  1.0000
  H   H21       1.0  0.84723  0.38451  0.21103  1.0000
  H   H22       1.0  0.65277  0.88451  0.28897  1.0000
  H   H23       1.0  0.15277  0.61549  0.78896  1.0000
  H   H24       1.0  0.34723  0.11549  0.71104  1.0000
  H   H25       1.0  0.71048  0.54557  0.19375  1.0000
  H   H26       1.0  0.78953  0.04557  0.30625  1.0000
  H   H27       1.0  0.28953  0.45443  0.80626  1.0000
  H   H28       1.0  0.21048  0.95442  0.69375  1.0000
  H   H29       1.0  0.67140  0.52548  0.34663  1.0000
  H   H30       1.0  0.82860  0.02547  0.15337  1.0000
  H   H31       1.0  0.32860  0.47453  0.65337  1.0000
  H   H32       1.0  0.17139  0.97452  0.84663  1.0000
  H   H33       1.0  0.80956  0.36337  0.34893  1.0000
  H   H34       1.0  0.69044  0.86337  0.15107  1.0000
  H   H35       1.0  0.19044  0.63663  0.65107  1.0000
  H   H36       1.0  0.30956  0.13662  0.84893  1.0000
  H   H37       1.0  0.58745  0.18602  0.38974  1.0000
  H   H38       1.0  0.91255  0.68602  0.11026  1.0000
  H   H39       1.0  0.41256  0.81398  0.61026  1.0000
  H   H40       1.0  0.08744  0.31398  0.88974  1.0000
  H   H41       1.0  0.61682  0.34476  0.46021  1.0000
  H   H42       1.0  0.88318  0.84476  0.03978  1.0000
  H   H43       1.0  0.38318  0.65524  0.53978  1.0000
  H   H44       1.0  0.11682  0.15524  0.96022  1.0000
  H   H45       1.0  0.30966  0.19500  0.44966  1.0000
  H   H46       1.0  0.19034  0.69500  0.05034  1.0000
  H   H47       1.0  0.69034  0.80500  0.55034  1.0000
  H   H48       1.0  0.80966  0.30500  0.94966  1.0000
  H   H49       1.0  0.19326  0.36954  0.42566  1.0000
  H   H50       1.0  0.30674  0.86954  0.07434  1.0000
  H   H51       1.0  0.80675  0.63045  0.57434  1.0000
  H   H52       1.0  0.69325  0.13046  0.92566  1.0000
  H   H53       1.0  0.36863  0.37498  0.49980  1.0000
  H   H54       1.0  0.13137  0.87498  0.00020  1.0000
  H   H55       1.0  0.63137  0.62502  0.50019  1.0000
  H   H56       1.0  0.86863  0.12502  0.99980  1.0000
  C   C1        1.0  0.43286  0.30641  0.01930  1.0000
  C   C2        1.0  0.06713  0.80641  0.48070  1.0000
  C   C3        1.0  0.56713  0.69359  0.98070  1.0000
  C   C4        1.0  0.93287  0.19359  0.51931  1.0000
  C   C5        1.0  0.66038  0.34546  0.11458  1.0000
  C   C6        1.0  0.83962  0.84546  0.38542  1.0000
  C   C7        1.0  0.33962  0.65454  0.88542  1.0000
  C   C8        1.0  0.16038  0.15454  0.61458  1.0000
  C   C9        1.0  0.71980  0.41773  0.19524  1.0000
  C   C10       1.0  0.78021  0.91773  0.30476  1.0000
  C   C11       1.0  0.28020  0.58227  0.80476  1.0000
  C   C12       1.0  0.21980  0.08227  0.69524  1.0000
  C   C13       1.0  0.68099  0.39838  0.33875  1.0000
  C   C14       1.0  0.81901  0.89838  0.16125  1.0000
  C   C15       1.0  0.31901  0.60162  0.66125  1.0000
  C   C16       1.0  0.18099  0.10162  0.83875  1.0000
  C   C17       1.0  0.57895  0.31347  0.39599  1.0000
  C   C18       1.0  0.92105  0.81347  0.10401  1.0000
  C   C19       1.0  0.42106  0.68654  0.60401  1.0000
  C   C20       1.0  0.07895  0.18654  0.89599  1.0000
  C   C21       1.0  0.31432  0.32204  0.44243  1.0000
  C   C22       1.0  0.18568  0.82203  0.05757  1.0000
  C   C23       1.0  0.68568  0.67797  0.55757  1.0000
  C   C24       1.0  0.81432  0.17797  0.94243  1.0000
  Cl  Cl1       1.0  0.42279  0.67549  0.21226  1.0000
  Cl  Cl2       1.0  0.07721  0.17549  0.28774  1.0000
  Cl  Cl3       1.0  0.57721  0.32451  0.78774  1.0000
  Cl  Cl4       1.0  0.92279  0.82451  0.71225  1.0000
  Cl  Cl5       1.0  0.09974  0.56664  0.30590  1.0000
  Cl  Cl6       1.0  0.40026  0.06664  0.19410  1.0000
  Cl  Cl7       1.0  0.90026  0.43336  0.69410  1.0000
  Cl  Cl8       1.0  0.59974  0.93336  0.80590  1.0000
  Cl  Cl9       1.0  0.08842  0.40081  0.09985  1.0000
  Cl  Cl10      1.0  0.41158  0.90081  0.40015  1.0000
  Cl  Cl11      1.0  0.91158  0.59919  0.90015  1.0000
  Cl  Cl12      1.0  0.58842  0.09920  0.59985  1.0000
  O   O1        1.0  0.48881  0.37436  0.09733  1.0000
  O   O2        1.0  0.01119  0.87436  0.40267  1.0000
  O   O3        1.0  0.51119  0.62564  0.90267  1.0000
  O   O4        1.0  0.98881  0.12564  0.59733  1.0000
  O   O5        1.0  0.61956  0.35805  0.25639  1.0000
  O   O6        1.0  0.88044  0.85805  0.24361  1.0000
  O   O7        1.0  0.38044  0.64195  0.74361  1.0000
  O   O8        1.0  0.11956  0.14194  0.75639  1.0000
  O   O9        1.0  0.41231  0.36064  0.37646  1.0000
  O   O10       1.0  0.08769  0.86064  0.12354  1.0000
  O   O11       1.0  0.58769  0.63936  0.62354  1.0000
  O   O12       1.0  0.91231  0.13936  0.87646  1.0000
