data_image0
_chemical_formula_structural       Zn2H28C36N4O8
_chemical_formula_sum              "Zn2 H28 C36 N4 O8"
_cell_length_a       5.77622
_cell_length_b       9.40999
_cell_length_c       17.6113
_cell_angle_alpha    82.0271
_cell_angle_beta     80.5446
_cell_angle_gamma    72.0145

_space_group_name_H-M_alt    "P 1"
_space_group_IT_number       1

loop_
  _space_group_symop_operation_xyz
  'x, y, z'

loop_
  _atom_site_type_symbol
  _atom_site_label
  _atom_site_symmetry_multiplicity
  _atom_site_fract_x
  _atom_site_fract_y
  _atom_site_fract_z
  _atom_site_occupancy
  Zn  Zn1       1.0  0.51247  0.24941  0.74983  1.0000
  Zn  Zn2       1.0  0.48754  0.75060  0.25016  1.0000
  H   H1        1.0  0.97017  0.94400  0.69477  1.0000
  H   H2        1.0  0.60792  0.55404  0.80513  1.0000
  H   H3        1.0  0.02981  0.05600  0.30524  1.0000
  H   H4        1.0  0.39209  0.44593  0.19486  1.0000
  H   H5        1.0  0.55389  0.22425  0.58312  1.0000
  H   H6        1.0  0.36267  0.27587  0.91677  1.0000
  H   H7        1.0  0.44608  0.77575  0.41688  1.0000
  H   H8        1.0  0.63735  0.72412  0.08322  1.0000
  H   H9        1.0  0.34680  0.13883  0.49372  1.0000
  H   H10       1.0  0.98049  0.36162  0.00620  1.0000
  H   H11       1.0  0.65314  0.86117  0.50629  1.0000
  H   H12       1.0  0.01952  0.63834  0.99379  1.0000
  H   H13       1.0  0.19142  0.04237  0.77603  1.0000
  H   H14       1.0  0.00940  0.45576  0.72383  1.0000
  H   H15       1.0  0.80858  0.95764  0.22398  1.0000
  H   H16       1.0  0.99061  0.54424  0.27616  1.0000
  H   H17       1.0  0.70612  0.89059  0.97786  1.0000
  H   H18       1.0  0.57429  0.61139  0.52280  1.0000
  H   H19       1.0  0.29386  0.10944  0.02216  1.0000
  H   H20       1.0  0.42575  0.38864  0.47721  1.0000
  H   H21       1.0  0.90499  0.90266  0.56862  1.0000
  H   H22       1.0  0.37517  0.59620  0.93122  1.0000
  H   H23       1.0  0.09497  0.09734  0.43139  1.0000
  H   H24       1.0  0.62484  0.40376  0.06878  1.0000
  H   H25       1.0  0.01624  0.10857  0.92494  1.0000
  H   H26       1.0  0.04935  0.38917  0.57434  1.0000
  H   H27       1.0  0.98378  0.89143  0.07505  1.0000
  H   H28       1.0  0.95070  0.61087  0.42567  1.0000
  C   C1        1.0  0.09897  0.00515  0.66720  1.0000
  C   C2        1.0  0.77086  0.49337  0.83267  1.0000
  C   C3        1.0  0.90101  0.99485  0.33280  1.0000
  C   C4        1.0  0.22915  0.50662  0.16732  1.0000
  C   C5        1.0  0.42224  0.16204  0.60510  1.0000
  C   C6        1.0  0.19039  0.33774  0.89476  1.0000
  C   C7        1.0  0.57772  0.83796  0.39490  1.0000
  C   C8        1.0  0.80964  0.66224  0.10524  1.0000
  C   C9        1.0  0.66186  0.03463  0.87013  1.0000
  C   C10       1.0  0.56634  0.46522  0.62982  1.0000
  C   C11       1.0  0.33813  0.96536  0.12988  1.0000
  C   C12       1.0  0.43369  0.53479  0.37018  1.0000
  C   C13       1.0  0.13741  0.03281  0.58633  1.0000
  C   C14       1.0  0.75653  0.46656  0.91359  1.0000
  C   C15       1.0  0.86255  0.96719  0.41368  1.0000
  C   C16       1.0  0.24349  0.53341  0.08641  1.0000
  C   C17       1.0  0.30629  0.11310  0.55569  1.0000
  C   C18       1.0  0.97577  0.38691  0.94419  1.0000
  C   C19       1.0  0.69367  0.88690  0.44432  1.0000
  C   C20       1.0  0.02424  0.61307  0.05580  1.0000
  C   C21       1.0  0.21985  0.05980  0.71323  1.0000
  C   C22       1.0  0.99274  0.43870  0.78663  1.0000
  C   C23       1.0  0.78014  0.94021  0.28677  1.0000
  C   C24       1.0  0.00726  0.56130  0.21337  1.0000
  C   C25       1.0  0.94989  0.02506  0.96399  1.0000
  C   C26       1.0  0.93872  0.47443  0.53583  1.0000
  C   C27       1.0  0.05012  0.97495  0.03601  1.0000
  C   C28       1.0  0.06131  0.52561  0.46417  1.0000
  C   C29       1.0  0.77861  0.97470  0.94153  1.0000
  C   C30       1.0  0.69456  0.52566  0.55857  1.0000
  C   C31       1.0  0.22138  0.02531  0.05847  1.0000
  C   C32       1.0  0.30548  0.47437  0.44143  1.0000
  C   C33       1.0  0.00421  0.98009  0.53829  1.0000
  C   C34       1.0  0.52229  0.51943  0.96165  1.0000
  C   C35       1.0  0.99574  0.01991  0.46172  1.0000
  C   C36       1.0  0.47771  0.48054  0.03835  1.0000
  N   N1        1.0  0.37900  0.13773  0.68272  1.0000
  N   N2        1.0  0.20004  0.36137  0.81714  1.0000
  N   N3        1.0  0.62098  0.86228  0.31728  1.0000
  N   N4        1.0  0.79999  0.63863  0.18285  1.0000
  O   O1        1.0  0.73056  0.14414  0.82777  1.0000
  O   O2        1.0  0.70242  0.35423  0.67155  1.0000
  O   O3        1.0  0.26944  0.85585  0.17223  1.0000
  O   O4        1.0  0.29760  0.64577  0.32844  1.0000
  O   O5        1.0  0.49856  0.98411  0.85559  1.0000
  O   O6        1.0  0.33811  0.51708  0.64487  1.0000
  O   O7        1.0  0.50143  0.01588  0.14442  1.0000
  O   O8        1.0  0.66192  0.48293  0.35512  1.0000
