data_image0
_chemical_formula_structural       Zn2H36C40N8O8
_chemical_formula_sum              "Zn2 H36 C40 N8 O8"
_cell_length_a       5.34339
_cell_length_b       8.35391
_cell_length_c       21.4917
_cell_angle_alpha    84.2555
_cell_angle_beta     82.8759
_cell_angle_gamma    71.3784

_space_group_name_H-M_alt    "P 1"
_space_group_IT_number       1

loop_
  _space_group_symop_operation_xyz
  'x, y, z'

loop_
  _atom_site_type_symbol
  _atom_site_label
  _atom_site_symmetry_multiplicity
  _atom_site_fract_x
  _atom_site_fract_y
  _atom_site_fract_z
  _atom_site_occupancy
  Zn  Zn1       1.0  0.41371  0.75044  0.25004  1.0000
  Zn  Zn2       1.0  0.58627  0.24956  0.74996  1.0000
  H   H1        1.0  0.69654  0.98496  0.18884  1.0000
  H   H2        1.0  0.86897  0.51631  0.31119  1.0000
  H   H3        1.0  0.30347  0.01504  0.81116  1.0000
  H   H4        1.0  0.13103  0.48369  0.68882  1.0000
  H   H5        1.0  0.93054  0.20305  0.33728  1.0000
  H   H6        1.0  0.46970  0.29831  0.16294  1.0000
  H   H7        1.0  0.06946  0.79694  0.66271  1.0000
  H   H8        1.0  0.53031  0.70170  0.83707  1.0000
  H   H9        1.0  0.95524  0.16117  0.22282  1.0000
  H   H10       1.0  0.33800  0.34074  0.27732  1.0000
  H   H11       1.0  0.04477  0.83883  0.77717  1.0000
  H   H12       1.0  0.66201  0.65926  0.72269  1.0000
  H   H13       1.0  0.42515  0.88538  0.37274  1.0000
  H   H14       1.0  0.68205  0.61480  0.12723  1.0000
  H   H15       1.0  0.57484  0.11462  0.62725  1.0000
  H   H16       1.0  0.31795  0.38519  0.87277  1.0000
  H   H17       1.0  0.76268  0.18170  0.50577  1.0000
  H   H18       1.0  0.44985  0.31856  0.99451  1.0000
  H   H19       1.0  0.23730  0.81830  0.49423  1.0000
  H   H20       1.0  0.55017  0.68145  0.00549  1.0000
  H   H21       1.0  0.74408  0.30020  0.43144  1.0000
  H   H22       1.0  0.47535  0.20028  0.06889  1.0000
  H   H23       1.0  0.25591  0.69980  0.56856  1.0000
  H   H24       1.0  0.52468  0.79973  0.93112  1.0000
  H   H25       1.0  0.01887  0.11600  0.44369  1.0000
  H   H26       1.0  0.57766  0.38481  0.05659  1.0000
  H   H27       1.0  0.98111  0.88400  0.55631  1.0000
  H   H28       1.0  0.42235  0.61521  0.94342  1.0000
  H   H29       1.0  0.90180  0.85374  0.09192  1.0000
  H   H30       1.0  0.84762  0.64611  0.40804  1.0000
  H   H31       1.0  0.09820  0.14624  0.90807  1.0000
  H   H32       1.0  0.15236  0.35390  0.59196  1.0000
  H   H33       1.0  0.24958  0.04648  0.01286  1.0000
  H   H34       1.0  0.30885  0.45338  0.48714  1.0000
  H   H35       1.0  0.75041  0.95351  0.98714  1.0000
  H   H36       1.0  0.69115  0.54663  0.51285  1.0000
  C   C1        1.0  0.69873  0.00557  0.23793  1.0000
  C   C2        1.0  0.94099  0.49565  0.26210  1.0000
  C   C3        1.0  0.30129  0.99443  0.76207  1.0000
  C   C4        1.0  0.05900  0.50435  0.73791  1.0000
  C   C5        1.0  0.82334  0.12656  0.32115  1.0000
  C   C6        1.0  0.26986  0.37465  0.17899  1.0000
  C   C7        1.0  0.17666  0.87343  0.67885  1.0000
  C   C8        1.0  0.73014  0.62536  0.82102  1.0000
  C   C9        1.0  0.83668  0.10419  0.25744  1.0000
  C   C10       1.0  0.19712  0.39732  0.24267  1.0000
  C   C11       1.0  0.16332  0.89581  0.74256  1.0000
  C   C12       1.0  0.80289  0.60269  0.75733  1.0000
  C   C13       1.0  0.65445  0.06859  0.43282  1.0000
  C   C14       1.0  0.15515  0.43170  0.06731  1.0000
  C   C15       1.0  0.34555  0.93141  0.56718  1.0000
  C   C16       1.0  0.84487  0.56830  0.93270  1.0000
  C   C17       1.0  0.67113  0.04991  0.36470  1.0000
  C   C18       1.0  0.08460  0.45070  0.13538  1.0000
  C   C19       1.0  0.32888  0.95009  0.63529  1.0000
  C   C20       1.0  0.91540  0.54930  0.86462  1.0000
  C   C21       1.0  0.24665  0.88700  0.12941  1.0000
  C   C22       1.0  0.26309  0.61304  0.37064  1.0000
  C   C23       1.0  0.75336  0.11299  0.87058  1.0000
  C   C24       1.0  0.73687  0.38698  0.62936  1.0000
  C   C25       1.0  0.54077  0.95093  0.34098  1.0000
  C   C26       1.0  0.83147  0.54954  0.15903  1.0000
  C   C27       1.0  0.45923  0.04907  0.65902  1.0000
  C   C28       1.0  0.16853  0.45045  0.84098  1.0000
  C   C29       1.0  0.08785  0.99139  0.02385  1.0000
  C   C30       1.0  0.10309  0.50855  0.47614  1.0000
  C   C31       1.0  0.91214  0.00860  0.97615  1.0000
  C   C32       1.0  0.89690  0.49148  0.52386  1.0000
  C   C33       1.0  0.06278  0.90896  0.08056  1.0000
  C   C34       1.0  0.05232  0.59091  0.41943  1.0000
  C   C35       1.0  0.93724  0.09103  0.91944  1.0000
  C   C36       1.0  0.94766  0.40911  0.58057  1.0000
  C   C37       1.0  0.80336  0.17232  0.45501  1.0000
  C   C38       1.0  0.43011  0.32813  0.04526  1.0000
  C   C39       1.0  0.19664  0.82768  0.54499  1.0000
  C   C40       1.0  0.56992  0.67189  0.95474  1.0000
  N   N1        1.0  0.55387  0.92995  0.27942  1.0000
  N   N2        1.0  0.76204  0.57077  0.22055  1.0000
  N   N3        1.0  0.44613  0.07005  0.72057  1.0000
  N   N4        1.0  0.23795  0.42922  0.77945  1.0000
  N   N5        1.0  0.50541  0.99165  0.46831  1.0000
  N   N6        1.0  0.96511  0.50840  0.03167  1.0000
  N   N7        1.0  0.49459  0.00834  0.53168  1.0000
  N   N8        1.0  0.03490  0.49159  0.96833  1.0000
  O   O1        1.0  0.20277  0.78990  0.17837  1.0000
  O   O2        1.0  0.17123  0.71063  0.32178  1.0000
  O   O3        1.0  0.79724  0.21009  0.82163  1.0000
  O   O4        1.0  0.82873  0.28939  0.67822  1.0000
  O   O5        1.0  0.42614  0.95593  0.12318  1.0000
  O   O6        1.0  0.50513  0.54381  0.37686  1.0000
  O   O7        1.0  0.57386  0.04406  0.87681  1.0000
  O   O8        1.0  0.49484  0.45620  0.62314  1.0000
