data_image0
_chemical_formula_structural       MnH8C2N10O4
_chemical_formula_sum              "Mn1 H8 C2 N10 O4"
_cell_length_a       6.20635
_cell_length_b       6.51638
_cell_length_c       7.25571
_cell_angle_alpha    79.8509
_cell_angle_beta     72.1116
_cell_angle_gamma    56.8527

_space_group_name_H-M_alt    "P 1"
_space_group_IT_number       1

loop_
  _space_group_symop_operation_xyz
  'x, y, z'

loop_
  _atom_site_type_symbol
  _atom_site_label
  _atom_site_symmetry_multiplicity
  _atom_site_fract_x
  _atom_site_fract_y
  _atom_site_fract_z
  _atom_site_occupancy
  Mn  Mn1       1.0  0.50001  0.50000  0.49999  1.0000
  H   H1        1.0  0.78720  0.74640  0.46772  1.0000
  H   H2        1.0  0.21285  0.25353  0.53229  1.0000
  H   H3        1.0  0.63340  0.73918  0.69125  1.0000
  H   H4        1.0  0.36659  0.26083  0.30874  1.0000
  H   H5        1.0  0.94075  0.08329  0.33744  1.0000
  H   H6        1.0  0.05925  0.91671  0.66255  1.0000
  H   H7        1.0  0.93524  0.33514  0.25680  1.0000
  H   H8        1.0  0.06478  0.66487  0.74318  1.0000
  C   C1        1.0  0.65534  0.64015  0.08053  1.0000
  C   C2        1.0  0.34465  0.35986  0.91947  1.0000
  N   N1        1.0  0.46047  0.66761  0.24426  1.0000
  N   N2        1.0  0.53954  0.33239  0.75574  1.0000
  N   N3        1.0  0.22684  0.81160  0.19245  1.0000
  N   N4        1.0  0.77316  0.18840  0.80755  1.0000
  N   N5        1.0  0.27979  0.86553  0.00733  1.0000
  N   N6        1.0  0.72022  0.13446  0.99266  1.0000
  N   N7        1.0  0.54325  0.76218  0.93251  1.0000
  N   N8        1.0  0.45676  0.23782  0.06749  1.0000
  N   N9        1.0  0.91448  0.50717  0.08330  1.0000
  N   N10       1.0  0.08551  0.49285  0.91669  1.0000
  O   O1        1.0  0.65115  0.71587  0.55156  1.0000
  O   O2        1.0  0.34880  0.28418  0.44843  1.0000
  O   O3        1.0  0.87563  0.24900  0.38193  1.0000
  O   O4        1.0  0.12434  0.75099  0.61812  1.0000
