data_image0
_chemical_formula_structural       Cd4H36C40I4N12O12
_chemical_formula_sum              "Cd4 H36 C40 I4 N12 O12"
_cell_length_a       11.6966
_cell_length_b       11.6966
_cell_length_c       14.7291
_cell_angle_alpha    78.8594
_cell_angle_beta     78.8594
_cell_angle_gamma    85.5611

_space_group_name_H-M_alt    "P 1"
_space_group_IT_number       1

loop_
  _space_group_symop_operation_xyz
  'x, y, z'

loop_
  _atom_site_type_symbol
  _atom_site_label
  _atom_site_symmetry_multiplicity
  _atom_site_fract_x
  _atom_site_fract_y
  _atom_site_fract_z
  _atom_site_occupancy
  Cd  Cd1       1.0  0.71705  0.11061  0.06643  1.0000
  Cd  Cd2       1.0  0.88939  0.28295  0.43357  1.0000
  Cd  Cd3       1.0  0.28295  0.88939  0.93357  1.0000
  Cd  Cd4       1.0  0.11061  0.71705  0.56643  1.0000
  H   H1        1.0  0.91649  0.89966  0.07536  1.0000
  H   H2        1.0  0.10034  0.08350  0.42465  1.0000
  H   H3        1.0  0.08351  0.10034  0.92464  1.0000
  H   H4        1.0  0.89966  0.91650  0.57535  1.0000
  H   H5        1.0  0.02702  0.77860  0.18394  1.0000
  H   H6        1.0  0.22140  0.97298  0.31606  1.0000
  H   H7        1.0  0.97298  0.22140  0.81606  1.0000
  H   H8        1.0  0.77860  0.02701  0.68394  1.0000
  H   H9        1.0  0.72814  0.07213  0.28170  1.0000
  H   H10       1.0  0.92787  0.27186  0.21830  1.0000
  H   H11       1.0  0.27186  0.92787  0.71830  1.0000
  H   H12       1.0  0.07213  0.72814  0.78170  1.0000
  H   H13       1.0  0.83421  0.95568  0.40405  1.0000
  H   H14       1.0  0.04432  0.16579  0.09595  1.0000
  H   H15       1.0  0.16579  0.04432  0.59595  1.0000
  H   H16       1.0  0.95568  0.83421  0.90405  1.0000
  H   H17       1.0  0.05767  0.35298  0.89632  1.0000
  H   H18       1.0  0.64702  0.94233  0.60367  1.0000
  H   H19       1.0  0.94233  0.64702  0.10368  1.0000
  H   H20       1.0  0.35298  0.05767  0.39632  1.0000
  H   H21       1.0  0.82083  0.47440  0.12311  1.0000
  H   H22       1.0  0.52560  0.17917  0.37689  1.0000
  H   H23       1.0  0.17917  0.52560  0.87689  1.0000
  H   H24       1.0  0.47440  0.82083  0.62311  1.0000
  H   H25       1.0  0.10768  0.70740  0.28288  1.0000
  H   H26       1.0  0.29260  0.89232  0.21712  1.0000
  H   H27       1.0  0.89232  0.29260  0.71712  1.0000
  H   H28       1.0  0.70740  0.10768  0.78288  1.0000
  H   H29       1.0  0.24107  0.64479  0.39212  1.0000
  H   H30       1.0  0.35522  0.75893  0.10788  1.0000
  H   H31       1.0  0.75893  0.35522  0.60788  1.0000
  H   H32       1.0  0.64478  0.24107  0.89212  1.0000
  H   H33       1.0  0.11839  0.56884  0.42042  1.0000
  H   H34       1.0  0.43117  0.88161  0.07958  1.0000
  H   H35       1.0  0.88161  0.43116  0.57958  1.0000
  H   H36       1.0  0.56884  0.11839  0.92042  1.0000
  C   C1        1.0  0.85908  0.29935  0.02270  1.0000
  C   C2        1.0  0.70065  0.14092  0.47730  1.0000
  C   C3        1.0  0.14092  0.70065  0.97730  1.0000
  C   C4        1.0  0.29935  0.85908  0.52270  1.0000
  C   C5        1.0  0.90004  0.90948  0.14879  1.0000
  C   C6        1.0  0.09052  0.09996  0.35121  1.0000
  C   C7        1.0  0.09996  0.09052  0.85121  1.0000
  C   C8        1.0  0.90948  0.90004  0.64879  1.0000
  C   C9        1.0  0.96242  0.84100  0.21233  1.0000
  C   C10       1.0  0.15900  0.03758  0.28767  1.0000
  C   C11       1.0  0.03758  0.15900  0.78767  1.0000
  C   C12       1.0  0.84100  0.96242  0.71233  1.0000
  C   C13       1.0  0.79500  0.00557  0.26397  1.0000
  C   C14       1.0  0.99444  0.20499  0.23603  1.0000
  C   C15       1.0  0.20500  0.99444  0.73603  1.0000
  C   C16       1.0  0.00556  0.79500  0.76397  1.0000
  C   C17       1.0  0.85382  0.94106  0.33180  1.0000
  C   C18       1.0  0.05894  0.14618  0.16819  1.0000
  C   C19       1.0  0.14619  0.05894  0.66819  1.0000
  C   C20       1.0  0.94106  0.85382  0.83180  1.0000
  C   C21       1.0  0.94026  0.85792  0.30570  1.0000
  C   C22       1.0  0.14208  0.05974  0.19430  1.0000
  C   C23       1.0  0.05974  0.14208  0.69430  1.0000
  C   C24       1.0  0.85792  0.94026  0.80570  1.0000
  C   C25       1.0  0.03305  0.41751  0.94170  1.0000
  C   C26       1.0  0.58250  0.96695  0.55830  1.0000
  C   C27       1.0  0.96695  0.58249  0.05830  1.0000
  C   C28       1.0  0.41751  0.03305  0.44170  1.0000
  C   C29       1.0  0.89920  0.48643  0.06915  1.0000
  C   C30       1.0  0.51357  0.10080  0.43085  1.0000
  C   C31       1.0  0.10080  0.51357  0.93085  1.0000
  C   C32       1.0  0.48643  0.89921  0.56915  1.0000
  C   C33       1.0  0.93164  0.40317  0.01075  1.0000
  C   C34       1.0  0.59683  0.06836  0.48924  1.0000
  C   C35       1.0  0.06836  0.59683  0.98924  1.0000
  C   C36       1.0  0.40317  0.93164  0.51075  1.0000
  C   C37       1.0  0.00531  0.79316  0.37908  1.0000
  C   C38       1.0  0.20684  0.99469  0.12092  1.0000
  C   C39       1.0  0.99469  0.20684  0.62092  1.0000
  C   C40       1.0  0.79315  0.00530  0.87908  1.0000
  I   I1        1.0  0.49213  0.06656  0.16404  1.0000
  I   I2        1.0  0.93345  0.50786  0.33597  1.0000
  I   I3        1.0  0.50786  0.93344  0.83597  1.0000
  I   I4        1.0  0.06656  0.49214  0.66403  1.0000
  N   N1        1.0  0.81838  0.99051  0.17379  1.0000
  N   N2        1.0  0.00949  0.18162  0.32621  1.0000
  N   N3        1.0  0.18162  0.00949  0.82621  1.0000
  N   N4        1.0  0.99051  0.81838  0.67379  1.0000
  N   N5        1.0  0.10241  0.72957  0.34723  1.0000
  N   N6        1.0  0.27043  0.89758  0.15277  1.0000
  N   N7        1.0  0.89759  0.27043  0.65277  1.0000
  N   N8        1.0  0.72957  0.10241  0.84723  1.0000
  N   N9        1.0  0.15280  0.64942  0.41388  1.0000
  N   N10       1.0  0.35058  0.84720  0.08612  1.0000
  N   N11       1.0  0.84720  0.35058  0.58612  1.0000
  N   N12       1.0  0.64942  0.15280  0.91388  1.0000
  O   O1        1.0  0.77573  0.28240  0.09398  1.0000
  O   O2        1.0  0.71761  0.22427  0.40601  1.0000
  O   O3        1.0  0.22426  0.71761  0.90601  1.0000
  O   O4        1.0  0.28240  0.77573  0.59398  1.0000
  O   O5        1.0  0.88247  0.23025  0.96371  1.0000
  O   O6        1.0  0.76975  0.11753  0.53629  1.0000
  O   O7        1.0  0.11753  0.76975  0.03630  1.0000
  O   O8        1.0  0.23025  0.88248  0.46371  1.0000
  O   O9        1.0  0.97368  0.80103  0.46330  1.0000
  O   O10       1.0  0.19897  0.02632  0.03671  1.0000
  O   O11       1.0  0.02632  0.19897  0.53670  1.0000
  O   O12       1.0  0.80103  0.97368  0.96330  1.0000
