data_image0
_chemical_formula_structural       Zn2H12C16N8Cl8
_chemical_formula_sum              "Zn2 H12 C16 N8 Cl8"
_cell_length_a       3.5998
_cell_length_b       9.7603
_cell_length_c       16.5927
_cell_angle_alpha    90
_cell_angle_beta     94.281
_cell_angle_gamma    90.0001

_space_group_name_H-M_alt    "P 1"
_space_group_IT_number       1

loop_
  _space_group_symop_operation_xyz
  'x, y, z'

loop_
  _atom_site_type_symbol
  _atom_site_label
  _atom_site_symmetry_multiplicity
  _atom_site_fract_x
  _atom_site_fract_y
  _atom_site_fract_z
  _atom_site_occupancy
  Zn  Zn1       1.0  0.50000  0.50000  0.50000  1.0000
  Zn  Zn2       1.0  0.00000  0.00000  0.00000  1.0000
  H   H1        1.0  0.31652  0.19215  0.51047  1.0000
  H   H2        1.0  0.18348  0.69216  0.98953  1.0000
  H   H3        1.0  0.68348  0.80784  0.48953  1.0000
  H   H4        1.0  0.81652  0.30785  0.01047  1.0000
  H   H5        1.0  0.73052  0.46721  0.68685  1.0000
  H   H6        1.0  0.76948  0.96722  0.81315  1.0000
  H   H7        1.0  0.26948  0.53278  0.31315  1.0000
  H   H8        1.0  0.23052  0.03278  0.18685  1.0000
  H   H9        1.0  0.75647  0.27586  0.79068  1.0000
  H   H10       1.0  0.74353  0.77586  0.70932  1.0000
  H   H11       1.0  0.24353  0.72414  0.20932  1.0000
  H   H12       1.0  0.25647  0.22414  0.29068  1.0000
  C   C1        1.0  0.42411  0.10836  0.63227  1.0000
  C   C2        1.0  0.07588  0.60836  0.86773  1.0000
  C   C3        1.0  0.57589  0.89164  0.36773  1.0000
  C   C4        1.0  0.92411  0.39164  0.13227  1.0000
  C   C5        1.0  0.41385  0.21080  0.57316  1.0000
  C   C6        1.0  0.08615  0.71080  0.92684  1.0000
  C   C7        1.0  0.58616  0.78920  0.42684  1.0000
  C   C8        1.0  0.91385  0.28920  0.07316  1.0000
  C   C9        1.0  0.64219  0.36322  0.67090  1.0000
  C   C10       1.0  0.85781  0.86322  0.82910  1.0000
  C   C11       1.0  0.35781  0.63678  0.32910  1.0000
  C   C12       1.0  0.14218  0.13678  0.17090  1.0000
  C   C13       1.0  0.65605  0.25787  0.72792  1.0000
  C   C14       1.0  0.84394  0.75787  0.77208  1.0000
  C   C15       1.0  0.34394  0.74213  0.27208  1.0000
  C   C16       1.0  0.15605  0.24213  0.22792  1.0000
  N   N1        1.0  0.54608  0.12989  0.70858  1.0000
  N   N2        1.0  0.95392  0.62989  0.79142  1.0000
  N   N3        1.0  0.45392  0.87011  0.29143  1.0000
  N   N4        1.0  0.04609  0.37011  0.20858  1.0000
  N   N5        1.0  0.52319  0.33804  0.59355  1.0000
  N   N6        1.0  0.97681  0.83804  0.90645  1.0000
  N   N7        1.0  0.47680  0.66195  0.40645  1.0000
  N   N8        1.0  0.02319  0.16196  0.09354  1.0000
  Cl  Cl1       1.0  0.96330  0.37883  0.42556  1.0000
  Cl  Cl2       1.0  0.53671  0.87883  0.07444  1.0000
  Cl  Cl3       1.0  0.03671  0.62117  0.57444  1.0000
  Cl  Cl4       1.0  0.46329  0.12117  0.92556  1.0000
  Cl  Cl5       1.0  0.27167  0.94508  0.60604  1.0000
  Cl  Cl6       1.0  0.22832  0.44508  0.89395  1.0000
  Cl  Cl7       1.0  0.72833  0.05492  0.39396  1.0000
  Cl  Cl8       1.0  0.77168  0.55492  0.10604  1.0000
