data_image0
_chemical_formula_structural       Zn2H42C34N4O8
_chemical_formula_sum              "Zn2 H42 C34 N4 O8"
_cell_length_a       8.99109
_cell_length_b       9.37786
_cell_length_c       11.2733
_cell_angle_alpha    101.938
_cell_angle_beta     112.56
_cell_angle_gamma    100.026

_space_group_name_H-M_alt    "P 1"
_space_group_IT_number       1

loop_
  _space_group_symop_operation_xyz
  'x, y, z'

loop_
  _atom_site_type_symbol
  _atom_site_label
  _atom_site_symmetry_multiplicity
  _atom_site_fract_x
  _atom_site_fract_y
  _atom_site_fract_z
  _atom_site_occupancy
  Zn  Zn1       1.0  0.55147  0.02517  0.39421  1.0000
  Zn  Zn2       1.0  0.44852  0.97483  0.60579  1.0000
  H   H1        1.0  0.56957  0.34852  0.34314  1.0000
  H   H2        1.0  0.43043  0.65148  0.65687  1.0000
  H   H3        1.0  0.57727  0.54091  0.21957  1.0000
  H   H4        1.0  0.42273  0.45909  0.78043  1.0000
  H   H5        1.0  0.65032  0.49485  0.02683  1.0000
  H   H6        1.0  0.34968  0.50515  0.97318  1.0000
  H   H7        1.0  0.71915  0.25677  0.95038  1.0000
  H   H8        1.0  0.28085  0.74323  0.04962  1.0000
  H   H9        1.0  0.67722  0.74465  0.10697  1.0000
  H   H10       1.0  0.32278  0.25535  0.89303  1.0000
  H   H11       1.0  0.63631  0.78568  0.24988  1.0000
  H   H12       1.0  0.36369  0.21432  0.75012  1.0000
  H   H13       1.0  0.90956  0.72687  0.31194  1.0000
  H   H14       1.0  0.09044  0.27313  0.68806  1.0000
  H   H15       1.0  0.94030  0.91778  0.39881  1.0000
  H   H16       1.0  0.05970  0.08222  0.60119  1.0000
  H   H17       1.0  0.98853  0.87623  0.25891  1.0000
  H   H18       1.0  0.01148  0.12377  0.74109  1.0000
  H   H19       1.0  0.70968  0.98461  0.90142  1.0000
  H   H20       1.0  0.29032  0.01539  0.09858  1.0000
  H   H21       1.0  0.75081  0.84414  0.98189  1.0000
  H   H22       1.0  0.24920  0.15586  0.01812  1.0000
  H   H23       1.0  0.99322  0.15976  0.06166  1.0000
  H   H24       1.0  0.00678  0.84024  0.93835  1.0000
  H   H25       1.0  0.03788  0.02495  0.14872  1.0000
  H   H26       1.0  0.96212  0.97505  0.85128  1.0000
  H   H27       1.0  0.93884  0.78722  0.65467  1.0000
  H   H28       1.0  0.06116  0.21278  0.34533  1.0000
  H   H29       1.0  0.80362  0.66271  0.49385  1.0000
  H   H30       1.0  0.19638  0.33729  0.50615  1.0000
  H   H31       1.0  0.74126  0.66209  0.74357  1.0000
  H   H32       1.0  0.25874  0.33791  0.25643  1.0000
  H   H33       1.0  0.63556  0.52190  0.58568  1.0000
  H   H34       1.0  0.36444  0.47810  0.41432  1.0000
  H   H35       1.0  0.01117  0.60012  0.77210  1.0000
  H   H36       1.0  0.98883  0.39988  0.22790  1.0000
  H   H37       1.0  0.90582  0.45624  0.61579  1.0000
  H   H38       1.0  0.09418  0.54376  0.38421  1.0000
  H   H39       1.0  0.95823  0.37534  0.83280  1.0000
  H   H40       1.0  0.04177  0.62466  0.16720  1.0000
  H   H41       1.0  0.79828  0.45405  0.84322  1.0000
  H   H42       1.0  0.20171  0.54594  0.15678  1.0000
  C   C1        1.0  0.68879  0.17426  0.10940  1.0000
  C   C2        1.0  0.31121  0.82574  0.89060  1.0000
  C   C3        1.0  0.64406  0.19739  0.21776  1.0000
  C   C4        1.0  0.35594  0.80261  0.78224  1.0000
  C   C5        1.0  0.60477  0.33087  0.26021  1.0000
  C   C6        1.0  0.39523  0.66913  0.73979  1.0000
  C   C7        1.0  0.60929  0.43654  0.19008  1.0000
  C   C8        1.0  0.39071  0.56346  0.80993  1.0000
  C   C9        1.0  0.65169  0.41079  0.08085  1.0000
  C   C10       1.0  0.34831  0.58921  0.91915  1.0000
  C   C11       1.0  0.69236  0.27889  0.03796  1.0000
  C   C12       1.0  0.30764  0.72111  0.96204  1.0000
  C   C13       1.0  0.69294  0.97451  0.18791  1.0000
  C   C14       1.0  0.30706  0.02549  0.81210  1.0000
  C   C15       1.0  0.71865  0.82689  0.20608  1.0000
  C   C16       1.0  0.28135  0.17311  0.79392  1.0000
  C   C17       1.0  0.90026  0.83833  0.29904  1.0000
  C   C18       1.0  0.09974  0.16167  0.70096  1.0000
  C   C19       1.0  0.78050  0.96728  0.99856  1.0000
  C   C20       1.0  0.21950  0.03272  0.00144  1.0000
  C   C21       1.0  0.96840  0.03695  0.04881  1.0000
  C   C22       1.0  0.03160  0.96306  0.95119  1.0000
  C   C23       1.0  0.70201  0.83023  0.57007  1.0000
  C   C24       1.0  0.29800  0.16977  0.42992  1.0000
  C   C25       1.0  0.80726  0.71863  0.59117  1.0000
  C   C26       1.0  0.19274  0.28137  0.40883  1.0000
  C   C27       1.0  0.75852  0.60286  0.65673  1.0000
  C   C28       1.0  0.24148  0.39714  0.34327  1.0000
  C   C29       1.0  0.88957  0.51733  0.70245  1.0000
  C   C30       1.0  0.11043  0.48267  0.29755  1.0000
  C   C31       1.0  0.84523  0.40445  0.77200  1.0000
  C   C32       1.0  0.15477  0.59555  0.22800  1.0000
  C   C33       1.0  0.71714  0.25398  0.67700  1.0000
  C   C34       1.0  0.28286  0.74602  0.32299  1.0000
  N   N1        1.0  0.71961  0.03305  0.09370  1.0000
  N   N2        1.0  0.28039  0.96695  0.90630  1.0000
  N   N3        1.0  0.64550  0.06995  0.26292  1.0000
  N   N4        1.0  0.35450  0.93005  0.73708  1.0000
  O   O1        1.0  0.69279  0.88789  0.47557  1.0000
  O   O2        1.0  0.30721  0.11211  0.52443  1.0000
  O   O3        1.0  0.63324  0.85997  0.64852  1.0000
  O   O4        1.0  0.36675  0.14002  0.35147  1.0000
  O   O5        1.0  0.69864  0.21636  0.55634  1.0000
  O   O6        1.0  0.30136  0.78364  0.44367  1.0000
  O   O7        1.0  0.64054  0.17552  0.72717  1.0000
  O   O8        1.0  0.35946  0.82448  0.27282  1.0000
