data_image0
_chemical_formula_structural       Ba4H24C28N8O36
_chemical_formula_sum              "Ba4 H24 C28 N8 O36"
_cell_length_a       4.36425
_cell_length_b       11.0091
_cell_length_c       23.6384
_cell_angle_alpha    93.6429
_cell_angle_beta     89.9979
_cell_angle_gamma    89.9985

_space_group_name_H-M_alt    "P 1"
_space_group_IT_number       1

loop_
  _space_group_symop_operation_xyz
  'x, y, z'

loop_
  _atom_site_type_symbol
  _atom_site_label
  _atom_site_symmetry_multiplicity
  _atom_site_fract_x
  _atom_site_fract_y
  _atom_site_fract_z
  _atom_site_occupancy
  Ba  Ba1       1.0  0.61404  0.70720  0.98844  1.0000
  Ba  Ba2       1.0  0.11407  0.79280  0.51156  1.0000
  Ba  Ba3       1.0  0.38595  0.29281  0.01155  1.0000
  Ba  Ba4       1.0  0.88594  0.20720  0.48845  1.0000
  H   H1        1.0  0.89118  0.31198  0.80759  1.0000
  H   H2        1.0  0.39116  0.18801  0.69241  1.0000
  H   H3        1.0  0.10886  0.68801  0.19239  1.0000
  H   H4        1.0  0.60887  0.81200  0.30761  1.0000
  H   H5        1.0  0.35293  0.61737  0.73981  1.0000
  H   H6        1.0  0.85294  0.88263  0.76018  1.0000
  H   H7        1.0  0.64715  0.38262  0.26018  1.0000
  H   H8        1.0  0.14712  0.11739  0.23983  1.0000
  H   H9        1.0  0.22953  0.96248  0.94936  1.0000
  H   H10       1.0  0.72956  0.53752  0.55064  1.0000
  H   H11       1.0  0.77033  0.03751  0.05063  1.0000
  H   H12       1.0  0.27040  0.46249  0.44937  1.0000
  H   H13       1.0  0.19562  0.94669  0.01380  1.0000
  H   H14       1.0  0.69567  0.55330  0.48619  1.0000
  H   H15       1.0  0.80415  0.05329  0.98618  1.0000
  H   H16       1.0  0.30416  0.44671  0.51382  1.0000
  H   H17       1.0  0.83414  0.84967  0.09686  1.0000
  H   H18       1.0  0.33426  0.65033  0.40314  1.0000
  H   H19       1.0  0.16583  0.15033  0.90314  1.0000
  H   H20       1.0  0.66577  0.34968  0.59686  1.0000
  H   H21       1.0  0.52465  0.91640  0.11328  1.0000
  H   H22       1.0  0.02475  0.58360  0.38672  1.0000
  H   H23       1.0  0.47534  0.08359  0.88672  1.0000
  H   H24       1.0  0.97530  0.41641  0.61328  1.0000
  C   C1        1.0  0.84143  0.40217  0.91640  1.0000
  C   C2        1.0  0.34141  0.09783  0.58361  1.0000
  C   C3        1.0  0.15856  0.59783  0.08359  1.0000
  C   C4        1.0  0.65860  0.90218  0.41641  1.0000
  C   C5        1.0  0.99086  0.46038  0.86778  1.0000
  C   C6        1.0  0.49084  0.03961  0.63221  1.0000
  C   C7        1.0  0.00916  0.53961  0.13220  1.0000
  C   C8        1.0  0.50918  0.96040  0.36780  1.0000
  C   C9        1.0  0.99253  0.40185  0.81451  1.0000
  C   C10       1.0  0.49250  0.09814  0.68549  1.0000
  C   C11       1.0  0.00751  0.59813  0.18548  1.0000
  C   C12       1.0  0.50751  0.90187  0.31452  1.0000
  C   C13       1.0  0.11948  0.45908  0.76831  1.0000
  C   C14       1.0  0.61949  0.04091  0.73169  1.0000
  C   C15       1.0  0.88055  0.54091  0.23168  1.0000
  C   C16       1.0  0.38054  0.95910  0.26833  1.0000
  C   C17       1.0  0.25328  0.57388  0.77547  1.0000
  C   C18       1.0  0.75326  0.92611  0.72452  1.0000
  C   C19       1.0  0.74679  0.42611  0.22452  1.0000
  C   C20       1.0  0.24679  0.07390  0.27549  1.0000
  C   C21       1.0  0.25800  0.63106  0.82931  1.0000
  C   C22       1.0  0.75799  0.86893  0.67068  1.0000
  C   C23       1.0  0.74205  0.36893  0.17068  1.0000
  C   C24       1.0  0.24205  0.13108  0.32933  1.0000
  C   C25       1.0  0.12295  0.58011  0.87833  1.0000
  C   C26       1.0  0.62294  0.91988  0.62167  1.0000
  C   C27       1.0  0.87708  0.41987  0.12166  1.0000
  C   C28       1.0  0.37708  0.08013  0.37835  1.0000
  N   N1        1.0  0.09502  0.40193  0.71253  1.0000
  N   N2        1.0  0.59505  0.09806  0.78747  1.0000
  N   N3        1.0  0.90501  0.59806  0.28746  1.0000
  N   N4        1.0  0.40497  0.90194  0.21255  1.0000
  N   N5        1.0  0.38072  0.75314  0.83477  1.0000
  N   N6        1.0  0.88072  0.74684  0.66522  1.0000
  N   N7        1.0  0.61927  0.24685  0.16522  1.0000
  N   N8        1.0  0.11929  0.25317  0.33479  1.0000
  O   O1        1.0  0.11411  0.63782  0.92701  1.0000
  O   O2        1.0  0.61410  0.86217  0.57299  1.0000
  O   O3        1.0  0.88590  0.36216  0.07298  1.0000
  O   O4        1.0  0.38591  0.13785  0.42703  1.0000
  O   O5        1.0  0.64122  0.46403  0.94467  1.0000
  O   O6        1.0  0.14119  0.03596  0.55534  1.0000
  O   O7        1.0  0.35880  0.53596  0.05532  1.0000
  O   O8        1.0  0.85881  0.96404  0.44468  1.0000
  O   O9        1.0  0.91888  0.29440  0.92794  1.0000
  O   O10       1.0  0.41885  0.20559  0.57206  1.0000
  O   O11       1.0  0.08112  0.70559  0.07204  1.0000
  O   O12       1.0  0.58117  0.79440  0.42795  1.0000
  O   O13       1.0  0.93610  0.30794  0.70505  1.0000
  O   O14       1.0  0.43611  0.19205  0.79495  1.0000
  O   O15       1.0  0.06394  0.69206  0.29494  1.0000
  O   O16       1.0  0.56389  0.80795  0.20506  1.0000
  O   O17       1.0  0.22870  0.44984  0.67217  1.0000
  O   O18       1.0  0.72874  0.05016  0.82782  1.0000
  O   O19       1.0  0.77133  0.55016  0.32781  1.0000
  O   O20       1.0  0.27127  0.94985  0.17219  1.0000
  O   O21       1.0  0.31565  0.82349  0.79758  1.0000
  O   O22       1.0  0.81563  0.67650  0.70241  1.0000
  O   O23       1.0  0.68434  0.17650  0.20241  1.0000
  O   O24       1.0  0.18439  0.32351  0.29759  1.0000
  O   O25       1.0  0.54593  0.78343  0.87663  1.0000
  O   O26       1.0  0.04592  0.71655  0.62336  1.0000
  O   O27       1.0  0.45404  0.21658  0.12336  1.0000
  O   O28       1.0  0.95405  0.28346  0.37665  1.0000
  O   O29       1.0  0.18689  0.90006  0.97737  1.0000
  O   O30       1.0  0.68695  0.59993  0.52263  1.0000
  O   O31       1.0  0.81295  0.09992  0.02262  1.0000
  O   O32       1.0  0.31300  0.40008  0.47739  1.0000
  O   O33       1.0  0.67670  0.90361  0.08212  1.0000
  O   O34       1.0  0.17681  0.59639  0.41788  1.0000
  O   O35       1.0  0.32327  0.09638  0.91788  1.0000
  O   O36       1.0  0.82323  0.40362  0.58212  1.0000
