data_image0
_chemical_formula_structural       Co2H24C24N4Cl4
_chemical_formula_sum              "Co2 H24 C24 N4 Cl4"
_cell_length_a       5.35175
_cell_length_b       8.86032
_cell_length_c       13.6117
_cell_angle_alpha    84.9569
_cell_angle_beta     82.8018
_cell_angle_gamma    83.3517

_space_group_name_H-M_alt    "P 1"
_space_group_IT_number       1

loop_
  _space_group_symop_operation_xyz
  'x, y, z'

loop_
  _atom_site_type_symbol
  _atom_site_label
  _atom_site_symmetry_multiplicity
  _atom_site_fract_x
  _atom_site_fract_y
  _atom_site_fract_z
  _atom_site_occupancy
  Co  Co1       1.0  0.85969  0.53740  0.74222  1.0000
  Co  Co2       1.0  0.14032  0.46259  0.25778  1.0000
  H   H1        1.0  0.44519  0.52501  0.61710  1.0000
  H   H2        1.0  0.55481  0.47499  0.38290  1.0000
  H   H3        1.0  0.26464  0.32726  0.53837  1.0000
  H   H4        1.0  0.73536  0.67275  0.46163  1.0000
  H   H5        1.0  0.80634  0.99198  0.66673  1.0000
  H   H6        1.0  0.19365  0.00803  0.33326  1.0000
  H   H7        1.0  0.97181  0.20657  0.74002  1.0000
  H   H8        1.0  0.02818  0.79342  0.25998  1.0000
  H   H9        1.0  0.22180  0.05288  0.53497  1.0000
  H   H10       1.0  0.77820  0.94714  0.46502  1.0000
  H   H11       1.0  0.41994  0.91378  0.59919  1.0000
  H   H12       1.0  0.58003  0.08623  0.40081  1.0000
  H   H13       1.0  0.39339  0.73905  0.71342  1.0000
  H   H14       1.0  0.60662  0.26095  0.28659  1.0000
  H   H15       1.0  0.06161  0.89109  0.81500  1.0000
  H   H16       1.0  0.93840  0.10890  0.18501  1.0000
  H   H17       1.0  0.45437  0.73384  0.07018  1.0000
  H   H18       1.0  0.54564  0.26616  0.92982  1.0000
  H   H19       1.0  0.77564  0.58834  0.95700  1.0000
  H   H20       1.0  0.22436  0.41166  0.04300  1.0000
  H   H21       1.0  0.85438  0.85951  0.02630  1.0000
  H   H22       1.0  0.14563  0.14049  0.97370  1.0000
  H   H23       1.0  0.08692  0.90867  0.09396  1.0000
  H   H24       1.0  0.91308  0.09132  0.90605  1.0000
  C   C1        1.0  0.52263  0.40601  0.62642  1.0000
  C   C2        1.0  0.47736  0.59399  0.37358  1.0000
  C   C3        1.0  0.42079  0.29464  0.58300  1.0000
  C   C4        1.0  0.57920  0.70537  0.41700  1.0000
  C   C5        1.0  0.51865  0.14185  0.59704  1.0000
  C   C6        1.0  0.48134  0.85816  0.40296  1.0000
  C   C7        1.0  0.72036  0.10908  0.65483  1.0000
  C   C8        1.0  0.27963  0.89092  0.34516  1.0000
  C   C9        1.0  0.81376  0.22642  0.69539  1.0000
  C   C10       1.0  0.18624  0.77358  0.30460  1.0000
  C   C11       1.0  0.41857  0.01831  0.54943  1.0000
  C   C12       1.0  0.58142  0.98170  0.45057  1.0000
  C   C13       1.0  0.40439  0.74327  0.79246  1.0000
  C   C14       1.0  0.59562  0.25672  0.20754  1.0000
  C   C15       1.0  0.21805  0.82849  0.85045  1.0000
  C   C16       1.0  0.78195  0.17150  0.14956  1.0000
  C   C17       1.0  0.22935  0.82889  0.95280  1.0000
  C   C18       1.0  0.77066  0.17110  0.04721  1.0000
  C   C19       1.0  0.43430  0.74064  0.99109  1.0000
  C   C20       1.0  0.56571  0.25935  0.00891  1.0000
  C   C21       1.0  0.61506  0.65816  0.92863  1.0000
  C   C22       1.0  0.38495  0.34184  0.07137  1.0000
  C   C23       1.0  0.02877  0.91644  0.01903  1.0000
  C   C24       1.0  0.97124  0.08355  0.98098  1.0000
  N   N1        1.0  0.71641  0.37356  0.68204  1.0000
  N   N2        1.0  0.28359  0.62643  0.31796  1.0000
  N   N3        1.0  0.60185  0.65930  0.83018  1.0000
  N   N4        1.0  0.39815  0.34070  0.16982  1.0000
  Cl  Cl1       1.0  0.98773  0.70179  0.61753  1.0000
  Cl  Cl2       1.0  0.01227  0.29821  0.38247  1.0000
  Cl  Cl3       1.0  0.13097  0.41680  0.84048  1.0000
  Cl  Cl4       1.0  0.86904  0.58319  0.15952  1.0000
