data_image0
_chemical_formula_structural       Cu2H32C22N8Cl4
_chemical_formula_sum              "Cu2 H32 C22 N8 Cl4"
_cell_length_a       8.69108
_cell_length_b       8.7179
_cell_length_c       9.6309
_cell_angle_alpha    80.9006
_cell_angle_beta     63.6845
_cell_angle_gamma    87.6768

_space_group_name_H-M_alt    "P 1"
_space_group_IT_number       1

loop_
  _space_group_symop_operation_xyz
  'x, y, z'

loop_
  _atom_site_type_symbol
  _atom_site_label
  _atom_site_symmetry_multiplicity
  _atom_site_fract_x
  _atom_site_fract_y
  _atom_site_fract_z
  _atom_site_occupancy
  Cu  Cu1       1.0  0.36582  0.08313  0.89948  1.0000
  Cu  Cu2       1.0  0.63418  0.91687  0.10052  1.0000
  H   H1        1.0  0.02707  0.18405  0.90811  1.0000
  H   H2        1.0  0.97293  0.81595  0.09189  1.0000
  H   H3        1.0  0.24712  0.90020  0.24649  1.0000
  H   H4        1.0  0.75288  0.09980  0.75351  1.0000
  H   H5        1.0  0.69671  0.88914  0.38818  1.0000
  H   H6        1.0  0.30330  0.11086  0.61181  1.0000
  H   H7        1.0  0.57330  0.82655  0.59268  1.0000
  H   H8        1.0  0.42670  0.17345  0.40732  1.0000
  H   H9        1.0  0.65842  0.68745  0.46347  1.0000
  H   H10       1.0  0.34158  0.31255  0.53653  1.0000
  H   H11       1.0  0.94126  0.66705  0.53703  1.0000
  H   H12       1.0  0.05874  0.33295  0.46298  1.0000
  H   H13       1.0  0.90923  0.81157  0.65700  1.0000
  H   H14       1.0  0.09077  0.18843  0.34301  1.0000
  H   H15       1.0  0.94405  0.86564  0.45897  1.0000
  H   H16       1.0  0.05595  0.13436  0.54103  1.0000
  H   H17       1.0  0.29381  0.75140  0.77879  1.0000
  H   H18       1.0  0.70619  0.24860  0.22121  1.0000
  H   H19       1.0  0.08214  0.74763  0.80248  1.0000
  H   H20       1.0  0.91786  0.25237  0.19752  1.0000
  H   H21       1.0  0.59422  0.46838  0.66009  1.0000
  H   H22       1.0  0.40578  0.53162  0.33991  1.0000
  H   H23       1.0  0.50509  0.59432  0.80289  1.0000
  H   H24       1.0  0.49491  0.40568  0.19711  1.0000
  H   H25       1.0  0.53874  0.39614  0.86012  1.0000
  H   H26       1.0  0.46126  0.60387  0.13988  1.0000
  H   H27       1.0  0.79011  0.37090  0.91535  1.0000
  H   H28       1.0  0.20989  0.62910  0.08465  1.0000
  H   H29       1.0  0.84483  0.57323  0.85392  1.0000
  H   H30       1.0  0.15516  0.42677  0.14608  1.0000
  H   H31       1.0  0.89198  0.44731  0.71325  1.0000
  H   H32       1.0  0.10802  0.55269  0.28674  1.0000
  C   C1        1.0  0.60095  0.80226  0.47559  1.0000
  C   C2        1.0  0.39905  0.19774  0.52441  1.0000
  C   C3        1.0  0.44132  0.80722  0.45404  1.0000
  C   C4        1.0  0.55868  0.19278  0.54596  1.0000
  C   C5        1.0  0.27087  0.76360  0.56620  1.0000
  C   C6        1.0  0.72913  0.23640  0.43380  1.0000
  C   C7        1.0  0.16987  0.79818  0.48585  1.0000
  C   C8        1.0  0.83014  0.20182  0.51415  1.0000
  C   C9        1.0  0.98142  0.78492  0.53744  1.0000
  C   C10       1.0  0.01859  0.21508  0.46256  1.0000
  C   C11       1.0  0.20987  0.70186  0.73754  1.0000
  C   C12       1.0  0.79013  0.29814  0.26246  1.0000
  C   C13       1.0  0.19991  0.52790  0.78346  1.0000
  C   C14       1.0  0.80009  0.47210  0.21654  1.0000
  C   C15       1.0  0.32413  0.43219  0.80799  1.0000
  C   C16       1.0  0.67586  0.56781  0.19201  1.0000
  C   C17       1.0  0.49997  0.47510  0.78163  1.0000
  C   C18       1.0  0.50002  0.52490  0.21837  1.0000
  C   C19       1.0  0.05776  0.42875  0.82636  1.0000
  C   C20       1.0  0.94224  0.57125  0.17364  1.0000
  C   C21       1.0  0.88728  0.45661  0.82765  1.0000
  C   C22       1.0  0.11272  0.54339  0.17234  1.0000
  N   N1        1.0  0.25926  0.28510  0.86473  1.0000
  N   N2        1.0  0.74074  0.71490  0.13527  1.0000
  N   N3        1.0  0.09918  0.28593  0.87447  1.0000
  N   N4        1.0  0.90082  0.71407  0.12553  1.0000
  N   N5        1.0  0.44263  0.86317  0.31463  1.0000
  N   N6        1.0  0.55737  0.13683  0.68537  1.0000
  N   N7        1.0  0.27886  0.85593  0.33602  1.0000
  N   N8        1.0  0.72114  0.14407  0.66398  1.0000
  Cl  Cl1       1.0  0.11236  0.00366  0.11743  1.0000
  Cl  Cl2       1.0  0.88764  0.99633  0.88257  1.0000
  Cl  Cl3       1.0  0.48040  0.84149  0.92478  1.0000
  Cl  Cl4       1.0  0.51960  0.15851  0.07522  1.0000
