data_image0
_chemical_formula_structural       Cd2H24C20S4N4O16
_chemical_formula_sum              "Cd2 H24 C20 S4 N4 O16"
_cell_length_a       7.15524
_cell_length_b       7.84298
_cell_length_c       13.1392
_cell_angle_alpha    89.9997
_cell_angle_beta     90.0001
_cell_angle_gamma    97.1132

_space_group_name_H-M_alt    "P 1"
_space_group_IT_number       1

loop_
  _space_group_symop_operation_xyz
  'x, y, z'

loop_
  _atom_site_type_symbol
  _atom_site_label
  _atom_site_symmetry_multiplicity
  _atom_site_fract_x
  _atom_site_fract_y
  _atom_site_fract_z
  _atom_site_occupancy
  Cd  Cd1       1.0  0.50000  1.00000  0.50000  1.0000
  Cd  Cd2       1.0  1.00000  0.00000  0.00000  1.0000
  H   H1        1.0  0.67525  0.39558  0.51386  1.0000
  H   H2        1.0  0.82475  0.60442  0.01386  1.0000
  H   H3        1.0  0.32475  0.60442  0.48614  1.0000
  H   H4        1.0  0.17525  0.39558  0.98614  1.0000
  H   H5        1.0  0.74380  0.55766  0.82696  1.0000
  H   H6        1.0  0.75620  0.44234  0.32696  1.0000
  H   H7        1.0  0.25620  0.44234  0.17305  1.0000
  H   H8        1.0  0.24380  0.55766  0.67304  1.0000
  H   H9        1.0  0.63822  0.25026  0.87842  1.0000
  H   H10       1.0  0.86177  0.74973  0.37842  1.0000
  H   H11       1.0  0.36178  0.74974  0.12158  1.0000
  H   H12       1.0  0.13822  0.25026  0.62158  1.0000
  H   H13       1.0  0.55529  0.03287  0.74231  1.0000
  H   H14       1.0  0.94471  0.96713  0.24232  1.0000
  H   H15       1.0  0.44471  0.96713  0.25769  1.0000
  H   H16       1.0  0.05529  0.03287  0.75768  1.0000
  H   H17       1.0  0.87285  0.15147  0.42517  1.0000
  H   H18       1.0  0.62714  0.84853  0.92517  1.0000
  H   H19       1.0  0.12714  0.84853  0.57482  1.0000
  H   H20       1.0  0.37285  0.15147  0.07483  1.0000
  H   H21       1.0  0.73165  0.12156  0.33261  1.0000
  H   H22       1.0  0.76835  0.87844  0.83261  1.0000
  H   H23       1.0  0.26835  0.87844  0.66739  1.0000
  H   H24       1.0  0.23165  0.12156  0.16739  1.0000
  C   C1        1.0  0.66967  0.36832  0.59514  1.0000
  C   C2        1.0  0.83034  0.63168  0.09515  1.0000
  C   C3        1.0  0.33033  0.63168  0.40486  1.0000
  C   C4        1.0  0.16967  0.36832  0.90485  1.0000
  C   C5        1.0  0.71729  0.49727  0.66703  1.0000
  C   C6        1.0  0.78272  0.50273  0.16703  1.0000
  C   C7        1.0  0.28271  0.50274  0.33297  1.0000
  C   C8        1.0  0.21728  0.49727  0.83297  1.0000
  C   C9        1.0  0.70688  0.45748  0.77049  1.0000
  C   C10       1.0  0.79312  0.54251  0.27049  1.0000
  C   C11       1.0  0.29312  0.54251  0.22951  1.0000
  C   C12       1.0  0.20688  0.45749  0.72951  1.0000
  C   C13       1.0  0.64890  0.28804  0.79870  1.0000
  C   C14       1.0  0.85110  0.71196  0.29870  1.0000
  C   C15       1.0  0.35110  0.71196  0.20130  1.0000
  C   C16       1.0  0.14890  0.28804  0.70130  1.0000
  C   C17       1.0  0.60281  0.16603  0.72280  1.0000
  C   C18       1.0  0.89719  0.83397  0.22280  1.0000
  C   C19       1.0  0.39720  0.83397  0.27720  1.0000
  C   C20       1.0  0.10281  0.16603  0.77720  1.0000
  S   S1        1.0  0.78251  0.71234  0.62527  1.0000
  S   S2        1.0  0.71749  0.28766  0.12528  1.0000
  S   S3        1.0  0.21748  0.28766  0.37473  1.0000
  S   S4        1.0  0.28251  0.71234  0.87472  1.0000
  N   N1        1.0  0.61266  0.20537  0.62285  1.0000
  N   N2        1.0  0.88735  0.79463  0.12285  1.0000
  N   N3        1.0  0.38735  0.79463  0.37715  1.0000
  N   N4        1.0  0.11265  0.20537  0.87715  1.0000
  O   O1        1.0  0.60707  0.76058  0.58109  1.0000
  O   O2        1.0  0.89293  0.23942  0.08109  1.0000
  O   O3        1.0  0.39293  0.23942  0.41891  1.0000
  O   O4        1.0  0.10707  0.76058  0.91891  1.0000
  O   O5        1.0  0.93179  0.70591  0.54890  1.0000
  O   O6        1.0  0.56821  0.29410  0.04890  1.0000
  O   O7        1.0  0.06821  0.29410  0.45110  1.0000
  O   O8        1.0  0.43179  0.70590  0.95110  1.0000
  O   O9        1.0  0.84667  0.81190  0.71571  1.0000
  O   O10       1.0  0.65333  0.18810  0.21571  1.0000
  O   O11       1.0  0.15333  0.18811  0.28429  1.0000
  O   O12       1.0  0.34666  0.81190  0.78429  1.0000
  O   O13       1.0  0.76192  0.07441  0.39971  1.0000
  O   O14       1.0  0.73808  0.92559  0.89971  1.0000
  O   O15       1.0  0.23808  0.92559  0.60029  1.0000
  O   O16       1.0  0.26192  0.07441  0.10029  1.0000
