data_image0
_chemical_formula_structural       Zn2H10C6N8Cl2O6
_chemical_formula_sum              "Zn2 H10 C6 N8 Cl2 O6"
_cell_length_a       5.1667
_cell_length_b       6.17551
_cell_length_c       12.7426
_cell_angle_alpha    90.0001
_cell_angle_beta     89.9999
_cell_angle_gamma    105.999

_space_group_name_H-M_alt    "P 1"
_space_group_IT_number       1

loop_
  _space_group_symop_operation_xyz
  'x, y, z'

loop_
  _atom_site_type_symbol
  _atom_site_label
  _atom_site_symmetry_multiplicity
  _atom_site_fract_x
  _atom_site_fract_y
  _atom_site_fract_z
  _atom_site_occupancy
  Zn  Zn1       1.0  0.93832  0.47335  0.28593  1.0000
  Zn  Zn2       1.0  0.06169  0.52665  0.78593  1.0000
  H   H1        1.0  0.00015  0.97395  0.16472  1.0000
  H   H2        1.0  0.99984  0.02605  0.66473  1.0000
  H   H3        1.0  0.56023  0.11404  0.94803  1.0000
  H   H4        1.0  0.43978  0.88597  0.44803  1.0000
  H   H5        1.0  0.43830  0.26301  0.04792  1.0000
  H   H6        1.0  0.56168  0.73699  0.54791  1.0000
  H   H7        1.0  0.39524  0.47883  0.38036  1.0000
  H   H8        1.0  0.60477  0.52117  0.88036  1.0000
  H   H9        1.0  0.17280  0.23785  0.39788  1.0000
  H   H10       1.0  0.82721  0.76216  0.89788  1.0000
  C   C1        1.0  0.11557  0.86700  0.13118  1.0000
  C   C2        1.0  0.88443  0.13300  0.63119  1.0000
  C   C3        1.0  0.37974  0.12480  0.99073  1.0000
  C   C4        1.0  0.62026  0.87520  0.49072  1.0000
  C   C5        1.0  0.17753  0.17754  0.91509  1.0000
  C   C6        1.0  0.82248  0.82246  0.41509  1.0000
  N   N1        1.0  0.28260  0.91615  0.04867  1.0000
  N   N2        1.0  0.71739  0.08385  0.54867  1.0000
  N   N3        1.0  0.11887  0.66398  0.16467  1.0000
  N   N4        1.0  0.88112  0.33601  0.66467  1.0000
  N   N5        1.0  0.29076  0.59080  0.10153  1.0000
  N   N6        1.0  0.70924  0.40920  0.60154  1.0000
  N   N7        1.0  0.39065  0.74242  0.03186  1.0000
  N   N8        1.0  0.60936  0.25757  0.53187  1.0000
  Cl  Cl1       1.0  0.66613  0.14580  0.23612  1.0000
  Cl  Cl2       1.0  0.33386  0.85420  0.73612  1.0000
  O   O1        1.0  0.94113  0.05843  0.90656  1.0000
  O   O2        1.0  0.05887  0.94156  0.40656  1.0000
  O   O3        1.0  0.19828  0.40235  0.38749  1.0000
  O   O4        1.0  0.80173  0.59765  0.88749  1.0000
  O   O5        1.0  0.28138  0.36376  0.86468  1.0000
  O   O6        1.0  0.71862  0.63624  0.36467  1.0000
