data_image0
_chemical_formula_structural       Cu12H28C24N12Cl12
_chemical_formula_sum              "Cu12 H28 C24 N12 Cl12"
_cell_length_a       3.78339
_cell_length_b       13.8541
_cell_length_c       19.4862
_cell_angle_alpha    98.4083
_cell_angle_beta     90.0098
_cell_angle_gamma    97.8193

_space_group_name_H-M_alt    "P 1"
_space_group_IT_number       1

loop_
  _space_group_symop_operation_xyz
  'x, y, z'

loop_
  _atom_site_type_symbol
  _atom_site_label
  _atom_site_symmetry_multiplicity
  _atom_site_fract_x
  _atom_site_fract_y
  _atom_site_fract_z
  _atom_site_occupancy
  Cu  Cu1       1.0  0.15618  0.56978  0.05313  1.0000
  Cu  Cu2       1.0  0.58785  0.43028  0.44687  1.0000
  Cu  Cu3       1.0  0.84376  0.43021  0.94687  1.0000
  Cu  Cu4       1.0  0.41218  0.56973  0.55314  1.0000
  Cu  Cu5       1.0  0.93007  0.83003  0.16076  1.0000
  Cu  Cu6       1.0  0.10107  0.16977  0.33876  1.0000
  Cu  Cu7       1.0  0.06995  0.16997  0.83924  1.0000
  Cu  Cu8       1.0  0.89893  0.83023  0.66124  1.0000
  Cu  Cu9       1.0  0.49741  0.96118  0.18287  1.0000
  Cu  Cu10      1.0  0.53707  0.03856  0.31691  1.0000
  Cu  Cu11      1.0  0.50260  0.03882  0.81713  1.0000
  Cu  Cu12      1.0  0.46295  0.96144  0.68309  1.0000
  H   H1        1.0  0.45129  0.77716  0.05362  1.0000
  H   H2        1.0  0.67463  0.22289  0.44627  1.0000
  H   H3        1.0  0.54867  0.22283  0.94638  1.0000
  H   H4        1.0  0.32537  0.77712  0.55373  1.0000
  H   H5        1.0  0.39896  0.90291  0.97421  1.0000
  H   H6        1.0  0.49657  0.09700  0.52551  1.0000
  H   H7        1.0  0.60098  0.09709  0.02579  1.0000
  H   H8        1.0  0.50341  0.90300  0.47449  1.0000
  H   H9        1.0  0.06600  0.84334  0.85828  1.0000
  H   H10       1.0  0.22394  0.15645  0.64153  1.0000
  H   H11       1.0  0.93394  0.15665  0.14171  1.0000
  H   H12       1.0  0.77608  0.84355  0.35847  1.0000
  H   H13       1.0  0.80268  0.48768  0.79485  1.0000
  H   H14       1.0  0.31375  0.51213  0.70516  1.0000
  H   H15       1.0  0.19730  0.51231  0.20515  1.0000
  H   H16       1.0  0.68628  0.48787  0.29484  1.0000
  H   H17       1.0  0.40438  0.52011  0.83272  1.0000
  H   H18       1.0  0.88355  0.47938  0.66719  1.0000
  H   H19       1.0  0.59560  0.47987  0.16727  1.0000
  H   H20       1.0  0.11649  0.52063  0.33282  1.0000
  H   H21       1.0  0.56588  0.68512  0.80385  1.0000
  H   H22       1.0  0.88221  0.31452  0.69617  1.0000
  H   H23       1.0  0.43409  0.31486  0.19614  1.0000
  H   H24       1.0  0.11784  0.68548  0.30383  1.0000
  H   H25       1.0  0.97615  0.65438  0.77181  1.0000
  H   H26       1.0  0.32336  0.34546  0.72808  1.0000
  H   H27       1.0  0.02384  0.34561  0.22819  1.0000
  H   H28       1.0  0.67669  0.65455  0.27193  1.0000
  C   C1        1.0  0.99783  0.63173  0.92562  1.0000
  C   C2        1.0  0.36646  0.36821  0.57432  1.0000
  C   C3        1.0  0.00215  0.36826  0.07438  1.0000
  C   C4        1.0  0.63356  0.63179  0.42568  1.0000
  C   C5        1.0  0.31144  0.75665  0.00353  1.0000
  C   C6        1.0  0.55526  0.24335  0.49634  1.0000
  C   C7        1.0  0.68850  0.24335  0.99646  1.0000
  C   C8        1.0  0.44477  0.75666  0.50366  1.0000
  C   C9        1.0  0.28532  0.82651  0.95922  1.0000
  C   C10       1.0  0.45946  0.17339  0.54057  1.0000
  C   C11       1.0  0.71463  0.17349  0.04078  1.0000
  C   C12       1.0  0.54055  0.82661  0.45943  1.0000
  C   C13       1.0  0.10719  0.79561  0.89636  1.0000
  C   C14       1.0  0.31275  0.20423  0.60349  1.0000
  C   C15       1.0  0.89278  0.20439  0.10364  1.0000
  C   C16       1.0  0.68727  0.79577  0.39652  1.0000
  C   C17       1.0  0.69352  0.54280  0.83219  1.0000
  C   C18       1.0  0.15034  0.45692  0.66778  1.0000
  C   C19       1.0  0.30647  0.45720  0.16780  1.0000
  C   C20       1.0  0.84970  0.54308  0.33222  1.0000
  C   C21       1.0  0.79433  0.64892  0.81553  1.0000
  C   C22       1.0  0.14637  0.35081  0.68441  1.0000
  C   C23       1.0  0.20566  0.35107  0.18447  1.0000
  C   C24       1.0  0.85368  0.64920  0.31559  1.0000
  N   N1        1.0  0.17299  0.66128  0.98822  1.0000
  N   N2        1.0  0.51225  0.33873  0.51172  1.0000
  N   N3        1.0  0.82699  0.33872  0.01178  1.0000
  N   N4        1.0  0.48777  0.66128  0.48828  1.0000
  N   N5        1.0  0.84546  0.54250  0.90188  1.0000
  N   N6        1.0  0.30288  0.45741  0.59814  1.0000
  N   N7        1.0  0.15453  0.45750  0.09812  1.0000
  N   N8        1.0  0.69715  0.54260  0.40187  1.0000
  N   N9        1.0  0.97315  0.69967  0.88050  1.0000
  N   N10       1.0  0.27436  0.30017  0.61940  1.0000
  N   N11       1.0  0.02681  0.30032  0.11950  1.0000
  N   N12       1.0  0.72566  0.69983  0.38060  1.0000
  Cl  Cl1       1.0  0.75228  0.67094  0.13892  1.0000
  Cl  Cl2       1.0  0.07886  0.32883  0.36129  1.0000
  Cl  Cl3       1.0  0.24771  0.32906  0.86108  1.0000
  Cl  Cl4       1.0  0.92119  0.67118  0.63871  1.0000
  Cl  Cl5       1.0  0.90590  0.95514  0.09982  1.0000
  Cl  Cl6       1.0  0.95107  0.04498  0.40008  1.0000
  Cl  Cl7       1.0  0.09411  0.04486  0.90017  1.0000
  Cl  Cl8       1.0  0.04894  0.95501  0.59992  1.0000
  Cl  Cl9       1.0  0.28360  0.87194  0.26641  1.0000
  Cl  Cl10      1.0  0.41255  0.12815  0.23340  1.0000
  Cl  Cl11      1.0  0.71641  0.12806  0.73359  1.0000
  Cl  Cl12      1.0  0.58744  0.87185  0.76660  1.0000
