data_image0
_chemical_formula_structural       Zn2H24C28N16Cl4
_chemical_formula_sum              "Zn2 H24 C28 N16 Cl4"
_cell_length_a       6.78652
_cell_length_b       8.88426
_cell_length_c       13.9325
_cell_angle_alpha    100.868
_cell_angle_beta     102.015
_cell_angle_gamma    94.4734

_space_group_name_H-M_alt    "P 1"
_space_group_IT_number       1

loop_
  _space_group_symop_operation_xyz
  'x, y, z'

loop_
  _atom_site_type_symbol
  _atom_site_label
  _atom_site_symmetry_multiplicity
  _atom_site_fract_x
  _atom_site_fract_y
  _atom_site_fract_z
  _atom_site_occupancy
  Zn  Zn1       1.0  0.24488  0.10929  0.36215  1.0000
  Zn  Zn2       1.0  0.75512  0.89071  0.63786  1.0000
  H   H1        1.0  0.93591  0.31251  0.47383  1.0000
  H   H2        1.0  0.06408  0.68749  0.52617  1.0000
  H   H3        1.0  0.07815  0.31033  0.19410  1.0000
  H   H4        1.0  0.92185  0.68967  0.80590  1.0000
  H   H5        1.0  0.82629  0.66280  0.25653  1.0000
  H   H6        1.0  0.17371  0.33720  0.74346  1.0000
  H   H7        1.0  0.92104  0.55210  0.15974  1.0000
  H   H8        1.0  0.07896  0.44790  0.84026  1.0000
  H   H9        1.0  0.39844  0.60632  0.53386  1.0000
  H   H10       1.0  0.60156  0.39368  0.46614  1.0000
  H   H11       1.0  0.70065  0.90661  0.39621  1.0000
  H   H12       1.0  0.29935  0.09339  0.60379  1.0000
  H   H13       1.0  0.20268  0.96860  0.84210  1.0000
  H   H14       1.0  0.79732  0.03140  0.15790  1.0000
  H   H15       1.0  0.53985  0.10295  0.93726  1.0000
  H   H16       1.0  0.46015  0.89705  0.06274  1.0000
  H   H17       1.0  0.90505  0.30667  0.00855  1.0000
  H   H18       1.0  0.09495  0.69333  0.99145  1.0000
  H   H19       1.0  0.27482  0.73649  0.21252  1.0000
  H   H20       1.0  0.72518  0.26351  0.78748  1.0000
  H   H21       1.0  0.53481  0.78979  0.21763  1.0000
  H   H22       1.0  0.46518  0.21021  0.78238  1.0000
  H   H23       1.0  0.88618  0.06399  0.87987  1.0000
  H   H24       1.0  0.11382  0.93601  0.12013  1.0000
  C   C1        1.0  0.94082  0.34097  0.40185  1.0000
  C   C2        1.0  0.05918  0.65903  0.59815  1.0000
  C   C3        1.0  0.01498  0.33546  0.25962  1.0000
  C   C4        1.0  0.98502  0.66453  0.74038  1.0000
  C   C5        1.0  0.81745  0.54715  0.21045  1.0000
  C   C6        1.0  0.18255  0.45285  0.78955  1.0000
  C   C7        1.0  0.42642  0.54582  0.16395  1.0000
  C   C8        1.0  0.57358  0.45418  0.83605  1.0000
  C   C9        1.0  0.23385  0.34251  0.04469  1.0000
  C   C10       1.0  0.76615  0.65749  0.95531  1.0000
  C   C11       1.0  0.44589  0.65895  0.47686  1.0000
  C   C12       1.0  0.55411  0.34105  0.52314  1.0000
  C   C13       1.0  0.60677  0.48048  0.14930  1.0000
  C   C14       1.0  0.39323  0.51953  0.85070  1.0000
  C   C15       1.0  0.60181  0.81474  0.40987  1.0000
  C   C16       1.0  0.39819  0.18526  0.59013  1.0000
  C   C17       1.0  0.41546  0.28226  0.02644  1.0000
  C   C18       1.0  0.58454  0.71775  0.97356  1.0000
  C   C19       1.0  0.21256  0.07225  0.89984  1.0000
  C   C20       1.0  0.78744  0.92775  0.10016  1.0000
  C   C21       1.0  0.40110  0.14694  0.95187  1.0000
  C   C22       1.0  0.59890  0.85305  0.04813  1.0000
  C   C23       1.0  0.04201  0.26178  0.99159  1.0000
  C   C24       1.0  0.95799  0.73822  0.00841  1.0000
  C   C25       1.0  0.42744  0.70123  0.23084  1.0000
  C   C26       1.0  0.57256  0.29877  0.76916  1.0000
  C   C27       1.0  0.03277  0.12817  0.92082  1.0000
  C   C28       1.0  0.96723  0.87183  0.07918  1.0000
  N   N1        1.0  0.04622  0.26627  0.33775  1.0000
  N   N2        1.0  0.95377  0.73373  0.66225  1.0000
  N   N3        1.0  0.84713  0.45209  0.36741  1.0000
  N   N4        1.0  0.15287  0.54791  0.63258  1.0000
  N   N5        1.0  0.89664  0.44660  0.27692  1.0000
  N   N6        1.0  0.10336  0.55340  0.72308  1.0000
  N   N7        1.0  0.37705  0.60518  0.37928  1.0000
  N   N8        1.0  0.62295  0.39481  0.62072  1.0000
  N   N9        1.0  0.47897  0.70504  0.33813  1.0000
  N   N10       1.0  0.52103  0.29496  0.66187  1.0000
  N   N11       1.0  0.58533  0.78750  0.49920  1.0000
  N   N12       1.0  0.41467  0.21250  0.50080  1.0000
  N   N13       1.0  0.24496  0.47676  0.11255  1.0000
  N   N14       1.0  0.75504  0.52324  0.88745  1.0000
  N   N15       1.0  0.60002  0.35407  0.08056  1.0000
  N   N16       1.0  0.39998  0.64593  0.91944  1.0000
  Cl  Cl1       1.0  0.07710  0.88867  0.37249  1.0000
  Cl  Cl2       1.0  0.92290  0.11133  0.62751  1.0000
  Cl  Cl3       1.0  0.43668  0.11031  0.24888  1.0000
  Cl  Cl4       1.0  0.56332  0.88969  0.75112  1.0000
