data_image0
_chemical_formula_structural       Zn2H52C60N12O16
_chemical_formula_sum              "Zn2 H52 C60 N12 O16"
_cell_length_a       10.3565
_cell_length_b       11.7742
_cell_length_c       12.9738
_cell_angle_alpha    75.9831
_cell_angle_beta     88.008
_cell_angle_gamma    69.5865

_space_group_name_H-M_alt    "P 1"
_space_group_IT_number       1

loop_
  _space_group_symop_operation_xyz
  'x, y, z'

loop_
  _atom_site_type_symbol
  _atom_site_label
  _atom_site_symmetry_multiplicity
  _atom_site_fract_x
  _atom_site_fract_y
  _atom_site_fract_z
  _atom_site_occupancy
  Zn  Zn1       1.0  0.50000  1.00000  0.50000  1.0000
  Zn  Zn2       1.0  0.00000  0.00000  0.00000  1.0000
  H   H1        1.0  0.81727  0.09670  0.14891  1.0000
  H   H2        1.0  0.18273  0.90331  0.85108  1.0000
  H   H3        1.0  0.91637  0.95024  0.18524  1.0000
  H   H4        1.0  0.08363  0.04977  0.81476  1.0000
  H   H5        1.0  0.69830  0.91865  0.35376  1.0000
  H   H6        1.0  0.30170  0.08135  0.64623  1.0000
  H   H7        1.0  0.61457  0.06591  0.33201  1.0000
  H   H8        1.0  0.38543  0.93409  0.66799  1.0000
  H   H9        1.0  0.68095  0.62115  0.38056  1.0000
  H   H10       1.0  0.31905  0.37885  0.61944  1.0000
  H   H11       1.0  0.47504  0.72626  0.06800  1.0000
  H   H12       1.0  0.52496  0.27375  0.93199  1.0000
  H   H13       1.0  0.04243  0.11731  0.47222  1.0000
  H   H14       1.0  0.95758  0.88269  0.52778  1.0000
  H   H15       1.0  0.24047  0.71411  0.30666  1.0000
  H   H16       1.0  0.75952  0.28587  0.69337  1.0000
  H   H17       1.0  0.81905  0.13043  0.39029  1.0000
  H   H18       1.0  0.18096  0.86956  0.60971  1.0000
  H   H19       1.0  0.83682  0.65481  0.16487  1.0000
  H   H20       1.0  0.16318  0.34519  0.83512  1.0000
  H   H21       1.0  0.00834  0.43859  0.17965  1.0000
  H   H22       1.0  0.99166  0.56141  0.82035  1.0000
  H   H23       1.0  0.62474  0.33619  0.34579  1.0000
  H   H24       1.0  0.37526  0.66380  0.65421  1.0000
  H   H25       1.0  0.89094  0.49521  0.46141  1.0000
  H   H26       1.0  0.10905  0.50479  0.53859  1.0000
  H   H27       1.0  0.50950  0.05248  0.16565  1.0000
  H   H28       1.0  0.49051  0.94752  0.83434  1.0000
  H   H29       1.0  0.92634  0.27194  0.14872  1.0000
  H   H30       1.0  0.07366  0.72806  0.85129  1.0000
  H   H31       1.0  0.10720  0.94093  0.30158  1.0000
  H   H32       1.0  0.89280  0.05906  0.69843  1.0000
  H   H33       1.0  0.22685  0.05916  0.37783  1.0000
  H   H34       1.0  0.77314  0.94083  0.62217  1.0000
  H   H35       1.0  0.52462  0.52007  0.08631  1.0000
  H   H36       1.0  0.47538  0.47993  0.91369  1.0000
  H   H37       1.0  0.29157  0.23841  0.11577  1.0000
  H   H38       1.0  0.70844  0.76159  0.88422  1.0000
  H   H39       1.0  0.08633  0.21134  0.03963  1.0000
  H   H40       1.0  0.91368  0.78866  0.96038  1.0000
  H   H41       1.0  0.58185  0.75097  0.45896  1.0000
  H   H42       1.0  0.41816  0.24903  0.54103  1.0000
  H   H43       1.0  0.17837  0.36370  0.40779  1.0000
  H   H44       1.0  0.82162  0.63630  0.59220  1.0000
  H   H45       1.0  0.25882  0.61545  0.06111  1.0000
  H   H46       1.0  0.74119  0.38455  0.93889  1.0000
  H   H47       1.0  0.03221  0.59167  0.34324  1.0000
  H   H48       1.0  0.96778  0.40834  0.65676  1.0000
  H   H49       1.0  0.41223  0.39025  0.12964  1.0000
  H   H50       1.0  0.58777  0.60975  0.87037  1.0000
  H   H51       1.0  0.29359  0.83773  0.06573  1.0000
  H   H52       1.0  0.70641  0.16227  0.93428  1.0000
  C   C1        1.0  0.95609  0.20596  0.45009  1.0000
  C   C2        1.0  0.04391  0.79403  0.54991  1.0000
  C   C3        1.0  0.28713  0.77121  0.33527  1.0000
  C   C4        1.0  0.71286  0.22877  0.66474  1.0000
  C   C5        1.0  0.83179  0.21322  0.40549  1.0000
  C   C6        1.0  0.16822  0.78677  0.59451  1.0000
  C   C7        1.0  0.80579  0.58076  0.14976  1.0000
  C   C8        1.0  0.19421  0.41924  0.85024  1.0000
  C   C9        1.0  0.90012  0.46018  0.15818  1.0000
  C   C10       1.0  0.09988  0.53982  0.84182  1.0000
  C   C11       1.0  0.72242  0.32727  0.38114  1.0000
  C   C12       1.0  0.27758  0.67272  0.61886  1.0000
  C   C13       1.0  0.87301  0.41451  0.44545  1.0000
  C   C14       1.0  0.12699  0.58548  0.55455  1.0000
  C   C15       1.0  0.41929  0.04489  0.13135  1.0000
  C   C16       1.0  0.58073  0.95512  0.86864  1.0000
  C   C17       1.0  0.85489  0.36739  0.14093  1.0000
  C   C18       1.0  0.14511  0.63261  0.85907  1.0000
  C   C19       1.0  0.21347  0.89562  0.33423  1.0000
  C   C20       1.0  0.78653  0.10437  0.66577  1.0000
  C   C21       1.0  0.55476  0.81990  0.14645  1.0000
  C   C22       1.0  0.44524  0.18010  0.85355  1.0000
  C   C23       1.0  0.50324  0.58302  0.37836  1.0000
  C   C24       1.0  0.49676  0.41697  0.62164  1.0000
  C   C25       1.0  0.27821  0.96158  0.37618  1.0000
  C   C26       1.0  0.72179  0.03842  0.62382  1.0000
  C   C27       1.0  0.63241  0.50351  0.10668  1.0000
  C   C28       1.0  0.36759  0.49649  0.89332  1.0000
  C   C29       1.0  0.74329  0.43094  0.40234  1.0000
  C   C30       1.0  0.25671  0.56905  0.59766  1.0000
  C   C31       1.0  0.29794  0.14802  0.10430  1.0000
  C   C32       1.0  0.70207  0.85198  0.89570  1.0000
  C   C33       1.0  0.18384  0.13387  0.06281  1.0000
  C   C34       1.0  0.81617  0.86613  0.93719  1.0000
  C   C35       1.0  0.42422  0.71710  0.37571  1.0000
  C   C36       1.0  0.57578  0.28289  0.62430  1.0000
  C   C37       1.0  0.42369  0.93021  0.11555  1.0000
  C   C38       1.0  0.57632  0.06979  0.88444  1.0000
  C   C39       1.0  0.05521  0.75377  0.16233  1.0000
  C   C40       1.0  0.94479  0.24624  0.83767  1.0000
  C   C41       1.0  0.66775  0.60299  0.12298  1.0000
  C   C42       1.0  0.33225  0.39701  0.87702  1.0000
  C   C43       1.0  0.47961  0.78906  0.41858  1.0000
  C   C44       1.0  0.52039  0.21093  0.58141  1.0000
  C   C45       1.0  0.30570  0.36517  0.27318  1.0000
  C   C46       1.0  0.69429  0.63483  0.72682  1.0000
  C   C47       1.0  0.40486  0.23452  0.31691  1.0000
  C   C48       1.0  0.59513  0.76548  0.68309  1.0000
  C   C49       1.0  0.19708  0.42042  0.33298  1.0000
  C   C50       1.0  0.80290  0.57959  0.66702  1.0000
  C   C51       1.0  0.24345  0.55985  0.13761  1.0000
  C   C52       1.0  0.75655  0.44016  0.86239  1.0000
  C   C53       1.0  0.13786  0.61653  0.19904  1.0000
  C   C54       1.0  0.86214  0.38348  0.80096  1.0000
  C   C55       1.0  0.11449  0.54565  0.29653  1.0000
  C   C56       1.0  0.88551  0.45436  0.70347  1.0000
  C   C57       1.0  0.32681  0.43526  0.17457  1.0000
  C   C58       1.0  0.67318  0.56474  0.82543  1.0000
  C   C59       1.0  0.30324  0.92422  0.07521  1.0000
  C   C60       1.0  0.69676  0.07578  0.92479  1.0000
  N   N1        1.0  0.64388  0.55140  0.38231  1.0000
  N   N2        1.0  0.35612  0.44860  0.61769  1.0000
  N   N3        1.0  0.97735  0.30539  0.46948  1.0000
  N   N4        1.0  0.02265  0.69461  0.53052  1.0000
  N   N5        1.0  0.72254  0.38825  0.11519  1.0000
  N   N6        1.0  0.27746  0.61175  0.88481  1.0000
  N   N7        1.0  0.18626  0.02337  0.04957  1.0000
  N   N8        1.0  0.81375  0.97663  0.95043  1.0000
  N   N9        1.0  0.40816  0.90811  0.41921  1.0000
  N   N10       1.0  0.59184  0.09189  0.58079  1.0000
  N   N11       1.0  0.56068  0.71902  0.10878  1.0000
  N   N12       1.0  0.43933  0.28098  0.89122  1.0000
  O   O1        1.0  0.44400  0.50852  0.37752  1.0000
  O   O2        1.0  0.55600  0.49148  0.62248  1.0000
  O   O3        1.0  0.64902  0.82146  0.20162  1.0000
  O   O4        1.0  0.35098  0.17853  0.79838  1.0000
  O   O5        1.0  0.96584  0.80414  0.22210  1.0000
  O   O6        1.0  0.03417  0.19586  0.77790  1.0000
  O   O7        1.0  0.51027  0.19412  0.26478  1.0000
  O   O8        1.0  0.48973  0.80589  0.73522  1.0000
  O   O9        1.0  0.91193  0.03982  0.15050  1.0000
  O   O10       1.0  0.08807  0.96019  0.84950  1.0000
  O   O11       1.0  0.67099  0.98799  0.38802  1.0000
  O   O12       1.0  0.32901  0.01200  0.61197  1.0000
  O   O13       1.0  0.37657  0.17424  0.40556  1.0000
  O   O14       1.0  0.62342  0.82576  0.59444  1.0000
  O   O15       1.0  0.08532  0.81075  0.07199  1.0000
  O   O16       1.0  0.91469  0.18926  0.92801  1.0000
