data_image0
_chemical_formula_structural       Tl4H6C14N2O8
_chemical_formula_sum              "Tl4 H6 C14 N2 O8"
_cell_length_a       7.56623
_cell_length_b       8.06219
_cell_length_c       8.06211
_cell_angle_alpha    100.885
_cell_angle_beta     99.0643
_cell_angle_gamma    99.0647

_space_group_name_H-M_alt    "P 1"
_space_group_IT_number       1

loop_
  _space_group_symop_operation_xyz
  'x, y, z'

loop_
  _atom_site_type_symbol
  _atom_site_label
  _atom_site_symmetry_multiplicity
  _atom_site_fract_x
  _atom_site_fract_y
  _atom_site_fract_z
  _atom_site_occupancy
  Tl  Tl1       1.0  0.51245  0.70617  0.38833  1.0000
  Tl  Tl2       1.0  0.98754  0.61167  0.29383  1.0000
  Tl  Tl3       1.0  0.48754  0.29383  0.61167  1.0000
  Tl  Tl4       1.0  0.01246  0.38833  0.70617  1.0000
  H   H1        1.0  0.25001  0.15895  0.84106  1.0000
  H   H2        1.0  0.74999  0.84105  0.15895  1.0000
  H   H3        1.0  0.29542  0.66467  0.95431  1.0000
  H   H4        1.0  0.20457  0.04570  0.33534  1.0000
  H   H5        1.0  0.70458  0.33532  0.04570  1.0000
  H   H6        1.0  0.79542  0.95430  0.66466  1.0000
  C   C1        1.0  0.27082  0.90218  0.87169  1.0000
  C   C2        1.0  0.22918  0.12833  0.09782  1.0000
  C   C3        1.0  0.72917  0.09781  0.12833  1.0000
  C   C4        1.0  0.77082  0.87167  0.90218  1.0000
  C   C5        1.0  0.25001  0.07135  0.92867  1.0000
  C   C6        1.0  0.75000  0.92867  0.07133  1.0000
  C   C7        1.0  0.29266  0.83366  0.69003  1.0000
  C   C8        1.0  0.20735  0.30998  0.16635  1.0000
  C   C9        1.0  0.70735  0.16634  0.30997  1.0000
  C   C10       1.0  0.79265  0.69002  0.83365  1.0000
  C   C11       1.0  0.27321  0.79606  0.99039  1.0000
  C   C12       1.0  0.22678  0.00961  0.20395  1.0000
  C   C13       1.0  0.72678  0.20395  0.00960  1.0000
  C   C14       1.0  0.77321  0.99038  0.79605  1.0000
  N   N1        1.0  0.25000  0.84766  0.15235  1.0000
  N   N2        1.0  0.75000  0.15235  0.84765  1.0000
  O   O1        1.0  0.30695  0.93780  0.59030  1.0000
  O   O2        1.0  0.19306  0.40971  0.06219  1.0000
  O   O3        1.0  0.69306  0.06219  0.40970  1.0000
  O   O4        1.0  0.80695  0.59030  0.93780  1.0000
  O   O5        1.0  0.29593  0.67350  0.64750  1.0000
  O   O6        1.0  0.20408  0.35252  0.32651  1.0000
  O   O7        1.0  0.70408  0.32649  0.35251  1.0000
  O   O8        1.0  0.79593  0.64749  0.67349  1.0000
