data_image0
_chemical_formula_structural       Cu2H20C20N8O12
_chemical_formula_sum              "Cu2 H20 C20 N8 O12"
_cell_length_a       5.07502
_cell_length_b       9.85977
_cell_length_c       13.313
_cell_angle_alpha    101.125
_cell_angle_beta     89.9998
_cell_angle_gamma    89.9998

_space_group_name_H-M_alt    "P 1"
_space_group_IT_number       1

loop_
  _space_group_symop_operation_xyz
  'x, y, z'

loop_
  _atom_site_type_symbol
  _atom_site_label
  _atom_site_symmetry_multiplicity
  _atom_site_fract_x
  _atom_site_fract_y
  _atom_site_fract_z
  _atom_site_occupancy
  Cu  Cu1       1.0  0.50000  1.00000  0.00000  1.0000
  Cu  Cu2       1.0  1.00000  0.50000  0.50000  1.0000
  H   H1        1.0  0.77208  0.77874  0.01139  1.0000
  H   H2        1.0  0.27207  0.72126  0.48861  1.0000
  H   H3        1.0  0.22793  0.22126  0.98861  1.0000
  H   H4        1.0  0.72793  0.27874  0.51139  1.0000
  H   H5        1.0  0.89611  0.91271  0.08762  1.0000
  H   H6        1.0  0.39610  0.58729  0.41237  1.0000
  H   H7        1.0  0.10389  0.08729  0.91237  1.0000
  H   H8        1.0  0.60390  0.41271  0.58762  1.0000
  H   H9        1.0  0.53134  0.57608  0.12238  1.0000
  H   H10       1.0  0.03135  0.92392  0.37762  1.0000
  H   H11       1.0  0.46866  0.42392  0.87762  1.0000
  H   H12       1.0  0.96866  0.07608  0.62238  1.0000
  H   H13       1.0  0.39038  0.73592  0.19014  1.0000
  H   H14       1.0  0.89037  0.76408  0.30985  1.0000
  H   H15       1.0  0.60962  0.26408  0.80986  1.0000
  H   H16       1.0  0.10962  0.23592  0.69015  1.0000
  H   H17       1.0  0.28627  0.66250  0.06197  1.0000
  H   H18       1.0  0.78627  0.83750  0.43803  1.0000
  H   H19       1.0  0.71373  0.33750  0.93803  1.0000
  H   H20       1.0  0.21372  0.16250  0.56197  1.0000
  C   C1        1.0  0.76181  0.25800  0.12790  1.0000
  C   C2        1.0  0.26184  0.24201  0.37209  1.0000
  C   C3        1.0  0.23819  0.74200  0.87209  1.0000
  C   C4        1.0  0.73816  0.75799  0.62791  1.0000
  C   C5        1.0  0.75840  0.44906  0.27059  1.0000
  C   C6        1.0  0.25842  0.05094  0.22940  1.0000
  C   C7        1.0  0.24160  0.55094  0.72941  1.0000
  C   C8        1.0  0.74159  0.94906  0.77059  1.0000
  C   C9        1.0  0.86792  0.38250  0.17808  1.0000
  C   C10       1.0  0.36793  0.11751  0.32192  1.0000
  C   C11       1.0  0.13207  0.61750  0.82192  1.0000
  C   C12       1.0  0.63207  0.88249  0.67808  1.0000
  C   C13       1.0  0.08308  0.44269  0.12940  1.0000
  C   C14       1.0  0.58309  0.05731  0.37060  1.0000
  C   C15       1.0  0.91692  0.55731  0.87060  1.0000
  C   C16       1.0  0.41691  0.94269  0.62940  1.0000
  C   C17       1.0  0.35400  0.64027  0.13518  1.0000
  C   C18       1.0  0.85400  0.85973  0.36482  1.0000
  C   C19       1.0  0.64600  0.35973  0.86481  1.0000
  C   C20       1.0  0.14600  0.14027  0.63519  1.0000
  N   N1        1.0  0.67831  0.15242  0.08425  1.0000
  N   N2        1.0  0.17831  0.34758  0.41574  1.0000
  N   N3        1.0  0.32170  0.84757  0.91575  1.0000
  N   N4        1.0  0.82168  0.65242  0.58426  1.0000
  N   N5        1.0  0.67217  0.50502  0.34966  1.0000
  N   N6        1.0  0.17218  0.99499  0.15034  1.0000
  N   N7        1.0  0.32782  0.49498  0.65034  1.0000
  N   N8        1.0  0.82783  0.00502  0.84967  1.0000
  O   O1        1.0  0.19609  0.38507  0.04973  1.0000
  O   O2        1.0  0.69609  0.11494  0.45027  1.0000
  O   O3        1.0  0.80391  0.61493  0.95026  1.0000
  O   O4        1.0  0.30391  0.88507  0.54973  1.0000
  O   O5        1.0  0.14692  0.56974  0.18011  1.0000
  O   O6        1.0  0.64693  0.93027  0.31989  1.0000
  O   O7        1.0  0.85307  0.43026  0.81988  1.0000
  O   O8        1.0  0.35307  0.06973  0.68011  1.0000
  O   O9        1.0  0.72879  0.86863  0.05771  1.0000
  O   O10       1.0  0.22879  0.63137  0.44229  1.0000
  O   O11       1.0  0.27121  0.13137  0.94229  1.0000
  O   O12       1.0  0.77121  0.36863  0.55771  1.0000
