data_image0
_chemical_formula_structural       FeH20C16S2N14
_chemical_formula_sum              "Fe1 H20 C16 S2 N14"
_cell_length_a       7.69979
_cell_length_b       8.4592
_cell_length_c       9.54646
_cell_angle_alpha    77.2117
_cell_angle_beta     72.9681
_cell_angle_gamma    66.9658

_space_group_name_H-M_alt    "P 1"
_space_group_IT_number       1

loop_
  _space_group_symop_operation_xyz
  'x, y, z'

loop_
  _atom_site_type_symbol
  _atom_site_label
  _atom_site_symmetry_multiplicity
  _atom_site_fract_x
  _atom_site_fract_y
  _atom_site_fract_z
  _atom_site_occupancy
  Fe  Fe1       1.0  0.47921  0.51336  0.50575  1.0000
  H   H1        1.0  0.74593  0.15708  0.29089  1.0000
  H   H2        1.0  0.26616  0.83872  0.70569  1.0000
  H   H3        1.0  0.97785  0.36211  0.52585  1.0000
  H   H4        1.0  0.03393  0.62807  0.47427  1.0000
  H   H5        1.0  0.04404  0.90292  0.21246  1.0000
  H   H6        1.0  0.96395  0.08991  0.78691  1.0000
  H   H7        1.0  0.23744  0.84499  0.30048  1.0000
  H   H8        1.0  0.77372  0.14636  0.69597  1.0000
  H   H9        1.0  0.32818  0.42107  0.86073  1.0000
  H   H10       1.0  0.65157  0.58969  0.14555  1.0000
  H   H11       1.0  0.11760  0.27719  0.05808  1.0000
  H   H12       1.0  0.88144  0.71617  0.94569  1.0000
  H   H13       1.0  0.02343  0.15113  0.99560  1.0000
  H   H14       1.0  0.97927  0.84162  0.00521  1.0000
  H   H15       1.0  0.34329  0.89174  0.02553  1.0000
  H   H16       1.0  0.66241  0.10403  0.97012  1.0000
  H   H17       1.0  0.39006  0.02948  0.11552  1.0000
  H   H18       1.0  0.61606  0.96594  0.88043  1.0000
  H   H19       1.0  0.38704  0.15828  0.51244  1.0000
  H   H20       1.0  0.60429  0.85907  0.48554  1.0000
  C   C1        1.0  0.84183  0.18428  0.33831  1.0000
  C   C2        1.0  0.17012  0.81018  0.65961  1.0000
  C   C3        1.0  0.96538  0.28449  0.45534  1.0000
  C   C4        1.0  0.04633  0.70662  0.54376  1.0000
  C   C5        1.0  0.14787  0.94914  0.23325  1.0000
  C   C6        1.0  0.86145  0.04292  0.76505  1.0000
  C   C7        1.0  0.32560  0.33195  0.79578  1.0000
  C   C8        1.0  0.65836  0.67903  0.20813  1.0000
  C   C9        1.0  0.32241  0.48881  0.25323  1.0000
  C   C10       1.0  0.66348  0.51893  0.74906  1.0000
  C   C11       1.0  0.15772  0.16238  0.00330  1.0000
  C   C12       1.0  0.84388  0.83259  0.99757  1.0000
  C   C13       1.0  0.27537  0.00233  0.08994  1.0000
  C   C14       1.0  0.73058  0.99197  0.90740  1.0000
  C   C15       1.0  0.35829  0.19286  0.62198  1.0000
  C   C16       1.0  0.63266  0.82111  0.37737  1.0000
  S   S1        1.0  0.21685  0.51998  0.12046  1.0000
  S   S2        1.0  0.78254  0.47606  0.87584  1.0000
  N   N1        1.0  0.26082  0.19971  0.85271  1.0000
  N   N2        1.0  0.73750  0.80188  0.14859  1.0000
  N   N3        1.0  0.28077  0.10942  0.74381  1.0000
  N   N4        1.0  0.72232  0.89392  0.25466  1.0000
  N   N5        1.0  0.38897  0.33115  0.64893  1.0000
  N   N6        1.0  0.58953  0.68846  0.35374  1.0000
  N   N7        1.0  0.03295  0.09224  0.32075  1.0000
  N   N8        1.0  0.97847  0.89889  0.67858  1.0000
  N   N9        1.0  0.11468  0.15443  0.39474  1.0000
  N   N10       1.0  0.89742  0.83503  0.60570  1.0000
  N   N11       1.0  0.79483  0.30658  0.42407  1.0000
  N   N12       1.0  0.21884  0.68688  0.57289  1.0000
  N   N13       1.0  0.39502  0.47258  0.35209  1.0000
  N   N14       1.0  0.58029  0.54428  0.65465  1.0000
