data_image0
_chemical_formula_structural       FeH24C18Se2N14
_chemical_formula_sum              "Fe1 H24 C18 Se2 N14"
_cell_length_a       7.67934
_cell_length_b       9.16074
_cell_length_c       10.2277
_cell_angle_alpha    115.445
_cell_angle_beta     91.7973
_cell_angle_gamma    93.9196

_space_group_name_H-M_alt    "P 1"
_space_group_IT_number       1

loop_
  _space_group_symop_operation_xyz
  'x, y, z'

loop_
  _atom_site_type_symbol
  _atom_site_label
  _atom_site_symmetry_multiplicity
  _atom_site_fract_x
  _atom_site_fract_y
  _atom_site_fract_z
  _atom_site_occupancy
  Fe  Fe1       1.0  0.48239  0.99146  0.49026  1.0000
  H   H1        1.0  0.74710  0.36688  0.64426  1.0000
  H   H2        1.0  0.26489  0.63565  0.35470  1.0000
  H   H3        1.0  0.89372  0.92359  0.62563  1.0000
  H   H4        1.0  0.11457  0.08122  0.37891  1.0000
  H   H5        1.0  0.30680  0.79030  0.66938  1.0000
  H   H6        1.0  0.67091  0.20222  0.32755  1.0000
  H   H7        1.0  0.47237  0.28635  0.82001  1.0000
  H   H8        1.0  0.52234  0.70158  0.16500  1.0000
  H   H9        1.0  0.01452  0.54584  0.78831  1.0000
  H   H10       1.0  0.99171  0.45939  0.21787  1.0000
  H   H11       1.0  0.20827  0.44561  0.76483  1.0000
  H   H12       1.0  0.79954  0.56208  0.24137  1.0000
  H   H13       1.0  0.16437  0.40552  0.98885  1.0000
  H   H14       1.0  0.84323  0.59920  0.01629  1.0000
  H   H15       1.0  0.17338  0.61337  0.02693  1.0000
  H   H16       1.0  0.83426  0.39167  0.97892  1.0000
  H   H17       1.0  0.29297  0.99970  0.08168  1.0000
  H   H18       1.0  0.70935  0.00360  0.91930  1.0000
  H   H19       1.0  0.28103  0.80378  0.93404  1.0000
  H   H20       1.0  0.71991  0.19659  0.07049  1.0000
  H   H21       1.0  0.98099  0.84893  0.85382  1.0000
  H   H22       1.0  0.01919  0.15109  0.14968  1.0000
  H   H23       1.0  0.99288  0.84543  0.02527  1.0000
  H   H24       1.0  0.00833  0.15458  0.97807  1.0000
  C   C1        1.0  0.33984  0.29887  0.49976  1.0000
  C   C2        1.0  0.64896  0.70061  0.49646  1.0000
  C   C3        1.0  0.81659  0.27426  0.65810  1.0000
  C   C4        1.0  0.19463  0.72873  0.34267  1.0000
  C   C5        1.0  0.89462  0.05162  0.65047  1.0000
  C   C6        1.0  0.11474  0.95347  0.35373  1.0000
  C   C7        1.0  0.33600  0.91990  0.73656  1.0000
  C   C8        1.0  0.64746  0.07276  0.25808  1.0000
  C   C9        1.0  0.42065  0.17198  0.81740  1.0000
  C   C10       1.0  0.57244  0.81821  0.17151  1.0000
  C   C11       1.0  0.07965  0.45463  0.81005  1.0000
  C   C12       1.0  0.92799  0.55102  0.19577  1.0000
  C   C13       1.0  0.09320  0.49661  0.97125  1.0000
  C   C14       1.0  0.91451  0.50845  0.03437  1.0000
  C   C15       1.0  0.23544  0.92529  0.97098  1.0000
  C   C16       1.0  0.76541  0.07482  0.03097  1.0000
  C   C17       1.0  0.03573  0.91678  0.96691  1.0000
  C   C18       1.0  0.96508  0.08324  0.03642  1.0000
  Se  Se1       1.0  0.20284  0.43552  0.47266  1.0000
  Se  Se2       1.0  0.79309  0.57387  0.53193  1.0000
  N   N1        1.0  0.41363  0.19683  0.51449  1.0000
  N   N2        1.0  0.56666  0.79324  0.47390  1.0000
  N   N3        1.0  0.76296  0.11689  0.60714  1.0000
  N   N4        1.0  0.25023  0.88706  0.39346  1.0000
  N   N5        1.0  0.97498  0.30109  0.72860  1.0000
  N   N6        1.0  0.03408  0.70411  0.27680  1.0000
  N   N7        1.0  0.02642  0.16068  0.72596  1.0000
  N   N8        1.0  0.98177  0.84497  0.28165  1.0000
  N   N9        1.0  0.40565  0.02931  0.69413  1.0000
  N   N10       1.0  0.57410  0.95978  0.29495  1.0000
  N   N11       1.0  0.31164  0.99572  0.87946  1.0000
  N   N12       1.0  0.68588  0.99987  0.11804  1.0000
  N   N13       1.0  0.36580  0.15683  0.93318  1.0000
  N   N14       1.0  0.63828  0.83732  0.06076  1.0000
