data_image0
_chemical_formula_structural       Ag2H38C42S2N8O10
_chemical_formula_sum              "Ag2 H38 C42 S2 N8 O10"
_cell_length_a       8.44077
_cell_length_b       9.8445
_cell_length_c       12.7697
_cell_angle_alpha    89.131
_cell_angle_beta     88.4564
_cell_angle_gamma    94.5832

_space_group_name_H-M_alt    "P 1"
_space_group_IT_number       1

loop_
  _space_group_symop_operation_xyz
  'x, y, z'

loop_
  _atom_site_type_symbol
  _atom_site_label
  _atom_site_symmetry_multiplicity
  _atom_site_fract_x
  _atom_site_fract_y
  _atom_site_fract_z
  _atom_site_occupancy
  Ag  Ag1       1.0  0.84402  0.87702  0.70673  1.0000
  Ag  Ag2       1.0  0.15599  0.12298  0.29328  1.0000
  H   H1        1.0  0.77594  0.91157  0.97908  1.0000
  H   H2        1.0  0.22405  0.08843  0.02092  1.0000
  H   H3        1.0  0.51052  0.96935  0.82551  1.0000
  H   H4        1.0  0.48949  0.03066  0.17448  1.0000
  H   H5        1.0  0.25779  0.78495  0.87727  1.0000
  H   H6        1.0  0.74221  0.21507  0.12272  1.0000
  H   H7        1.0  0.35548  0.54039  0.80136  1.0000
  H   H8        1.0  0.64452  0.45962  0.19865  1.0000
  H   H9        1.0  0.65967  0.47971  0.74476  1.0000
  H   H10       1.0  0.34033  0.52029  0.25525  1.0000
  H   H11       1.0  0.77045  0.62023  0.68209  1.0000
  H   H12       1.0  0.22956  0.37977  0.31792  1.0000
  H   H13       1.0  0.55779  0.74357  0.54459  1.0000
  H   H14       1.0  0.44221  0.25643  0.45542  1.0000
  H   H15       1.0  0.43143  0.68174  0.37508  1.0000
  H   H16       1.0  0.56857  0.31825  0.62494  1.0000
  H   H17       1.0  0.20245  0.01484  0.74297  1.0000
  H   H18       1.0  0.79755  0.98516  0.25703  1.0000
  H   H19       1.0  0.44365  0.02906  0.59277  1.0000
  H   H20       1.0  0.55635  0.97095  0.40723  1.0000
  H   H21       1.0  0.30150  0.89609  0.42184  1.0000
  H   H22       1.0  0.69850  0.10391  0.57816  1.0000
  H   H23       1.0  0.01339  0.81946  0.38520  1.0000
  H   H24       1.0  0.98660  0.18054  0.61480  1.0000
  H   H25       1.0  0.87168  0.82411  0.48994  1.0000
  H   H26       1.0  0.12832  0.17588  0.51007  1.0000
  H   H27       1.0  0.82265  0.59266  0.36970  1.0000
  H   H28       1.0  0.17735  0.40734  0.63030  1.0000
  H   H29       1.0  0.82907  0.34384  0.39161  1.0000
  H   H30       1.0  0.17093  0.65616  0.60839  1.0000
  H   H31       1.0  0.63826  0.57383  0.00975  1.0000
  H   H32       1.0  0.36173  0.42617  0.99024  1.0000
  H   H33       1.0  0.59908  0.32670  0.96521  1.0000
  H   H34       1.0  0.40091  0.67329  0.03477  1.0000
  H   H35       1.0  0.04304  0.35901  0.79113  1.0000
  H   H36       1.0  0.95696  0.64100  0.20887  1.0000
  H   H37       1.0  0.07715  0.60960  0.83031  1.0000
  H   H38       1.0  0.92285  0.39041  0.16969  1.0000
  C   C1        1.0  0.49522  0.86125  0.81002  1.0000
  C   C2        1.0  0.50478  0.13876  0.18998  1.0000
  C   C3        1.0  0.36772  0.76558  0.83629  1.0000
  C   C4        1.0  0.63229  0.23443  0.16371  1.0000
  C   C5        1.0  0.41406  0.64262  0.79915  1.0000
  C   C6        1.0  0.58594  0.35739  0.20086  1.0000
  C   C7        1.0  0.64972  0.57088  0.69573  1.0000
  C   C8        1.0  0.35029  0.42911  0.30427  1.0000
  C   C9        1.0  0.57185  0.53429  0.59430  1.0000
  C   C10       1.0  0.42815  0.46570  0.40571  1.0000
  C   C11       1.0  0.53299  0.63669  0.52458  1.0000
  C   C12       1.0  0.46701  0.36331  0.47543  1.0000
  C   C13       1.0  0.46168  0.60270  0.43039  1.0000
  C   C14       1.0  0.53833  0.39730  0.56962  1.0000
  C   C15       1.0  0.20323  0.97498  0.66427  1.0000
  C   C16       1.0  0.79678  0.02502  0.33573  1.0000
  C   C17       1.0  0.32397  0.98246  0.58609  1.0000
  C   C18       1.0  0.67603  0.01755  0.41391  1.0000
  C   C19       1.0  0.25654  0.91714  0.50010  1.0000
  C   C20       1.0  0.74345  0.08286  0.49989  1.0000
  C   C21       1.0  0.99050  0.79279  0.46851  1.0000
  C   C22       1.0  0.00950  0.20721  0.53149  1.0000
  C   C23       1.0  0.99700  0.64164  0.48670  1.0000
  C   C24       1.0  0.00299  0.35835  0.51331  1.0000
  C   C25       1.0  0.90182  0.55210  0.42640  1.0000
  C   C26       1.0  0.09817  0.44790  0.57360  1.0000
  C   C27       1.0  0.90477  0.41164  0.43921  1.0000
  C   C28       1.0  0.09523  0.58836  0.56079  1.0000
  C   C29       1.0  0.88254  0.75751  0.93507  1.0000
  C   C30       1.0  0.11745  0.24248  0.06493  1.0000
  C   C31       1.0  0.86106  0.60665  0.92266  1.0000
  C   C32       1.0  0.13893  0.39335  0.07733  1.0000
  C   C33       1.0  0.72665  0.52662  0.96188  1.0000
  C   C34       1.0  0.27333  0.47337  0.03811  1.0000
  C   C35       1.0  0.70452  0.38924  0.93717  1.0000
  C   C36       1.0  0.29548  0.61075  0.06282  1.0000
  C   C37       1.0  0.81869  0.33027  0.87478  1.0000
  C   C38       1.0  0.18132  0.66973  0.12521  1.0000
  C   C39       1.0  0.95556  0.40760  0.83871  1.0000
  C   C40       1.0  0.04444  0.59240  0.16129  1.0000
  C   C41       1.0  0.97514  0.54565  0.86156  1.0000
  C   C42       1.0  0.02485  0.45436  0.13844  1.0000
  S   S1        1.0  0.78037  0.15839  0.83303  1.0000
  S   S2        1.0  0.21964  0.84161  0.16696  1.0000
  N   N1        1.0  0.61188  0.80103  0.75926  1.0000
  N   N2        1.0  0.38813  0.19896  0.24074  1.0000
  N   N3        1.0  0.56105  0.66671  0.75417  1.0000
  N   N4        1.0  0.43896  0.33329  0.24584  1.0000
  N   N5        1.0  0.07034  0.90944  0.62856  1.0000
  N   N6        1.0  0.92967  0.09056  0.37144  1.0000
  N   N7        1.0  0.10432  0.87519  0.52829  1.0000
  N   N8        1.0  0.89568  0.12481  0.47170  1.0000
  O   O1        1.0  0.76754  0.81035  0.99204  1.0000
  O   O2        1.0  0.23245  0.18964  0.00796  1.0000
  O   O3        1.0  0.99313  0.82759  0.89097  1.0000
  O   O4        1.0  0.00685  0.17241  0.10903  1.0000
  O   O5        1.0  0.92874  0.12236  0.78087  1.0000
  O   O6        1.0  0.07127  0.87765  0.21912  1.0000
  O   O7        1.0  0.73559  0.07686  0.92824  1.0000
  O   O8        1.0  0.26442  0.92314  0.07176  1.0000
  O   O9        1.0  0.64898  0.16507  0.75967  1.0000
  O   O10       1.0  0.35103  0.83492  0.24033  1.0000
