data_image0
_chemical_formula_structural       Cu2P2H18C22N4O12
_chemical_formula_sum              "Cu2 P2 H18 C22 N4 O12"
_cell_length_a       8.16787
_cell_length_b       8.72987
_cell_length_c       9.44412
_cell_angle_alpha    103.431
_cell_angle_beta     105.596
_cell_angle_gamma    103.989

_space_group_name_H-M_alt    "P 1"
_space_group_IT_number       1

loop_
  _space_group_symop_operation_xyz
  'x, y, z'

loop_
  _atom_site_type_symbol
  _atom_site_label
  _atom_site_symmetry_multiplicity
  _atom_site_fract_x
  _atom_site_fract_y
  _atom_site_fract_z
  _atom_site_occupancy
  Cu  Cu1       1.0  0.60479  0.75023  0.74827  1.0000
  Cu  Cu2       1.0  0.39522  0.24977  0.25173  1.0000
  P   P1        1.0  0.71349  0.46019  0.58064  1.0000
  P   P2        1.0  0.28651  0.53981  0.41936  1.0000
  H   H1        1.0  0.75779  0.52156  0.37969  1.0000
  H   H2        1.0  0.24221  0.47844  0.62031  1.0000
  H   H3        1.0  0.95787  0.43424  0.72778  1.0000
  H   H4        1.0  0.04213  0.56576  0.27222  1.0000
  H   H5        1.0  0.87266  0.67359  0.98534  1.0000
  H   H6        1.0  0.12734  0.32641  0.01466  1.0000
  H   H7        1.0  0.07076  0.82207  0.26399  1.0000
  H   H8        1.0  0.92924  0.17793  0.73601  1.0000
  H   H9        1.0  0.06403  0.10958  0.39191  1.0000
  H   H10       1.0  0.93597  0.89042  0.60808  1.0000
  H   H11       1.0  0.86658  0.22941  0.24385  1.0000
  H   H12       1.0  0.13342  0.77059  0.75615  1.0000
  H   H13       1.0  0.49988  0.39997  0.86437  1.0000
  H   H14       1.0  0.50012  0.60003  0.13563  1.0000
  H   H15       1.0  0.33526  0.18771  0.60491  1.0000
  H   H16       1.0  0.66474  0.81229  0.39509  1.0000
  H   H17       1.0  0.37799  0.90374  0.56022  1.0000
  H   H18       1.0  0.62200  0.09626  0.43978  1.0000
  C   C1        1.0  0.87543  0.79671  0.04753  1.0000
  C   C2        1.0  0.12457  0.20329  0.95247  1.0000
  C   C3        1.0  0.98492  0.88046  0.20192  1.0000
  C   C4        1.0  0.01509  0.11954  0.79808  1.0000
  C   C5        1.0  0.98102  0.03775  0.27200  1.0000
  C   C6        1.0  0.01898  0.96226  0.72800  1.0000
  C   C7        1.0  0.86961  0.10749  0.18718  1.0000
  C   C8        1.0  0.13039  0.89251  0.81282  1.0000
  C   C9        1.0  0.76621  0.01989  0.03180  1.0000
  C   C10       1.0  0.23379  0.98011  0.96820  1.0000
  C   C11       1.0  0.64925  0.08032  0.92471  1.0000
  C   C12       1.0  0.35075  0.91968  0.07529  1.0000
  C   C13       1.0  0.63109  0.23945  0.95766  1.0000
  C   C14       1.0  0.36890  0.76055  0.04234  1.0000
  C   C15       1.0  0.51457  0.27676  0.84203  1.0000
  C   C16       1.0  0.48543  0.72324  0.15797  1.0000
  C   C17       1.0  0.42155  0.15814  0.69712  1.0000
  C   C18       1.0  0.57845  0.84185  0.30288  1.0000
  C   C19       1.0  0.44620  0.00302  0.67078  1.0000
  C   C20       1.0  0.55380  0.99698  0.32922  1.0000
  C   C21       1.0  0.73787  0.37837  0.10798  1.0000
  C   C22       1.0  0.26213  0.62163  0.89202  1.0000
  N   N1        1.0  0.77021  0.86521  0.96608  1.0000
  N   N2        1.0  0.22979  0.13479  0.03392  1.0000
  N   N3        1.0  0.55636  0.96653  0.78164  1.0000
  N   N4        1.0  0.44364  0.03347  0.21836  1.0000
  O   O1        1.0  0.70503  0.56922  0.72901  1.0000
  O   O2        1.0  0.29497  0.43078  0.27099  1.0000
  O   O3        1.0  0.53771  0.32701  0.47094  1.0000
  O   O4        1.0  0.46229  0.67299  0.52906  1.0000
  O   O5        1.0  0.79759  0.57909  0.49616  1.0000
  O   O6        1.0  0.20241  0.42090  0.50384  1.0000
  O   O7        1.0  0.84661  0.36168  0.63111  1.0000
  O   O8        1.0  0.15340  0.63831  0.36889  1.0000
  O   O9        1.0  0.65803  0.40949  0.20464  1.0000
  O   O10       1.0  0.34196  0.59051  0.79536  1.0000
  O   O11       1.0  0.89589  0.45481  0.12109  1.0000
  O   O12       1.0  0.10411  0.54519  0.87891  1.0000
