data_image0
_chemical_formula_structural       Zn2H8C4N16O8
_chemical_formula_sum              "Zn2 H8 C4 N16 O8"
_cell_length_a       5.54861
_cell_length_b       6.36702
_cell_length_c       10.553
_cell_angle_alpha    90
_cell_angle_beta     90.0002
_cell_angle_gamma    92.297

_space_group_name_H-M_alt    "P 1"
_space_group_IT_number       1

loop_
  _space_group_symop_operation_xyz
  'x, y, z'

loop_
  _atom_site_type_symbol
  _atom_site_label
  _atom_site_symmetry_multiplicity
  _atom_site_fract_x
  _atom_site_fract_y
  _atom_site_fract_z
  _atom_site_occupancy
  Zn  Zn1       1.0  0.50000  0.00000  0.50000  1.0000
  Zn  Zn2       1.0  0.00000  1.00000  0.00000  1.0000
  H   H1        1.0  0.74967  0.06616  0.72422  1.0000
  H   H2        1.0  0.75033  0.93384  0.22422  1.0000
  H   H3        1.0  0.25033  0.93384  0.27578  1.0000
  H   H4        1.0  0.24967  0.06617  0.77578  1.0000
  H   H5        1.0  0.88192  0.88520  0.64725  1.0000
  H   H6        1.0  0.61808  0.11481  0.14725  1.0000
  H   H7        1.0  0.11808  0.11481  0.35275  1.0000
  H   H8        1.0  0.38191  0.88519  0.85275  1.0000
  C   C1        1.0  0.60226  0.47439  0.46318  1.0000
  C   C2        1.0  0.89777  0.52560  0.96319  1.0000
  C   C3        1.0  0.39776  0.52562  0.53681  1.0000
  C   C4        1.0  0.10224  0.47439  0.03681  1.0000
  N   N1        1.0  0.69256  0.28367  0.44889  1.0000
  N   N2        1.0  0.80744  0.71633  0.94890  1.0000
  N   N3        1.0  0.30746  0.71633  0.55110  1.0000
  N   N4        1.0  0.19255  0.28367  0.05110  1.0000
  N   N5        1.0  0.88993  0.30849  0.37660  1.0000
  N   N6        1.0  0.61007  0.69150  0.87660  1.0000
  N   N7        1.0  0.11007  0.69150  0.62340  1.0000
  N   N8        1.0  0.38993  0.30849  0.12340  1.0000
  N   N9        1.0  0.92664  0.50616  0.34365  1.0000
  N   N10       1.0  0.57335  0.49383  0.84365  1.0000
  N   N11       1.0  0.07335  0.49384  0.65635  1.0000
  N   N12       1.0  0.42665  0.50616  0.15635  1.0000
  N   N13       1.0  0.74606  0.61265  0.39633  1.0000
  N   N14       1.0  0.75393  0.38736  0.89634  1.0000
  N   N15       1.0  0.25394  0.38736  0.60367  1.0000
  N   N16       1.0  0.24606  0.61264  0.10367  1.0000
  O   O1        1.0  0.72481  0.81397  0.37906  1.0000
  O   O2        1.0  0.77518  0.18605  0.87907  1.0000
  O   O3        1.0  0.27517  0.18605  0.62093  1.0000
  O   O4        1.0  0.22482  0.81395  0.12094  1.0000
  O   O5        1.0  0.73178  0.96463  0.65372  1.0000
  O   O6        1.0  0.76821  0.03537  0.15372  1.0000
  O   O7        1.0  0.26822  0.03537  0.34628  1.0000
  O   O8        1.0  0.23178  0.96463  0.84628  1.0000
