data_image0
_chemical_formula_structural       Zn8Te8H32C8N8
_chemical_formula_sum              "Zn8 Te8 H32 C8 N8"
_cell_length_a       6.91999
_cell_length_b       6.99208
_cell_length_c       17.1509
_cell_angle_alpha    90.0001
_cell_angle_beta     89.9995
_cell_angle_gamma    90.0009

_space_group_name_H-M_alt    "P 1"
_space_group_IT_number       1

loop_
  _space_group_symop_operation_xyz
  'x, y, z'

loop_
  _atom_site_type_symbol
  _atom_site_label
  _atom_site_symmetry_multiplicity
  _atom_site_fract_x
  _atom_site_fract_y
  _atom_site_fract_z
  _atom_site_occupancy
  Zn  Zn1       1.0  0.78799  0.89878  0.69654  1.0000
  Zn  Zn2       1.0  0.21202  0.60122  0.19654  1.0000
  Zn  Zn3       1.0  0.71202  0.39879  0.30346  1.0000
  Zn  Zn4       1.0  0.28799  0.10121  0.80346  1.0000
  Zn  Zn5       1.0  0.21201  0.10123  0.30346  1.0000
  Zn  Zn6       1.0  0.78799  0.39878  0.80346  1.0000
  Zn  Zn7       1.0  0.28799  0.60121  0.69654  1.0000
  Zn  Zn8       1.0  0.71201  0.89879  0.19654  1.0000
  Te  Te1       1.0  0.91572  0.54667  0.67184  1.0000
  Te  Te2       1.0  0.08429  0.95333  0.17184  1.0000
  Te  Te3       1.0  0.58428  0.04668  0.32816  1.0000
  Te  Te4       1.0  0.41572  0.45332  0.82816  1.0000
  Te  Te5       1.0  0.08428  0.45333  0.32816  1.0000
  Te  Te6       1.0  0.91572  0.04667  0.82816  1.0000
  Te  Te7       1.0  0.41572  0.95332  0.67184  1.0000
  Te  Te8       1.0  0.58429  0.54668  0.17184  1.0000
  H   H1        1.0  0.88503  0.18710  0.60387  1.0000
  H   H2        1.0  0.11498  0.31291  0.10386  1.0000
  H   H3        1.0  0.61497  0.68709  0.39614  1.0000
  H   H4        1.0  0.38502  0.81290  0.89614  1.0000
  H   H5        1.0  0.11498  0.81292  0.39614  1.0000
  H   H6        1.0  0.88502  0.68709  0.89614  1.0000
  H   H7        1.0  0.38503  0.31290  0.60386  1.0000
  H   H8        1.0  0.61498  0.18710  0.10386  1.0000
  H   H9        1.0  0.07210  0.05229  0.62521  1.0000
  H   H10       1.0  0.92790  0.44771  0.12521  1.0000
  H   H11       1.0  0.42790  0.55229  0.37479  1.0000
  H   H12       1.0  0.57209  0.94771  0.87479  1.0000
  H   H13       1.0  0.92790  0.94771  0.37479  1.0000
  H   H14       1.0  0.07210  0.55229  0.87479  1.0000
  H   H15       1.0  0.57210  0.44771  0.62521  1.0000
  H   H16       1.0  0.42791  0.05229  0.12521  1.0000
  H   H17       1.0  0.77960  0.97093  0.50410  1.0000
  H   H18       1.0  0.22041  0.52908  0.00410  1.0000
  H   H19       1.0  0.72042  0.47093  0.49590  1.0000
  H   H20       1.0  0.27958  0.02908  0.99590  1.0000
  H   H21       1.0  0.22044  0.02910  0.49590  1.0000
  H   H22       1.0  0.77956  0.47091  0.99590  1.0000
  H   H23       1.0  0.27957  0.52906  0.50410  1.0000
  H   H24       1.0  0.72042  0.97091  0.00410  1.0000
  H   H25       1.0  0.95464  0.80294  0.53598  1.0000
  H   H26       1.0  0.04536  0.69707  0.03598  1.0000
  H   H27       1.0  0.54538  0.30294  0.46402  1.0000
  H   H28       1.0  0.45463  0.19706  0.96402  1.0000
  H   H29       1.0  0.04536  0.19709  0.46401  1.0000
  H   H30       1.0  0.95463  0.30291  0.96401  1.0000
  H   H31       1.0  0.45462  0.69706  0.53599  1.0000
  H   H32       1.0  0.54536  0.80293  0.03599  1.0000
  C   C1        1.0  0.92641  0.95688  0.52818  1.0000
  C   C2        1.0  0.07358  0.54311  0.02817  1.0000
  C   C3        1.0  0.57357  0.45689  0.47182  1.0000
  C   C4        1.0  0.42640  0.04311  0.97182  1.0000
  C   C5        1.0  0.07355  0.04308  0.47182  1.0000
  C   C6        1.0  0.92643  0.45692  0.97182  1.0000
  C   C7        1.0  0.42643  0.54310  0.52818  1.0000
  C   C8        1.0  0.57356  0.95690  0.02818  1.0000
  N   N1        1.0  0.93093  0.04707  0.60576  1.0000
  N   N2        1.0  0.06908  0.45292  0.10576  1.0000
  N   N3        1.0  0.56908  0.54710  0.39423  1.0000
  N   N4        1.0  0.43093  0.95292  0.89424  1.0000
  N   N5        1.0  0.06908  0.95292  0.39422  1.0000
  N   N6        1.0  0.93092  0.54708  0.89422  1.0000
  N   N7        1.0  0.43092  0.45290  0.60577  1.0000
  N   N8        1.0  0.56907  0.04709  0.10578  1.0000
