data_image0
_chemical_formula_structural       Zn4Te4H20C6N4
_chemical_formula_sum              "Zn4 Te4 H20 C6 N4"
_cell_length_a       6.83916
_cell_length_b       6.98513
_cell_length_c       10.6893
_cell_angle_alpha    109.068
_cell_angle_beta     89.9997
_cell_angle_gamma    90.0001

_space_group_name_H-M_alt    "P 1"
_space_group_IT_number       1

loop_
  _space_group_symop_operation_xyz
  'x, y, z'

loop_
  _atom_site_type_symbol
  _atom_site_label
  _atom_site_symmetry_multiplicity
  _atom_site_fract_x
  _atom_site_fract_y
  _atom_site_fract_z
  _atom_site_occupancy
  Zn  Zn1       1.0  0.63060  0.63668  0.58853  1.0000
  Zn  Zn2       1.0  0.13060  0.36332  0.41147  1.0000
  Zn  Zn3       1.0  0.63035  0.04833  0.41141  1.0000
  Zn  Zn4       1.0  0.13035  0.95166  0.58859  1.0000
  Te  Te1       1.0  0.50877  0.37930  0.36472  1.0000
  Te  Te2       1.0  0.00876  0.62070  0.63528  1.0000
  Te  Te3       1.0  0.50868  0.01449  0.63533  1.0000
  Te  Te4       1.0  0.00868  0.98551  0.36467  1.0000
  H   H1        1.0  0.35139  0.58637  0.73936  1.0000
  H   H2        1.0  0.85140  0.41364  0.26065  1.0000
  H   H3        1.0  0.35119  0.84703  0.26054  1.0000
  H   H4        1.0  0.85119  0.15297  0.73946  1.0000
  H   H5        1.0  0.52370  0.42012  0.73827  1.0000
  H   H6        1.0  0.02371  0.57988  0.26173  1.0000
  H   H7        1.0  0.52352  0.68201  0.26176  1.0000
  H   H8        1.0  0.02352  0.31798  0.73824  1.0000
  H   H9        1.0  0.54772  0.86187  0.87806  1.0000
  H   H10       1.0  0.04772  0.13813  0.12194  1.0000
  H   H11       1.0  0.54766  0.98379  0.12180  1.0000
  H   H12       1.0  0.04767  0.01621  0.87820  1.0000
  H   H13       1.0  0.73018  0.68470  0.87965  1.0000
  H   H14       1.0  0.23018  0.31530  0.12035  1.0000
  H   H15       1.0  0.73001  0.80497  0.12033  1.0000
  H   H16       1.0  0.23001  0.19502  0.87966  1.0000
  H   H17       1.0  0.31786  0.70414  0.99988  1.0000
  H   H18       1.0  0.81787  0.29586  0.00012  1.0000
  H   H19       1.0  0.49815  0.52111  0.99991  1.0000
  H   H20       1.0  0.99816  0.47889  0.00009  1.0000
  C   C1        1.0  0.57064  0.70531  0.87727  1.0000
  C   C2        1.0  0.07065  0.29469  0.12274  1.0000
  C   C3        1.0  0.57045  0.82802  0.12268  1.0000
  C   C4        1.0  0.07045  0.17199  0.87732  1.0000
  C   C5        1.0  0.47690  0.67765  0.99995  1.0000
  C   C6        1.0  0.97691  0.32235  0.00005  1.0000
  N   N1        1.0  0.50020  0.57045  0.74886  1.0000
  N   N2        1.0  0.00021  0.42955  0.25114  1.0000
  N   N3        1.0  0.49999  0.82170  0.25111  1.0000
  N   N4        1.0  0.99999  0.17830  0.74890  1.0000
