data_image0
_chemical_formula_structural       Zn4Te4H16C4N4
_chemical_formula_sum              "Zn4 Te4 H16 C4 N4"
_cell_length_a       4.33946
_cell_length_b       5.67804
_cell_length_c       16.7067
_cell_angle_alpha    89.9973
_cell_angle_beta     90.0001
_cell_angle_gamma    89.9992

_space_group_name_H-M_alt    "P 1"
_space_group_IT_number       1

loop_
  _space_group_symop_operation_xyz
  'x, y, z'

loop_
  _atom_site_type_symbol
  _atom_site_label
  _atom_site_symmetry_multiplicity
  _atom_site_fract_x
  _atom_site_fract_y
  _atom_site_fract_z
  _atom_site_occupancy
  Zn  Zn1       1.0  1.00000  0.68330  0.19899  1.0000
  Zn  Zn2       1.0  1.00000  0.31672  0.80101  1.0000
  Zn  Zn3       1.0  0.50000  0.18327  0.30101  1.0000
  Zn  Zn4       1.0  0.50000  0.81672  0.69898  1.0000
  Te  Te1       1.0  0.00000  0.93336  0.33295  1.0000
  Te  Te2       1.0  1.00000  0.06662  0.66706  1.0000
  Te  Te3       1.0  0.49999  0.43344  0.16706  1.0000
  Te  Te4       1.0  0.50000  0.56658  0.83295  1.0000
  H   H1        1.0  0.18703  0.05615  0.12523  1.0000
  H   H2        1.0  0.18703  0.94389  0.87477  1.0000
  H   H3        1.0  0.31300  0.55610  0.37477  1.0000
  H   H4        1.0  0.31297  0.44389  0.62523  1.0000
  H   H5        1.0  0.81296  0.94388  0.87477  1.0000
  H   H6        1.0  0.81296  0.05614  0.12523  1.0000
  H   H7        1.0  0.68702  0.44388  0.62523  1.0000
  H   H8        1.0  0.68705  0.55610  0.37477  1.0000
  H   H9        1.0  0.79730  0.77979  0.01379  1.0000
  H   H10       1.0  0.79732  0.22023  0.98621  1.0000
  H   H11       1.0  0.70265  0.27975  0.48622  1.0000
  H   H12       1.0  0.70272  0.72020  0.51378  1.0000
  H   H13       1.0  0.20264  0.22024  0.98621  1.0000
  H   H14       1.0  0.20265  0.77980  0.01379  1.0000
  H   H15       1.0  0.29737  0.72022  0.51377  1.0000
  H   H16       1.0  0.29733  0.27977  0.48622  1.0000
  C   C1        1.0  0.99999  0.89028  0.02665  1.0000
  C   C2        1.0  0.99997  0.10976  0.97335  1.0000
  C   C3        1.0  0.50002  0.39021  0.47335  1.0000
  C   C4        1.0  0.50002  0.60969  0.52664  1.0000
  N   N1        1.0  0.99998  0.95020  0.11237  1.0000
  N   N2        1.0  0.00001  0.04983  0.88763  1.0000
  N   N3        1.0  0.49999  0.45014  0.38764  1.0000
  N   N4        1.0  0.50002  0.54983  0.61237  1.0000
