data_image0
_chemical_formula_structural       Zn2H40C54N2O8F2
_chemical_formula_sum              "Zn2 H40 C54 N2 O8 F2"
_cell_length_a       10.3674
_cell_length_b       11.0123
_cell_length_c       11.8363
_cell_angle_alpha    71.0995
_cell_angle_beta     66.4228
_cell_angle_gamma    65.2736

_space_group_name_H-M_alt    "P 1"
_space_group_IT_number       1

loop_
  _space_group_symop_operation_xyz
  'x, y, z'

loop_
  _atom_site_type_symbol
  _atom_site_label
  _atom_site_symmetry_multiplicity
  _atom_site_fract_x
  _atom_site_fract_y
  _atom_site_fract_z
  _atom_site_occupancy
  Zn  Zn1       1.0  0.09770  0.05477  0.38915  1.0000
  Zn  Zn2       1.0  0.90231  0.94523  0.61085  1.0000
  H   H1        1.0  0.21227  0.11580  0.10342  1.0000
  H   H2        1.0  0.78773  0.88420  0.89658  1.0000
  H   H3        1.0  0.36938  0.25202  0.94057  1.0000
  H   H4        1.0  0.63062  0.74798  0.05943  1.0000
  H   H5        1.0  0.37177  0.38867  0.24319  1.0000
  H   H6        1.0  0.62824  0.61133  0.75681  1.0000
  H   H7        1.0  0.22013  0.24517  0.39126  1.0000
  H   H8        1.0  0.77987  0.75483  0.60874  1.0000
  H   H9        1.0  0.52011  0.38907  0.89204  1.0000
  H   H10       1.0  0.47989  0.61093  0.10796  1.0000
  H   H11       1.0  0.40951  0.62338  0.87654  1.0000
  H   H12       1.0  0.59049  0.37662  0.12346  1.0000
  H   H13       1.0  0.26355  0.68342  0.19697  1.0000
  H   H14       1.0  0.73645  0.31658  0.80303  1.0000
  H   H15       1.0  0.99794  0.74247  0.32071  1.0000
  H   H16       1.0  0.00206  0.25754  0.67930  1.0000
  H   H17       1.0  0.81580  0.71806  0.24782  1.0000
  H   H18       1.0  0.18420  0.28195  0.75219  1.0000
  H   H19       1.0  0.90713  0.63013  0.04919  1.0000
  H   H20       1.0  0.09288  0.36987  0.95081  1.0000
  H   H21       1.0  0.09106  0.91311  0.89512  1.0000
  H   H22       1.0  0.90894  0.08690  0.10487  1.0000
  H   H23       1.0  0.22268  0.93109  0.02167  1.0000
  H   H24       1.0  0.77732  0.06891  0.97833  1.0000
  H   H25       1.0  0.44053  0.01422  0.91425  1.0000
  H   H26       1.0  0.55947  0.98577  0.08576  1.0000
  H   H27       1.0  0.52967  0.07419  0.68088  1.0000
  H   H28       1.0  0.47033  0.92581  0.31912  1.0000
  H   H29       1.0  0.39425  0.05585  0.55637  1.0000
  H   H30       1.0  0.60576  0.94415  0.44362  1.0000
  H   H31       1.0  0.48334  0.67517  0.30359  1.0000
  H   H32       1.0  0.51666  0.32482  0.69641  1.0000
  H   H33       1.0  0.65265  0.43427  0.29673  1.0000
  H   H34       1.0  0.34734  0.56572  0.70328  1.0000
  H   H35       1.0  0.55304  0.24423  0.41999  1.0000
  H   H36       1.0  0.44696  0.75577  0.58002  1.0000
  H   H37       1.0  0.28588  0.29498  0.54874  1.0000
  H   H38       1.0  0.71411  0.70501  0.45126  1.0000
  H   H39       1.0  0.11969  0.53575  0.55863  1.0000
  H   H40       1.0  0.88030  0.46425  0.44137  1.0000
  C   C1        1.0  0.25225  0.17692  0.12938  1.0000
  C   C2        1.0  0.74776  0.82308  0.87062  1.0000
  C   C3        1.0  0.33905  0.25335  0.03975  1.0000
  C   C4        1.0  0.66095  0.74665  0.96025  1.0000
  C   C5        1.0  0.38758  0.33057  0.07755  1.0000
  C   C6        1.0  0.61242  0.66943  0.92245  1.0000
  C   C7        1.0  0.34134  0.32935  0.20644  1.0000
  C   C8        1.0  0.65866  0.67065  0.79356  1.0000
  C   C9        1.0  0.25571  0.25023  0.29040  1.0000
  C   C10       1.0  0.74429  0.74977  0.70960  1.0000
  C   C11       1.0  0.47904  0.41571  0.98471  1.0000
  C   C12       1.0  0.52096  0.58430  0.01529  1.0000
  C   C13       1.0  0.40001  0.57571  0.97535  1.0000
  C   C14       1.0  0.59999  0.42429  0.02465  1.0000
  C   C15       1.0  0.23932  0.62309  0.05236  1.0000
  C   C16       1.0  0.76068  0.37691  0.94765  1.0000
  C   C17       1.0  0.18615  0.67181  0.16377  1.0000
  C   C18       1.0  0.81385  0.32819  0.83623  1.0000
  C   C19       1.0  0.03533  0.70513  0.23428  1.0000
  C   C20       1.0  0.96467  0.29487  0.76572  1.0000
  C   C21       1.0  0.93377  0.69093  0.19418  1.0000
  C   C22       1.0  0.06623  0.30908  0.80583  1.0000
  C   C23       1.0  0.98268  0.64359  0.08306  1.0000
  C   C24       1.0  0.01732  0.35641  0.91695  1.0000
  C   C25       1.0  0.13290  0.61157  0.01581  1.0000
  C   C26       1.0  0.86710  0.38843  0.98419  1.0000
  C   C27       1.0  0.15067  0.98186  0.64144  1.0000
  C   C28       1.0  0.84934  0.01814  0.35855  1.0000
  C   C29       1.0  0.23497  0.98399  0.71817  1.0000
  C   C30       1.0  0.76504  0.01601  0.28182  1.0000
  C   C31       1.0  0.18720  0.94789  0.84935  1.0000
  C   C32       1.0  0.81280  0.05211  0.15064  1.0000
  C   C33       1.0  0.26099  0.95902  0.91959  1.0000
  C   C34       1.0  0.73901  0.04098  0.08041  1.0000
  C   C35       1.0  0.38295  0.00572  0.85919  1.0000
  C   C36       1.0  0.61705  0.99428  0.14081  1.0000
  C   C37       1.0  0.43321  0.03958  0.72823  1.0000
  C   C38       1.0  0.56679  0.96041  0.27177  1.0000
  C   C39       1.0  0.35885  0.02861  0.65838  1.0000
  C   C40       1.0  0.64116  0.97139  0.34162  1.0000
  C   C41       1.0  0.19167  0.76413  0.43934  1.0000
  C   C42       1.0  0.80832  0.23587  0.56066  1.0000
  C   C43       1.0  0.29130  0.61976  0.43026  1.0000
  C   C44       1.0  0.70870  0.38023  0.56975  1.0000
  C   C45       1.0  0.44127  0.59073  0.35573  1.0000
  C   C46       1.0  0.55872  0.40927  0.64427  1.0000
  C   C47       1.0  0.53540  0.45621  0.35223  1.0000
  C   C48       1.0  0.46459  0.54379  0.64777  1.0000
  C   C49       1.0  0.47951  0.34949  0.42190  1.0000
  C   C50       1.0  0.52049  0.65050  0.57810  1.0000
  C   C51       1.0  0.32948  0.37814  0.49471  1.0000
  C   C52       1.0  0.67051  0.62186  0.50529  1.0000
  C   C53       1.0  0.23589  0.51239  0.49988  1.0000
  C   C54       1.0  0.76410  0.48760  0.50012  1.0000
  N   N1        1.0  0.21276  0.17398  0.25290  1.0000
  N   N2        1.0  0.78724  0.82602  0.74710  1.0000
  O   O1        1.0  0.19926  0.01954  0.52294  1.0000
  O   O2        1.0  0.80075  0.98046  0.47705  1.0000
  O   O3        1.0  0.03586  0.94496  0.70003  1.0000
  O   O4        1.0  0.96414  0.05504  0.29995  1.0000
  O   O5        1.0  0.06897  0.78089  0.52841  1.0000
  O   O6        1.0  0.93102  0.21911  0.47158  1.0000
  O   O7        1.0  0.23637  0.85928  0.35843  1.0000
  O   O8        1.0  0.76362  0.14072  0.64156  1.0000
  F   F1        1.0  0.18144  0.56345  0.90698  1.0000
  F   F2        1.0  0.81856  0.43655  0.09303  1.0000
