data_image0
_chemical_formula_structural       Cd2H16C20S4N8O8
_chemical_formula_sum              "Cd2 H16 C20 S4 N8 O8"
_cell_length_a       7.15298
_cell_length_b       9.8132
_cell_length_c       9.8132
_cell_angle_alpha    84.0491
_cell_angle_beta     75.882
_cell_angle_gamma    75.8819

_space_group_name_H-M_alt    "P 1"
_space_group_IT_number       1

loop_
  _space_group_symop_operation_xyz
  'x, y, z'

loop_
  _atom_site_type_symbol
  _atom_site_label
  _atom_site_symmetry_multiplicity
  _atom_site_fract_x
  _atom_site_fract_y
  _atom_site_fract_z
  _atom_site_occupancy
  Cd  Cd1       1.0  0.75000  0.56709  0.43291  1.0000
  Cd  Cd2       1.0  0.25000  0.43291  0.56709  1.0000
  H   H1        1.0  0.68465  0.06104  0.63193  1.0000
  H   H2        1.0  0.81535  0.36807  0.93896  1.0000
  H   H3        1.0  0.31535  0.93896  0.36807  1.0000
  H   H4        1.0  0.18465  0.63193  0.06104  1.0000
  H   H5        1.0  0.37164  0.82147  0.00029  1.0000
  H   H6        1.0  0.12836  0.99971  0.17853  1.0000
  H   H7        1.0  0.62836  0.17853  0.99971  1.0000
  H   H8        1.0  0.87164  0.00029  0.82147  1.0000
  H   H9        1.0  0.86687  0.88253  0.44525  1.0000
  H   H10       1.0  0.63313  0.55475  0.11747  1.0000
  H   H11       1.0  0.13313  0.11747  0.55475  1.0000
  H   H12       1.0  0.36687  0.44525  0.88253  1.0000
  H   H13       1.0  0.40022  0.71749  0.70411  1.0000
  H   H14       1.0  0.09978  0.29588  0.28251  1.0000
  H   H15       1.0  0.59978  0.28250  0.29589  1.0000
  H   H16       1.0  0.90022  0.70411  0.71749  1.0000
  C   C1        1.0  0.31384  0.93100  0.97176  1.0000
  C   C2        1.0  0.18616  0.02824  0.06900  1.0000
  C   C3        1.0  0.68616  0.06900  0.02824  1.0000
  C   C4        1.0  0.81384  0.97176  0.93100  1.0000
  C   C5        1.0  0.36248  0.98994  0.83742  1.0000
  C   C6        1.0  0.13752  0.16258  0.01006  1.0000
  C   C7        1.0  0.63752  0.01006  0.16258  1.0000
  C   C8        1.0  0.86248  0.83742  0.98994  1.0000
  C   C9        1.0  0.48819  0.91881  0.71417  1.0000
  C   C10       1.0  0.01181  0.28583  0.08119  1.0000
  C   C11       1.0  0.51181  0.08119  0.28584  1.0000
  C   C12       1.0  0.98819  0.71417  0.91881  1.0000
  C   C13       1.0  0.73531  0.87331  0.52569  1.0000
  C   C14       1.0  0.76469  0.47431  0.12669  1.0000
  C   C15       1.0  0.26469  0.12669  0.47431  1.0000
  C   C16       1.0  0.23531  0.52569  0.87331  1.0000
  C   C17       1.0  0.49594  0.78983  0.66516  1.0000
  C   C18       1.0  0.00407  0.33484  0.21018  1.0000
  C   C19       1.0  0.50406  0.21017  0.33485  1.0000
  C   C20       1.0  0.99593  0.66516  0.78983  1.0000
  S   S1        1.0  0.25000  0.16745  0.83255  1.0000
  S   S2        1.0  0.75000  0.83255  0.16745  1.0000
  S   S3        1.0  0.75000  0.33324  0.66676  1.0000
  S   S4        1.0  0.25000  0.66676  0.33324  1.0000
  N   N1        1.0  0.65081  0.76284  0.54884  1.0000
  N   N2        1.0  0.84919  0.45116  0.23717  1.0000
  N   N3        1.0  0.34919  0.23716  0.45116  1.0000
  N   N4        1.0  0.15081  0.54884  0.76284  1.0000
  N   N5        1.0  0.63967  0.96941  0.62260  1.0000
  N   N6        1.0  0.86033  0.37740  0.03059  1.0000
  N   N7        1.0  0.36033  0.03059  0.37740  1.0000
  N   N8        1.0  0.13967  0.62260  0.96941  1.0000
  O   O1        1.0  0.80999  0.18119  0.64131  1.0000
  O   O2        1.0  0.69001  0.35869  0.81881  1.0000
  O   O3        1.0  0.19001  0.81881  0.35869  1.0000
  O   O4        1.0  0.30999  0.64131  0.18119  1.0000
  O   O5        1.0  0.91679  0.40279  0.59501  1.0000
  O   O6        1.0  0.58321  0.40499  0.59721  1.0000
  O   O7        1.0  0.08321  0.59721  0.40499  1.0000
  O   O8        1.0  0.41679  0.59501  0.40279  1.0000
