data_image0
_chemical_formula_structural       Cd2H8C12Cl4O12
_chemical_formula_sum              "Cd2 H8 C12 Cl4 O12"
_cell_length_a       4.78302
_cell_length_b       7.39031
_cell_length_c       15.0626
_cell_angle_alpha    85.0391
_cell_angle_beta     82.9169
_cell_angle_gamma    68.657

_space_group_name_H-M_alt    "P 1"
_space_group_IT_number       1

loop_
  _space_group_symop_operation_xyz
  'x, y, z'

loop_
  _atom_site_type_symbol
  _atom_site_label
  _atom_site_symmetry_multiplicity
  _atom_site_fract_x
  _atom_site_fract_y
  _atom_site_fract_z
  _atom_site_occupancy
  Cd  Cd1       1.0  0.13908  0.76522  0.24362  1.0000
  Cd  Cd2       1.0  0.86092  0.23479  0.75638  1.0000
  H   H1        1.0  0.67709  0.91033  0.13463  1.0000
  H   H2        1.0  0.56274  0.06479  0.65248  1.0000
  H   H3        1.0  0.32294  0.08964  0.86537  1.0000
  H   H4        1.0  0.43725  0.93523  0.34751  1.0000
  H   H5        1.0  0.57462  0.05243  0.21174  1.0000
  H   H6        1.0  0.88156  0.89311  0.66124  1.0000
  H   H7        1.0  0.42543  0.94756  0.78825  1.0000
  H   H8        1.0  0.11844  0.10690  0.33874  1.0000
  C   C1        1.0  0.49423  0.64099  0.06158  1.0000
  C   C2        1.0  0.12398  0.34504  0.56617  1.0000
  C   C3        1.0  0.50581  0.35900  0.93841  1.0000
  C   C4        1.0  0.87595  0.65496  0.43385  1.0000
  C   C5        1.0  0.67223  0.50215  0.91461  1.0000
  C   C6        1.0  0.19908  0.50572  0.41994  1.0000
  C   C7        1.0  0.32777  0.49784  0.08539  1.0000
  C   C8        1.0  0.80089  0.49426  0.58006  1.0000
  C   C9        1.0  0.65102  0.63926  0.97715  1.0000
  C   C10       1.0  0.29947  0.35488  0.48593  1.0000
  C   C11       1.0  0.34898  0.36074  0.02286  1.0000
  C   C12       1.0  0.70048  0.64511  0.51407  1.0000
  Cl  Cl1       1.0  0.84025  0.79816  0.94943  1.0000
  Cl  Cl2       1.0  0.66113  0.18471  0.46875  1.0000
  Cl  Cl3       1.0  0.15975  0.20184  0.05057  1.0000
  Cl  Cl4       1.0  0.33884  0.81530  0.53125  1.0000
  O   O1        1.0  0.48109  0.75511  0.12239  1.0000
  O   O2        1.0  0.21159  0.22001  0.63012  1.0000
  O   O3        1.0  0.51892  0.24489  0.87762  1.0000
  O   O4        1.0  0.78839  0.78001  0.36988  1.0000
  O   O5        1.0  0.82489  0.49042  0.83922  1.0000
  O   O6        1.0  0.36219  0.52543  0.35032  1.0000
  O   O7        1.0  0.17511  0.50957  0.16078  1.0000
  O   O8        1.0  0.63780  0.47460  0.64968  1.0000
  O   O9        1.0  0.75305  0.98676  0.17065  1.0000
  O   O10       1.0  0.71906  0.99355  0.69420  1.0000
  O   O11       1.0  0.24698  0.01322  0.82935  1.0000
  O   O12       1.0  0.28097  0.00645  0.30579  1.0000
