data_image0
_chemical_formula_structural       Hg4H28C28I8N8
_chemical_formula_sum              "Hg4 H28 C28 I8 N8"
_cell_length_a       4.35369
_cell_length_b       12.5208
_cell_length_c       20.0263
_cell_angle_alpha    89.9999
_cell_angle_beta     90
_cell_angle_gamma    95.6609

_space_group_name_H-M_alt    "P 1"
_space_group_IT_number       1

loop_
  _space_group_symop_operation_xyz
  'x, y, z'

loop_
  _atom_site_type_symbol
  _atom_site_label
  _atom_site_symmetry_multiplicity
  _atom_site_fract_x
  _atom_site_fract_y
  _atom_site_fract_z
  _atom_site_occupancy
  Hg  Hg1       1.0  0.59592  0.52049  0.68895  1.0000
  Hg  Hg2       1.0  0.40408  0.97951  0.18895  1.0000
  Hg  Hg3       1.0  0.40410  0.47950  0.31105  1.0000
  Hg  Hg4       1.0  0.59590  0.02049  0.81105  1.0000
  H   H1        1.0  0.05403  0.83965  0.42928  1.0000
  H   H2        1.0  0.94597  0.66036  0.92927  1.0000
  H   H3        1.0  0.94596  0.16034  0.57073  1.0000
  H   H4        1.0  0.05404  0.33966  0.07072  1.0000
  H   H5        1.0  0.71076  0.98296  0.60728  1.0000
  H   H6        1.0  0.28923  0.51704  0.10728  1.0000
  H   H7        1.0  0.28923  0.01704  0.39272  1.0000
  H   H8        1.0  0.71077  0.48297  0.89271  1.0000
  H   H9        1.0  0.03602  0.73189  0.68977  1.0000
  H   H10       1.0  0.96398  0.76811  0.18977  1.0000
  H   H11       1.0  0.96399  0.26812  0.31024  1.0000
  H   H12       1.0  0.03600  0.23188  0.81023  1.0000
  H   H13       1.0  0.82346  0.84519  0.69127  1.0000
  H   H14       1.0  0.17653  0.65480  0.19127  1.0000
  H   H15       1.0  0.17654  0.15481  0.30873  1.0000
  H   H16       1.0  0.82343  0.34519  0.80872  1.0000
  H   H17       1.0  0.15749  0.84719  0.64063  1.0000
  H   H18       1.0  0.84251  0.65280  0.14063  1.0000
  H   H19       1.0  0.84251  0.15281  0.35937  1.0000
  H   H20       1.0  0.15749  0.34719  0.85936  1.0000
  H   H21       1.0  0.32178  0.56519  0.52756  1.0000
  H   H22       1.0  0.67824  0.93480  0.02757  1.0000
  H   H23       1.0  0.67823  0.43480  0.47244  1.0000
  H   H24       1.0  0.32179  0.06521  0.97244  1.0000
  H   H25       1.0  0.49044  0.74749  0.45089  1.0000
  H   H26       1.0  0.50956  0.75251  0.95089  1.0000
  H   H27       1.0  0.50956  0.25250  0.54911  1.0000
  H   H28       1.0  0.49046  0.24751  0.04911  1.0000
  C   C1        1.0  0.87029  0.89971  0.52081  1.0000
  C   C2        1.0  0.12971  0.60030  0.02081  1.0000
  C   C3        1.0  0.12970  0.10028  0.47919  1.0000
  C   C4        1.0  0.87031  0.39972  0.97918  1.0000
  C   C5        1.0  0.02885  0.91000  0.46012  1.0000
  C   C6        1.0  0.97115  0.59000  0.96011  1.0000
  C   C7        1.0  0.97113  0.08999  0.53989  1.0000
  C   C8        1.0  0.02887  0.41001  0.03988  1.0000
  C   C9        1.0  0.84070  0.98958  0.56069  1.0000
  C   C10       1.0  0.15930  0.51043  0.06068  1.0000
  C   C11       1.0  0.15928  0.01041  0.43932  1.0000
  C   C12       1.0  0.84074  0.48959  0.93931  1.0000
  C   C13       1.0  0.95595  0.79578  0.65871  1.0000
  C   C14       1.0  0.04405  0.70422  0.15871  1.0000
  C   C15       1.0  0.04405  0.20422  0.34130  1.0000
  C   C16       1.0  0.95594  0.29577  0.84129  1.0000
  C   C17       1.0  0.76762  0.74843  0.60239  1.0000
  C   C18       1.0  0.23237  0.75157  0.10239  1.0000
  C   C19       1.0  0.23237  0.25157  0.39762  1.0000
  C   C20       1.0  0.76763  0.24843  0.89761  1.0000
  C   C21       1.0  0.46934  0.63744  0.53972  1.0000
  C   C22       1.0  0.53066  0.86256  0.03972  1.0000
  C   C23       1.0  0.53068  0.36255  0.46029  1.0000
  C   C24       1.0  0.46933  0.13745  0.96028  1.0000
  C   C25       1.0  0.54875  0.72654  0.50147  1.0000
  C   C26       1.0  0.45122  0.77347  0.00146  1.0000
  C   C27       1.0  0.45123  0.27345  0.49854  1.0000
  C   C28       1.0  0.54878  0.22655  0.99854  1.0000
  I   I1        1.0  0.37449  0.61089  0.79836  1.0000
  I   I2        1.0  0.62551  0.88911  0.29836  1.0000
  I   I3        1.0  0.62551  0.38911  0.20164  1.0000
  I   I4        1.0  0.37449  0.11088  0.70164  1.0000
  I   I5        1.0  0.00879  0.38899  0.63869  1.0000
  I   I6        1.0  0.99121  0.11100  0.13869  1.0000
  I   I7        1.0  0.99123  0.61101  0.36131  1.0000
  I   I8        1.0  0.00878  0.88899  0.86131  1.0000
  N   N1        1.0  0.60748  0.65195  0.60160  1.0000
  N   N2        1.0  0.39253  0.84805  0.10160  1.0000
  N   N3        1.0  0.39253  0.34805  0.39841  1.0000
  N   N4        1.0  0.60747  0.15195  0.89840  1.0000
  N   N5        1.0  0.73475  0.79679  0.54146  1.0000
  N   N6        1.0  0.26523  0.70321  0.04146  1.0000
  N   N7        1.0  0.26524  0.20320  0.45854  1.0000
  N   N8        1.0  0.73477  0.29680  0.95854  1.0000
