data_image0
_chemical_formula_structural       Ba2H32C28S4O26
_chemical_formula_sum              "Ba2 H32 C28 S4 O26"
_cell_length_a       7.15884
_cell_length_b       11.2267
_cell_length_c       12.4384
_cell_angle_alpha    102.855
_cell_angle_beta     92.272
_cell_angle_gamma    106.71

_space_group_name_H-M_alt    "P 1"
_space_group_IT_number       1

loop_
  _space_group_symop_operation_xyz
  'x, y, z'

loop_
  _atom_site_type_symbol
  _atom_site_label
  _atom_site_symmetry_multiplicity
  _atom_site_fract_x
  _atom_site_fract_y
  _atom_site_fract_z
  _atom_site_occupancy
  Ba  Ba1       1.0  0.13525  0.30347  0.06007  1.0000
  Ba  Ba2       1.0  0.86475  0.69653  0.93993  1.0000
  H   H1        1.0  0.20852  0.29340  0.46395  1.0000
  H   H2        1.0  0.79148  0.70660  0.53605  1.0000
  H   H3        1.0  0.21469  0.30505  0.66841  1.0000
  H   H4        1.0  0.78531  0.69495  0.33159  1.0000
  H   H5        1.0  0.32667  0.71402  0.73530  1.0000
  H   H6        1.0  0.67333  0.28598  0.26470  1.0000
  H   H7        1.0  0.30760  0.70041  0.53273  1.0000
  H   H8        1.0  0.69240  0.29959  0.46727  1.0000
  H   H9        1.0  0.92001  0.19316  0.53408  1.0000
  H   H10       1.0  0.07999  0.80684  0.46592  1.0000
  H   H11       1.0  0.93383  0.19450  0.33283  1.0000
  H   H12       1.0  0.06617  0.80550  0.66717  1.0000
  H   H13       1.0  0.56232  0.80152  0.24350  1.0000
  H   H14       1.0  0.43768  0.19848  0.75650  1.0000
  H   H15       1.0  0.55463  0.80047  0.44198  1.0000
  H   H16       1.0  0.44537  0.19953  0.55802  1.0000
  H   H17       1.0  0.29080  0.58806  0.25451  1.0000
  H   H18       1.0  0.70920  0.41194  0.74549  1.0000
  H   H19       1.0  0.67237  0.89721  0.72788  1.0000
  H   H20       1.0  0.32763  0.10279  0.27212  1.0000
  H   H21       1.0  0.81542  0.17618  0.82442  1.0000
  H   H22       1.0  0.18458  0.82382  0.17558  1.0000
  H   H23       1.0  0.67361  0.17227  0.91781  1.0000
  H   H24       1.0  0.32639  0.82774  0.08219  1.0000
  H   H25       1.0  0.45823  0.59758  0.12230  1.0000
  H   H26       1.0  0.54177  0.40242  0.87770  1.0000
  H   H27       1.0  0.26618  0.64568  0.11340  1.0000
  H   H28       1.0  0.73383  0.35432  0.88660  1.0000
  H   H29       1.0  0.15085  0.03348  0.12355  1.0000
  H   H30       1.0  0.84915  0.96652  0.87645  1.0000
  H   H31       1.0  0.36714  0.08833  0.09312  1.0000
  H   H32       1.0  0.63286  0.91167  0.90688  1.0000
  C   C1        1.0  0.25213  0.49524  0.48595  1.0000
  C   C2        1.0  0.74787  0.50476  0.51405  1.0000
  C   C3        1.0  0.22873  0.38418  0.52406  1.0000
  C   C4        1.0  0.77127  0.61582  0.47594  1.0000
  C   C5        1.0  0.23598  0.39086  0.63746  1.0000
  C   C6        1.0  0.76402  0.60914  0.36254  1.0000
  C   C7        1.0  0.27194  0.50982  0.71226  1.0000
  C   C8        1.0  0.72806  0.49018  0.28774  1.0000
  C   C9        1.0  0.29832  0.62199  0.67554  1.0000
  C   C10       1.0  0.70168  0.37802  0.32446  1.0000
  C   C11       1.0  0.28730  0.61399  0.56230  1.0000
  C   C12       1.0  0.71270  0.38601  0.43770  1.0000
  C   C13       1.0  0.24150  0.48616  0.36458  1.0000
  C   C14       1.0  0.75851  0.51384  0.63542  1.0000
  C   C15       1.0  0.74134  0.99705  0.50044  1.0000
  C   C16       1.0  0.25865  0.00295  0.49956  1.0000
  C   C17       1.0  0.84506  0.10782  0.46911  1.0000
  C   C18       1.0  0.15494  0.89218  0.53089  1.0000
  C   C19       1.0  0.85123  0.10882  0.35761  1.0000
  C   C20       1.0  0.14877  0.89118  0.64240  1.0000
  C   C21       1.0  0.74915  0.99781  0.27710  1.0000
  C   C22       1.0  0.25085  0.00220  0.72290  1.0000
  C   C23       1.0  0.64217  0.88702  0.30702  1.0000
  C   C24       1.0  0.35783  0.11298  0.69298  1.0000
  C   C25       1.0  0.63872  0.88661  0.41885  1.0000
  C   C26       1.0  0.36128  0.11339  0.58115  1.0000
  C   C27       1.0  0.74645  0.00208  0.62129  1.0000
  C   C28       1.0  0.25355  0.99792  0.37871  1.0000
  S   S1        1.0  0.28358  0.52328  0.85757  1.0000
  S   S2        1.0  0.71642  0.47672  0.14243  1.0000
  S   S3        1.0  0.76374  0.99719  0.13456  1.0000
  S   S4        1.0  0.23626  0.00281  0.86544  1.0000
  O   O1        1.0  0.28438  0.59905  0.33964  1.0000
  O   O2        1.0  0.71562  0.40095  0.66036  1.0000
  O   O3        1.0  0.19686  0.38198  0.29408  1.0000
  O   O4        1.0  0.80314  0.61802  0.70592  1.0000
  O   O5        1.0  0.29504  0.39874  0.87507  1.0000
  O   O6        1.0  0.70497  0.60126  0.12493  1.0000
  O   O7        1.0  0.10196  0.54746  0.89150  1.0000
  O   O8        1.0  0.89804  0.45254  0.10850  1.0000
  O   O9        1.0  0.46071  0.62991  0.90663  1.0000
  O   O10       1.0  0.53930  0.37009  0.09337  1.0000
  O   O11       1.0  0.65204  0.89172  0.64449  1.0000
  O   O12       1.0  0.34796  0.10828  0.35551  1.0000
  O   O13       1.0  0.83481  0.10170  0.69184  1.0000
  O   O14       1.0  0.16519  0.89829  0.30816  1.0000
  O   O15       1.0  0.82679  0.13192  0.12957  1.0000
  O   O16       1.0  0.17321  0.86808  0.87043  1.0000
  O   O17       1.0  0.91243  0.93174  0.09911  1.0000
  O   O18       1.0  0.08757  0.06826  0.90089  1.0000
  O   O19       1.0  0.57006  0.92379  0.07371  1.0000
  O   O20       1.0  0.42995  0.07621  0.92629  1.0000
  O   O21       1.0  0.79790  0.22506  0.89870  1.0000
  O   O22       1.0  0.20210  0.77494  0.10130  1.0000
  O   O23       1.0  0.31730  0.57820  0.13426  1.0000
  O   O24       1.0  0.68270  0.42180  0.86574  1.0000
  O   O25       1.0  0.27586  0.10534  0.14717  1.0000
  O   O26       1.0  0.72414  0.89465  0.85283  1.0000
