data_image0
_chemical_formula_structural       Co2H32C16N12O8
_chemical_formula_sum              "Co2 H32 C16 N12 O8"
_cell_length_a       7.18312
_cell_length_b       7.18308
_cell_length_c       12.4865
_cell_angle_alpha    101.164
_cell_angle_beta     101.163
_cell_angle_gamma    100.351

_space_group_name_H-M_alt    "P 1"
_space_group_IT_number       1

loop_
  _space_group_symop_operation_xyz
  'x, y, z'

loop_
  _atom_site_type_symbol
  _atom_site_label
  _atom_site_symmetry_multiplicity
  _atom_site_fract_x
  _atom_site_fract_y
  _atom_site_fract_z
  _atom_site_occupancy
  Co  Co1       1.0  0.00000  0.00000  0.00000  1.0000
  Co  Co2       1.0  0.00000  0.00000  0.50000  1.0000
  H   H1        1.0  0.65663  0.97723  0.84873  1.0000
  H   H2        1.0  0.02277  0.34337  0.65127  1.0000
  H   H3        1.0  0.34337  0.02277  0.15127  1.0000
  H   H4        1.0  0.97723  0.65663  0.34873  1.0000
  H   H5        1.0  0.75455  0.20329  0.90271  1.0000
  H   H6        1.0  0.79672  0.24545  0.59729  1.0000
  H   H7        1.0  0.24545  0.79671  0.09729  1.0000
  H   H8        1.0  0.20329  0.75455  0.40271  1.0000
  H   H9        1.0  0.10190  0.58930  0.87694  1.0000
  H   H10       1.0  0.41070  0.89810  0.62306  1.0000
  H   H11       1.0  0.89809  0.41070  0.12306  1.0000
  H   H12       1.0  0.58930  0.10190  0.37694  1.0000
  H   H13       1.0  0.89384  0.60885  0.77815  1.0000
  H   H14       1.0  0.39115  0.10617  0.72185  1.0000
  H   H15       1.0  0.10616  0.39116  0.22185  1.0000
  H   H16       1.0  0.60884  0.89383  0.27815  1.0000
  H   H17       1.0  0.08843  0.11331  0.77885  1.0000
  H   H18       1.0  0.88668  0.91156  0.72115  1.0000
  H   H19       1.0  0.91157  0.88669  0.22115  1.0000
  H   H20       1.0  0.11331  0.08843  0.27885  1.0000
  H   H21       1.0  0.91536  0.63162  0.59173  1.0000
  H   H22       1.0  0.36838  0.08465  0.90827  1.0000
  H   H23       1.0  0.08464  0.36838  0.40827  1.0000
  H   H24       1.0  0.63162  0.91535  0.09173  1.0000
  H   H25       1.0  0.14153  0.62518  0.55157  1.0000
  H   H26       1.0  0.37483  0.85848  0.94843  1.0000
  H   H27       1.0  0.85848  0.37482  0.44843  1.0000
  H   H28       1.0  0.62517  0.14151  0.05157  1.0000
  H   H29       1.0  0.41813  0.59458  0.67972  1.0000
  H   H30       1.0  0.40543  0.58188  0.82028  1.0000
  H   H31       1.0  0.58187  0.40542  0.32028  1.0000
  H   H32       1.0  0.59457  0.41812  0.17972  1.0000
  C   C1        1.0  0.73747  0.57242  0.95761  1.0000
  C   C2        1.0  0.42759  0.26254  0.54239  1.0000
  C   C3        1.0  0.26254  0.42759  0.04240  1.0000
  C   C4        1.0  0.57242  0.73746  0.45761  1.0000
  C   C5        1.0  0.05297  0.65373  0.80673  1.0000
  C   C6        1.0  0.34627  0.94704  0.69327  1.0000
  C   C7        1.0  0.94702  0.34627  0.19327  1.0000
  C   C8        1.0  0.65373  0.05297  0.30673  1.0000
  C   C9        1.0  0.04540  0.95461  0.75000  1.0000
  C   C10       1.0  0.95461  0.04539  0.25000  1.0000
  C   C11       1.0  0.07460  0.67459  0.62030  1.0000
  C   C12       1.0  0.32541  0.92542  0.87970  1.0000
  C   C13       1.0  0.92540  0.32542  0.37970  1.0000
  C   C14       1.0  0.67458  0.07459  0.12030  1.0000
  C   C15       1.0  0.35435  0.64566  0.75000  1.0000
  C   C16       1.0  0.64565  0.35434  0.25000  1.0000
  N   N1        1.0  0.82446  0.73827  0.98529  1.0000
  N   N2        1.0  0.26173  0.17554  0.51470  1.0000
  N   N3        1.0  0.17554  0.26173  0.01471  1.0000
  N   N4        1.0  0.73828  0.82446  0.48530  1.0000
  N   N5        1.0  0.11034  0.86849  0.84558  1.0000
  N   N6        1.0  0.13151  0.88966  0.65442  1.0000
  N   N7        1.0  0.88966  0.13151  0.15442  1.0000
  N   N8        1.0  0.86849  0.11034  0.34558  1.0000
  N   N9        1.0  0.13998  0.58400  0.71301  1.0000
  N   N10       1.0  0.41601  0.86003  0.78699  1.0000
  N   N11       1.0  0.86003  0.41600  0.28699  1.0000
  N   N12       1.0  0.58399  0.13997  0.21301  1.0000
  O   O1        1.0  0.64662  0.40211  0.92889  1.0000
  O   O2        1.0  0.59790  0.35337  0.57111  1.0000
  O   O3        1.0  0.35337  0.59789  0.07112  1.0000
  O   O4        1.0  0.40211  0.64663  0.42889  1.0000
  O   O5        1.0  0.78407  0.07262  0.88830  1.0000
  O   O6        1.0  0.92738  0.21593  0.61170  1.0000
  O   O7        1.0  0.21593  0.92738  0.11170  1.0000
  O   O8        1.0  0.07262  0.78407  0.38830  1.0000
