data_image0
_chemical_formula_structural       La2H34C34N2O14
_chemical_formula_sum              "La2 H34 C34 N2 O14"
_cell_length_a       10.0024
_cell_length_b       10.6931
_cell_length_c       10.7348
_cell_angle_alpha    64.3947
_cell_angle_beta     65.4659
_cell_angle_gamma    67.217

_space_group_name_H-M_alt    "P 1"
_space_group_IT_number       1

loop_
  _space_group_symop_operation_xyz
  'x, y, z'

loop_
  _atom_site_type_symbol
  _atom_site_label
  _atom_site_symmetry_multiplicity
  _atom_site_fract_x
  _atom_site_fract_y
  _atom_site_fract_z
  _atom_site_occupancy
  La  La1       1.0  0.71510  0.98989  0.49255  1.0000
  La  La2       1.0  0.28490  0.01011  0.50744  1.0000
  H   H1        1.0  0.48446  0.40453  0.66504  1.0000
  H   H2        1.0  0.51554  0.59546  0.33497  1.0000
  H   H3        1.0  0.31733  0.64935  0.66480  1.0000
  H   H4        1.0  0.68267  0.35064  0.33521  1.0000
  H   H5        1.0  0.98008  0.55963  0.58841  1.0000
  H   H6        1.0  0.01993  0.44038  0.41157  1.0000
  H   H7        1.0  0.14781  0.31509  0.58742  1.0000
  H   H8        1.0  0.85219  0.68491  0.41257  1.0000
  H   H9        1.0  0.27951  0.39143  0.13409  1.0000
  H   H10       1.0  0.72049  0.60857  0.86592  1.0000
  H   H11       1.0  0.73723  0.37614  0.07194  1.0000
  H   H12       1.0  0.26276  0.62387  0.92807  1.0000
  H   H13       1.0  0.89116  0.11175  0.08405  1.0000
  H   H14       1.0  0.10885  0.88824  0.91595  1.0000
  H   H15       1.0  0.08722  0.18745  0.91117  1.0000
  H   H16       1.0  0.91277  0.81255  0.08883  1.0000
  H   H17       1.0  0.27414  0.10038  0.92077  1.0000
  H   H18       1.0  0.72586  0.89963  0.07923  1.0000
  H   H19       1.0  0.04356  0.31989  0.07464  1.0000
  H   H20       1.0  0.95644  0.68011  0.92536  1.0000
  H   H21       1.0  0.20623  0.35070  0.92186  1.0000
  H   H22       1.0  0.79376  0.64931  0.07814  1.0000
  H   H23       1.0  0.22876  0.22965  0.09307  1.0000
  H   H24       1.0  0.77124  0.77035  0.90693  1.0000
  H   H25       1.0  0.13704  0.92239  0.31262  1.0000
  H   H26       1.0  0.86297  0.07762  0.68738  1.0000
  H   H27       1.0  0.29658  0.97806  0.17178  1.0000
  H   H28       1.0  0.70343  0.02194  0.82822  1.0000
  H   H29       1.0  0.33082  0.71075  0.25519  1.0000
  H   H30       1.0  0.66919  0.28926  0.74482  1.0000
  H   H31       1.0  0.34128  0.78981  0.06914  1.0000
  H   H32       1.0  0.65872  0.21019  0.93087  1.0000
  H   H33       1.0  0.17306  0.73997  0.20094  1.0000
  H   H34       1.0  0.82694  0.26003  0.79907  1.0000
  C   C1        1.0  0.43819  0.20814  0.60566  1.0000
  C   C2        1.0  0.56180  0.79185  0.39434  1.0000
  C   C3        1.0  0.32891  0.34673  0.62151  1.0000
  C   C4        1.0  0.67109  0.65326  0.37849  1.0000
  C   C5        1.0  0.37385  0.43955  0.64814  1.0000
  C   C6        1.0  0.62615  0.56044  0.35186  1.0000
  C   C7        1.0  0.28102  0.57586  0.64748  1.0000
  C   C8        1.0  0.71898  0.42413  0.35252  1.0000
  C   C9        1.0  0.14080  0.62085  0.62130  1.0000
  C   C10       1.0  0.85920  0.37914  0.37869  1.0000
  C   C11       1.0  0.09131  0.52470  0.60416  1.0000
  C   C12       1.0  0.90869  0.47530  0.39583  1.0000
  C   C13       1.0  0.18501  0.38893  0.60319  1.0000
  C   C14       1.0  0.81499  0.61108  0.39680  1.0000
  C   C15       1.0  0.95185  0.22671  0.39617  1.0000
  C   C16       1.0  0.04815  0.77329  0.60383  1.0000
  C   C17       1.0  0.52042  0.22907  0.23388  1.0000
  C   C18       1.0  0.47958  0.77093  0.76612  1.0000
  C   C19       1.0  0.50950  0.37007  0.11398  1.0000
  C   C20       1.0  0.49049  0.62994  0.88602  1.0000
  C   C21       1.0  0.37537  0.43988  0.07406  1.0000
  C   C22       1.0  0.62463  0.56012  0.92594  1.0000
  C   C23       1.0  0.63379  0.43143  0.03953  1.0000
  C   C24       1.0  0.36620  0.56857  0.96048  1.0000
  C   C25       1.0  0.96057  0.02798  0.15421  1.0000
  C   C26       1.0  0.03943  0.97201  0.84579  1.0000
  C   C27       1.0  0.15950  0.14795  0.98119  1.0000
  C   C28       1.0  0.84050  0.85205  0.01881  1.0000
  C   C29       1.0  0.15967  0.26905  0.02020  1.0000
  C   C30       1.0  0.84033  0.73095  0.97980  1.0000
  C   C31       1.0  0.20388  0.93105  0.19968  1.0000
  C   C32       1.0  0.79613  0.06896  0.80031  1.0000
  C   C33       1.0  0.26565  0.78454  0.17910  1.0000
  C   C34       1.0  0.73435  0.21546  0.82090  1.0000
  N   N1        1.0  0.10436  0.03297  0.10979  1.0000
  N   N2        1.0  0.89565  0.96704  0.89021  1.0000
  O   O1        1.0  0.56664  0.17214  0.62559  1.0000
  O   O2        1.0  0.43335  0.82785  0.37442  1.0000
  O   O3        1.0  0.40375  0.13111  0.56476  1.0000
  O   O4        1.0  0.59625  0.86889  0.43523  1.0000
  O   O5        1.0  0.08405  0.19419  0.40725  1.0000
  O   O6        1.0  0.91595  0.80581  0.59275  1.0000
  O   O7        1.0  0.89282  0.13793  0.40121  1.0000
  O   O8        1.0  0.10718  0.86207  0.59880  1.0000
  O   O9        1.0  0.63146  0.18397  0.28476  1.0000
  O   O10       1.0  0.36854  0.81602  0.71524  1.0000
  O   O11       1.0  0.41865  0.16377  0.27625  1.0000
  O   O12       1.0  0.58136  0.83622  0.72373  1.0000
  O   O13       1.0  0.90442  0.93619  0.26736  1.0000
  O   O14       1.0  0.09559  0.06381  0.73263  1.0000
