data_image0
_chemical_formula_structural       Ag2H14C12S2N4O8F6
_chemical_formula_sum              "Ag2 H14 C12 S2 N4 O8 F6"
_cell_length_a       6.03617
_cell_length_b       9.5898
_cell_length_c       10.6571
_cell_angle_alpha    115.684
_cell_angle_beta     97.1679
_cell_angle_gamma    91.9068

_space_group_name_H-M_alt    "P 1"
_space_group_IT_number       1

loop_
  _space_group_symop_operation_xyz
  'x, y, z'

loop_
  _atom_site_type_symbol
  _atom_site_label
  _atom_site_symmetry_multiplicity
  _atom_site_fract_x
  _atom_site_fract_y
  _atom_site_fract_z
  _atom_site_occupancy
  Ag  Ag1       1.0  0.78336  0.74800  0.56089  1.0000
  Ag  Ag2       1.0  0.21665  0.25200  0.43912  1.0000
  H   H1        1.0  0.20911  0.46568  0.16119  1.0000
  H   H2        1.0  0.79089  0.53432  0.83882  1.0000
  H   H3        1.0  0.19945  0.15577  0.09900  1.0000
  H   H4        1.0  0.80056  0.84423  0.90101  1.0000
  H   H5        1.0  0.86539  0.10240  0.22825  1.0000
  H   H6        1.0  0.13462  0.89759  0.77175  1.0000
  H   H7        1.0  0.58668  0.26866  0.38421  1.0000
  H   H8        1.0  0.41332  0.73133  0.61578  1.0000
  H   H9        1.0  0.92765  0.58156  0.31552  1.0000
  H   H10       1.0  0.07235  0.41844  0.68447  1.0000
  H   H11       1.0  0.89692  0.86253  0.36861  1.0000
  H   H12       1.0  0.10308  0.13746  0.63139  1.0000
  H   H13       1.0  0.13745  0.81127  0.40487  1.0000
  H   H14       1.0  0.86255  0.18872  0.59513  1.0000
  C   C1        1.0  0.10541  0.39750  0.19445  1.0000
  C   C2        1.0  0.89460  0.60251  0.80555  1.0000
  C   C3        1.0  0.09891  0.24077  0.16539  1.0000
  C   C4        1.0  0.90109  0.75924  0.83462  1.0000
  C   C5        1.0  0.93155  0.21323  0.23628  1.0000
  C   C6        1.0  0.06844  0.78676  0.76372  1.0000
  C   C7        1.0  0.83907  0.35606  0.30705  1.0000
  C   C8        1.0  0.16093  0.64393  0.69294  1.0000
  C   C9        1.0  0.66436  0.37697  0.38928  1.0000
  C   C10       1.0  0.33565  0.62303  0.61071  1.0000
  C   C11       1.0  0.54007  0.24345  0.89699  1.0000
  C   C12       1.0  0.45993  0.75656  0.10301  1.0000
  S   S1        1.0  0.53435  0.10796  0.70729  1.0000
  S   S2        1.0  0.46565  0.89203  0.29272  1.0000
  N   N1        1.0  0.59087  0.50847  0.46912  1.0000
  N   N2        1.0  0.40913  0.49154  0.53088  1.0000
  N   N3        1.0  0.95008  0.46477  0.27864  1.0000
  N   N4        1.0  0.04993  0.53523  0.72136  1.0000
  O   O1        1.0  0.71745  0.01345  0.71152  1.0000
  O   O2        1.0  0.28255  0.98655  0.28849  1.0000
  O   O3        1.0  0.30891  0.02594  0.66587  1.0000
  O   O4        1.0  0.69108  0.97406  0.33413  1.0000
  O   O5        1.0  0.57336  0.21032  0.64104  1.0000
  O   O6        1.0  0.42664  0.78968  0.35897  1.0000
  O   O7        1.0  0.97422  0.78761  0.39523  1.0000
  O   O8        1.0  0.02578  0.21239  0.60476  1.0000
  F   F1        1.0  0.36560  0.33238  0.91321  1.0000
  F   F2        1.0  0.63440  0.66763  0.08679  1.0000
  F   F3        1.0  0.73321  0.33877  0.94980  1.0000
  F   F4        1.0  0.26678  0.66122  0.05021  1.0000
  F   F5        1.0  0.52302  0.16215  0.97326  1.0000
  F   F6        1.0  0.47695  0.83786  0.02674  1.0000
