data_image0
_chemical_formula_structural       Zn4H32C48N12O8
_chemical_formula_sum              "Zn4 H32 C48 N12 O8"
_cell_length_a       11.2655
_cell_length_b       10.7882
_cell_length_c       11.8119
_cell_angle_alpha    90
_cell_angle_beta     104.587
_cell_angle_gamma    90.0002

_space_group_name_H-M_alt    "P 1"
_space_group_IT_number       1

loop_
  _space_group_symop_operation_xyz
  'x, y, z'

loop_
  _atom_site_type_symbol
  _atom_site_label
  _atom_site_symmetry_multiplicity
  _atom_site_fract_x
  _atom_site_fract_y
  _atom_site_fract_z
  _atom_site_occupancy
  Zn  Zn1       1.0  0.34967  0.44860  0.92020  1.0000
  Zn  Zn2       1.0  0.15033  0.94860  0.57980  1.0000
  Zn  Zn3       1.0  0.65033  0.55140  0.07980  1.0000
  Zn  Zn4       1.0  0.84967  0.05140  0.42020  1.0000
  H   H1        1.0  0.43936  0.31644  0.72638  1.0000
  H   H2        1.0  0.06064  0.81644  0.77362  1.0000
  H   H3        1.0  0.56063  0.68356  0.27362  1.0000
  H   H4        1.0  0.93936  0.18356  0.22638  1.0000
  H   H5        1.0  0.80417  0.37675  0.95168  1.0000
  H   H6        1.0  0.69583  0.87675  0.54832  1.0000
  H   H7        1.0  0.19583  0.62325  0.04832  1.0000
  H   H8        1.0  0.30417  0.12325  0.45168  1.0000
  H   H9        1.0  0.21280  0.41703  0.54948  1.0000
  H   H10       1.0  0.28720  0.91703  0.95052  1.0000
  H   H11       1.0  0.78720  0.58297  0.45051  1.0000
  H   H12       1.0  0.71279  0.08297  0.04948  1.0000
  H   H13       1.0  0.91335  0.58216  0.65868  1.0000
  H   H14       1.0  0.58665  0.08216  0.84132  1.0000
  H   H15       1.0  0.08665  0.41785  0.34132  1.0000
  H   H16       1.0  0.41335  0.91784  0.15868  1.0000
  H   H17       1.0  0.60677  0.10094  0.45502  1.0000
  H   H18       1.0  0.89324  0.60094  0.04499  1.0000
  H   H19       1.0  0.39323  0.89905  0.54498  1.0000
  H   H20       1.0  0.10677  0.39906  0.95502  1.0000
  H   H21       1.0  0.95070  0.24835  0.60254  1.0000
  H   H22       1.0  0.54931  0.74835  0.89747  1.0000
  H   H23       1.0  0.04930  0.75165  0.39747  1.0000
  H   H24       1.0  0.45070  0.25165  0.10253  1.0000
  H   H25       1.0  0.88132  0.34269  0.76642  1.0000
  H   H26       1.0  0.61868  0.84269  0.73358  1.0000
  H   H27       1.0  0.11868  0.65731  0.23358  1.0000
  H   H28       1.0  0.38132  0.15731  0.26642  1.0000
  H   H29       1.0  0.52280  0.18378  0.61604  1.0000
  H   H30       1.0  0.97721  0.68377  0.88396  1.0000
  H   H31       1.0  0.47720  0.81622  0.38395  1.0000
  H   H32       1.0  0.02280  0.31623  0.11604  1.0000
  C   C1        1.0  0.64577  0.32311  0.79877  1.0000
  C   C2        1.0  0.85423  0.82311  0.70124  1.0000
  C   C3        1.0  0.35423  0.67689  0.20123  1.0000
  C   C4        1.0  0.14577  0.17689  0.29876  1.0000
  C   C5        1.0  0.52061  0.33893  0.79486  1.0000
  C   C6        1.0  0.97939  0.83893  0.70514  1.0000
  C   C7        1.0  0.47939  0.66107  0.20514  1.0000
  C   C8        1.0  0.02061  0.16107  0.29486  1.0000
  C   C9        1.0  0.69436  0.27229  0.70600  1.0000
  C   C10       1.0  0.80565  0.77229  0.79401  1.0000
  C   C11       1.0  0.30564  0.72771  0.29401  1.0000
  C   C12       1.0  0.19436  0.22771  0.20599  1.0000
  C   C13       1.0  0.07058  0.50034  0.61628  1.0000
  C   C14       1.0  0.42941  0.00034  0.88372  1.0000
  C   C15       1.0  0.92941  0.49965  0.38372  1.0000
  C   C16       1.0  0.57058  0.99966  0.11628  1.0000
  C   C17       1.0  0.70696  0.36975  0.90944  1.0000
  C   C18       1.0  0.79304  0.86975  0.59056  1.0000
  C   C19       1.0  0.29304  0.63025  0.09055  1.0000
  C   C20       1.0  0.20696  0.13025  0.40944  1.0000
  C   C21       1.0  0.11955  0.45333  0.52689  1.0000
  C   C22       1.0  0.38045  0.95333  0.97311  1.0000
  C   C23       1.0  0.88045  0.54666  0.47311  1.0000
  C   C24       1.0  0.61954  0.04667  0.02689  1.0000
  C   C25       1.0  0.95046  0.54665  0.58841  1.0000
  C   C26       1.0  0.54954  0.04665  0.91159  1.0000
  C   C27       1.0  0.04954  0.45335  0.41159  1.0000
  C   C28       1.0  0.45046  0.95335  0.08841  1.0000
  C   C29       1.0  0.14487  0.50036  0.74111  1.0000
  C   C30       1.0  0.35512  0.00035  0.75889  1.0000
  C   C31       1.0  0.85512  0.49964  0.25889  1.0000
  C   C32       1.0  0.64487  0.99965  0.24111  1.0000
  C   C33       1.0  0.66294  0.15690  0.52551  1.0000
  C   C34       1.0  0.83706  0.65690  0.97450  1.0000
  C   C35       1.0  0.33706  0.84310  0.47450  1.0000
  C   C36       1.0  0.16294  0.34310  0.02550  1.0000
  C   C37       1.0  0.85620  0.23729  0.60860  1.0000
  C   C38       1.0  0.64380  0.73729  0.89141  1.0000
  C   C39       1.0  0.14380  0.76271  0.39141  1.0000
  C   C40       1.0  0.35620  0.26271  0.10859  1.0000
  C   C41       1.0  0.81684  0.28874  0.70047  1.0000
  C   C42       1.0  0.68317  0.78874  0.79953  1.0000
  C   C43       1.0  0.18316  0.71126  0.29953  1.0000
  C   C44       1.0  0.31683  0.21126  0.20047  1.0000
  C   C45       1.0  0.61706  0.20443  0.61448  1.0000
  C   C46       1.0  0.88294  0.70443  0.88552  1.0000
  C   C47       1.0  0.38294  0.79557  0.38552  1.0000
  C   C48       1.0  0.11706  0.29557  0.11448  1.0000
  N   N1        1.0  0.50943  0.39188  0.89416  1.0000
  N   N2        1.0  0.99057  0.89188  0.60584  1.0000
  N   N3        1.0  0.49057  0.60812  0.10584  1.0000
  N   N4        1.0  0.00943  0.10812  0.39415  1.0000
  N   N5        1.0  0.78128  0.17164  0.52220  1.0000
  N   N6        1.0  0.71873  0.67165  0.97781  1.0000
  N   N7        1.0  0.21872  0.82835  0.47781  1.0000
  N   N8        1.0  0.28128  0.32836  0.02219  1.0000
  N   N9        1.0  0.62445  0.41005  0.96589  1.0000
  N   N10       1.0  0.87555  0.91005  0.53411  1.0000
  N   N11       1.0  0.37555  0.58995  0.03411  1.0000
  N   N12       1.0  0.12445  0.08995  0.46589  1.0000
  O   O1        1.0  0.25411  0.45316  0.75795  1.0000
  O   O2        1.0  0.24589  0.95316  0.74205  1.0000
  O   O3        1.0  0.74589  0.54685  0.24205  1.0000
  O   O4        1.0  0.75411  0.04685  0.25795  1.0000
  O   O5        1.0  0.10126  0.54238  0.82118  1.0000
  O   O6        1.0  0.39874  0.04238  0.67882  1.0000
  O   O7        1.0  0.89873  0.45762  0.17881  1.0000
  O   O8        1.0  0.60126  0.95762  0.32118  1.0000
