data_image0
_chemical_formula_structural       Na2H12C8N22O4
_chemical_formula_sum              "Na2 H12 C8 N22 O4"
_cell_length_a       6.96357
_cell_length_b       9.21386
_cell_length_c       9.50938
_cell_angle_alpha    118.987
_cell_angle_beta     106.057
_cell_angle_gamma    89.9855

_space_group_name_H-M_alt    "P 1"
_space_group_IT_number       1

loop_
  _space_group_symop_operation_xyz
  'x, y, z'

loop_
  _atom_site_type_symbol
  _atom_site_label
  _atom_site_symmetry_multiplicity
  _atom_site_fract_x
  _atom_site_fract_y
  _atom_site_fract_z
  _atom_site_occupancy
  Na  Na1       1.0  0.75003  0.56959  0.00004  1.0000
  Na  Na2       1.0  0.24997  0.43041  0.99996  1.0000
  H   H1        1.0  0.11361  0.29456  0.42065  1.0000
  H   H2        1.0  0.38677  0.87386  0.57941  1.0000
  H   H3        1.0  0.88639  0.70544  0.57935  1.0000
  H   H4        1.0  0.61323  0.12614  0.42059  1.0000
  H   H5        1.0  0.92974  0.47603  0.72952  1.0000
  H   H6        1.0  0.57013  0.74644  0.27039  1.0000
  H   H7        1.0  0.07026  0.52397  0.27048  1.0000
  H   H8        1.0  0.42987  0.25356  0.72960  1.0000
  H   H9        1.0  0.05927  0.65227  0.86962  1.0000
  H   H10       1.0  0.44071  0.78267  0.13031  1.0000
  H   H11       1.0  0.94073  0.34773  0.13039  1.0000
  H   H12       1.0  0.55929  0.21733  0.86969  1.0000
  C   C1        1.0  0.11936  0.16825  0.39951  1.0000
  C   C2        1.0  0.38079  0.76875  0.60057  1.0000
  C   C3        1.0  0.88064  0.83175  0.60049  1.0000
  C   C4        1.0  0.61920  0.23126  0.39943  1.0000
  C   C5        1.0  0.85872  0.99913  0.11611  1.0000
  C   C6        1.0  0.64128  0.88306  0.88405  1.0000
  C   C7        1.0  0.14128  0.00087  0.88389  1.0000
  C   C8        1.0  0.35872  0.11694  0.11595  1.0000
  N   N1        1.0  0.24591  0.12840  0.50322  1.0000
  N   N2        1.0  0.25428  0.62521  0.49683  1.0000
  N   N3        1.0  0.75409  0.87160  0.49678  1.0000
  N   N4        1.0  0.74572  0.37479  0.50317  1.0000
  N   N5        1.0  0.20406  0.95836  0.42938  1.0000
  N   N6        1.0  0.29599  0.52904  0.57069  1.0000
  N   N7        1.0  0.79594  0.04164  0.57062  1.0000
  N   N8        1.0  0.70401  0.47097  0.42931  1.0000
  N   N9        1.0  0.05954  0.89319  0.28599  1.0000
  N   N10       1.0  0.44044  0.60723  0.71413  1.0000
  N   N11       1.0  0.94047  0.10681  0.71401  1.0000
  N   N12       1.0  0.55955  0.39277  0.28587  1.0000
  N   N13       1.0  0.00398  0.02501  0.26502  1.0000
  N   N14       1.0  0.49606  0.76000  0.73510  1.0000
  N   N15       1.0  0.99602  0.97499  0.73498  1.0000
  N   N16       1.0  0.50394  0.24000  0.26490  1.0000
  N   N17       1.0  0.82367  0.12099  0.07786  1.0000
  N   N18       1.0  0.67635  0.04313  0.92219  1.0000
  N   N19       1.0  0.17633  0.87901  0.92214  1.0000
  N   N20       1.0  0.32365  0.95687  0.07781  1.0000
  N   N21       1.0  0.74998  0.84668  0.00010  1.0000
  N   N22       1.0  0.25002  0.15332  0.99990  1.0000
  O   O1        1.0  0.00867  0.54227  0.85147  1.0000
  O   O2        1.0  0.49123  0.69076  0.14844  1.0000
  O   O3        1.0  0.99133  0.45773  0.14853  1.0000
  O   O4        1.0  0.50877  0.30924  0.85156  1.0000
