data_image0
_chemical_formula_structural       Hg10H28C12N20Cl20
_chemical_formula_sum              "Hg10 H28 C12 N20 Cl20"
_cell_length_a       9.29062
_cell_length_b       10.0294
_cell_length_c       14.8769
_cell_angle_alpha    91.3865
_cell_angle_beta     90
_cell_angle_gamma    90

_space_group_name_H-M_alt    "P 1"
_space_group_IT_number       1

loop_
  _space_group_symop_operation_xyz
  'x, y, z'

loop_
  _atom_site_type_symbol
  _atom_site_label
  _atom_site_symmetry_multiplicity
  _atom_site_fract_x
  _atom_site_fract_y
  _atom_site_fract_z
  _atom_site_occupancy
  Hg  Hg1       1.0  0.00000  0.00000  0.50000  1.0000
  Hg  Hg2       1.0  0.50000  0.50000  0.00000  1.0000
  Hg  Hg3       1.0  0.46292  0.11958  0.40016  1.0000
  Hg  Hg4       1.0  0.96292  0.38042  0.09984  1.0000
  Hg  Hg5       1.0  0.53708  0.88042  0.59984  1.0000
  Hg  Hg6       1.0  0.03708  0.61958  0.90016  1.0000
  Hg  Hg7       1.0  0.13441  0.88384  0.72411  1.0000
  Hg  Hg8       1.0  0.63441  0.61616  0.77589  1.0000
  Hg  Hg9       1.0  0.86560  0.11617  0.27589  1.0000
  Hg  Hg10      1.0  0.36559  0.38384  0.22411  1.0000
  H   H1        1.0  0.09437  0.29618  0.43472  1.0000
  H   H2        1.0  0.59437  0.20382  0.06528  1.0000
  H   H3        1.0  0.90563  0.70382  0.56528  1.0000
  H   H4        1.0  0.40563  0.79618  0.93472  1.0000
  H   H5        1.0  0.15829  0.43493  0.49475  1.0000
  H   H6        1.0  0.65829  0.06507  0.00526  1.0000
  H   H7        1.0  0.84171  0.56508  0.50525  1.0000
  H   H8        1.0  0.34171  0.93493  0.99475  1.0000
  H   H9        1.0  0.20419  0.51584  0.69176  1.0000
  H   H10       1.0  0.70418  0.98416  0.80824  1.0000
  H   H11       1.0  0.79582  0.48416  0.30824  1.0000
  H   H12       1.0  0.29582  0.01584  0.19176  1.0000
  H   H13       1.0  0.35765  0.45003  0.64882  1.0000
  H   H14       1.0  0.85765  0.04997  0.85118  1.0000
  H   H15       1.0  0.64235  0.54997  0.35118  1.0000
  H   H16       1.0  0.14235  0.95003  0.14882  1.0000
  H   H17       1.0  0.29903  0.34543  0.80814  1.0000
  H   H18       1.0  0.79899  0.15455  0.69185  1.0000
  H   H19       1.0  0.70097  0.65457  0.19186  1.0000
  H   H20       1.0  0.20097  0.84544  0.30814  1.0000
  H   H21       1.0  0.34537  0.17214  0.80191  1.0000
  H   H22       1.0  0.84538  0.32783  0.69810  1.0000
  H   H23       1.0  0.65464  0.82786  0.19809  1.0000
  H   H24       1.0  0.15464  0.67214  0.30191  1.0000
  H   H25       1.0  0.17925  0.22400  0.85075  1.0000
  H   H26       1.0  0.67925  0.27603  0.64925  1.0000
  H   H27       1.0  0.82075  0.77600  0.14925  1.0000
  H   H28       1.0  0.32075  0.72400  0.35075  1.0000
  C   C1        1.0  0.18835  0.23091  0.70772  1.0000
  C   C2        1.0  0.68833  0.26908  0.79228  1.0000
  C   C3        1.0  0.81166  0.76909  0.29228  1.0000
  C   C4        1.0  0.31166  0.73091  0.20772  1.0000
  C   C5        1.0  0.25685  0.24428  0.79721  1.0000
  C   C6        1.0  0.75684  0.25571  0.70280  1.0000
  C   C7        1.0  0.74315  0.75572  0.20279  1.0000
  C   C8        1.0  0.24316  0.74428  0.29721  1.0000
  C   C9        1.0  0.12066  0.27756  0.56856  1.0000
  C   C10       1.0  0.62066  0.22243  0.93144  1.0000
  C   C11       1.0  0.87934  0.72244  0.43144  1.0000
  C   C12       1.0  0.37934  0.77756  0.06856  1.0000
  N   N1        1.0  0.08088  0.15302  0.58684  1.0000
  N   N2        1.0  0.58088  0.34698  0.91316  1.0000
  N   N3        1.0  0.91912  0.84698  0.41316  1.0000
  N   N4        1.0  0.41912  0.65302  0.08684  1.0000
  N   N5        1.0  0.18602  0.32977  0.64419  1.0000
  N   N6        1.0  0.68602  0.17023  0.85581  1.0000
  N   N7        1.0  0.81398  0.67024  0.35581  1.0000
  N   N8        1.0  0.31398  0.82976  0.14419  1.0000
  N   N9        1.0  0.12414  0.12454  0.67357  1.0000
  N   N10       1.0  0.62412  0.37545  0.82643  1.0000
  N   N11       1.0  0.87587  0.87546  0.32643  1.0000
  N   N12       1.0  0.37587  0.62454  0.17357  1.0000
  N   N13       1.0  0.10107  0.34813  0.49451  1.0000
  N   N14       1.0  0.60107  0.15187  0.00549  1.0000
  N   N15       1.0  0.89893  0.65188  0.50548  1.0000
  N   N16       1.0  0.39893  0.84813  0.99451  1.0000
  N   N17       1.0  0.24807  0.45527  0.64266  1.0000
  N   N18       1.0  0.74807  0.04473  0.85734  1.0000
  N   N19       1.0  0.75193  0.54473  0.35734  1.0000
  N   N20       1.0  0.25193  0.95527  0.14266  1.0000
  Cl  Cl1       1.0  0.17237  0.10330  0.35115  1.0000
  Cl  Cl2       1.0  0.67237  0.39670  0.14885  1.0000
  Cl  Cl3       1.0  0.82763  0.89670  0.64885  1.0000
  Cl  Cl4       1.0  0.32763  0.60330  0.85115  1.0000
  Cl  Cl5       1.0  0.08105  0.92425  0.87810  1.0000
  Cl  Cl6       1.0  0.58105  0.57575  0.62190  1.0000
  Cl  Cl7       1.0  0.91895  0.07575  0.12190  1.0000
  Cl  Cl8       1.0  0.41895  0.42425  0.37810  1.0000
  Cl  Cl9       1.0  0.45510  0.16038  0.55907  1.0000
  Cl  Cl10      1.0  0.95510  0.33962  0.94093  1.0000
  Cl  Cl11      1.0  0.54490  0.83962  0.44093  1.0000
  Cl  Cl12      1.0  0.04490  0.66038  0.05906  1.0000
  Cl  Cl13      1.0  0.53397  0.08017  0.24595  1.0000
  Cl  Cl14      1.0  0.03397  0.41983  0.25405  1.0000
  Cl  Cl15      1.0  0.46603  0.91983  0.75405  1.0000
  Cl  Cl16      1.0  0.96603  0.58017  0.74595  1.0000
  Cl  Cl17      1.0  0.20628  0.79954  0.57988  1.0000
  Cl  Cl18      1.0  0.70627  0.70046  0.92012  1.0000
  Cl  Cl19      1.0  0.79373  0.20046  0.42012  1.0000
  Cl  Cl20      1.0  0.29372  0.29954  0.07988  1.0000
