data_image0
_chemical_formula_structural       Mn2Sn2H22C30Se6N6
_chemical_formula_sum              "Mn2 Sn2 H22 C30 Se6 N6"
_cell_length_a       9.77242
_cell_length_b       9.9334
_cell_length_c       10.7818
_cell_angle_alpha    107.571
_cell_angle_beta     97.322
_cell_angle_gamma    115.243

_space_group_name_H-M_alt    "P 1"
_space_group_IT_number       1

loop_
  _space_group_symop_operation_xyz
  'x, y, z'

loop_
  _atom_site_type_symbol
  _atom_site_label
  _atom_site_symmetry_multiplicity
  _atom_site_fract_x
  _atom_site_fract_y
  _atom_site_fract_z
  _atom_site_occupancy
  Mn  Mn1       1.0  0.64915  0.19250  0.76234  1.0000
  Mn  Mn2       1.0  0.35086  0.80750  0.23765  1.0000
  Sn  Sn1       1.0  0.18182  0.00624  0.54222  1.0000
  Sn  Sn2       1.0  0.81820  0.99377  0.45779  1.0000
  H   H1        1.0  0.52156  0.83091  0.55160  1.0000
  H   H2        1.0  0.47844  0.16909  0.44840  1.0000
  H   H3        1.0  0.43048  0.55669  0.55806  1.0000
  H   H4        1.0  0.56951  0.44331  0.44193  1.0000
  H   H5        1.0  0.47027  0.53689  0.78479  1.0000
  H   H6        1.0  0.52972  0.46311  0.21520  1.0000
  H   H7        1.0  0.59848  0.79129  0.99702  1.0000
  H   H8        1.0  0.40151  0.20870  0.00297  1.0000
  H   H9        1.0  0.71350  0.01333  0.16429  1.0000
  H   H10       1.0  0.28649  0.98666  0.83570  1.0000
  H   H11       1.0  0.84132  0.28979  0.34924  1.0000
  H   H12       1.0  0.15867  0.71021  0.65075  1.0000
  H   H13       1.0  0.90345  0.52908  0.28941  1.0000
  H   H14       1.0  0.09655  0.47091  0.71058  1.0000
  H   H15       1.0  0.93383  0.71411  0.22065  1.0000
  H   H16       1.0  0.06616  0.28588  0.77935  1.0000
  H   H17       1.0  0.98115  0.91751  0.12202  1.0000
  H   H18       1.0  0.01884  0.08248  0.87799  1.0000
  H   H19       1.0  0.90726  0.82429  0.86314  1.0000
  H   H20       1.0  0.09275  0.17572  0.13688  1.0000
  H   H21       1.0  0.78294  0.52858  0.72157  1.0000
  H   H22       1.0  0.21708  0.47144  0.27843  1.0000
  C   C1        1.0  0.53766  0.81742  0.64833  1.0000
  C   C2        1.0  0.46233  0.18258  0.35166  1.0000
  C   C3        1.0  0.48776  0.66514  0.65242  1.0000
  C   C4        1.0  0.51222  0.33486  0.34758  1.0000
  C   C5        1.0  0.50882  0.65482  0.77879  1.0000
  C   C6        1.0  0.49117  0.34517  0.22120  1.0000
  C   C7        1.0  0.58042  0.79664  0.89690  1.0000
  C   C8        1.0  0.41957  0.20335  0.10310  1.0000
  C   C9        1.0  0.62624  0.94504  0.88515  1.0000
  C   C10       1.0  0.37375  0.05495  0.11484  1.0000
  C   C11       1.0  0.70182  0.10162  0.00394  1.0000
  C   C12       1.0  0.29818  0.89837  0.99606  1.0000
  C   C13       1.0  0.74070  0.11892  0.13946  1.0000
  C   C14       1.0  0.25930  0.88107  0.86053  1.0000
  C   C15       1.0  0.81222  0.27360  0.24268  1.0000
  C   C16       1.0  0.18778  0.72639  0.75732  1.0000
  C   C17       1.0  0.84426  0.40715  0.20972  1.0000
  C   C18       1.0  0.15574  0.59285  0.79028  1.0000
  C   C19       1.0  0.80291  0.38165  0.07225  1.0000
  C   C20       1.0  0.19709  0.61834  0.92774  1.0000
  C   C21       1.0  0.83280  0.51246  0.02353  1.0000
  C   C22       1.0  0.16720  0.48754  0.97647  1.0000
  C   C23       1.0  0.90052  0.67577  0.11039  1.0000
  C   C24       1.0  0.09948  0.32423  0.88961  1.0000
  C   C25       1.0  0.92819  0.79035  0.05381  1.0000
  C   C26       1.0  0.07181  0.20965  0.94620  1.0000
  C   C27       1.0  0.88758  0.73974  0.91267  1.0000
  C   C28       1.0  0.11242  0.26026  0.08734  1.0000
  C   C29       1.0  0.81819  0.57475  0.83270  1.0000
  C   C30       1.0  0.18182  0.42526  0.16730  1.0000
  Se  Se1       1.0  0.41081  0.23220  0.74568  1.0000
  Se  Se2       1.0  0.58920  0.76782  0.25433  1.0000
  Se  Se3       1.0  0.22221  0.77401  0.42043  1.0000
  Se  Se4       1.0  0.77779  0.22599  0.57957  1.0000
  Se  Se5       1.0  0.08083  0.13041  0.39696  1.0000
  Se  Se6       1.0  0.91920  0.86962  0.60305  1.0000
  N   N1        1.0  0.60330  0.95420  0.76153  1.0000
  N   N2        1.0  0.39669  0.04579  0.23847  1.0000
  N   N3        1.0  0.73275  0.23131  0.97304  1.0000
  N   N4        1.0  0.26726  0.76869  0.02696  1.0000
  N   N5        1.0  0.79105  0.46374  0.88623  1.0000
  N   N6        1.0  0.20896  0.53626  0.11377  1.0000
