data_image0
_chemical_formula_structural       Gd4Ni3H42C30N6O42
_chemical_formula_sum              "Gd4 Ni3 H42 C30 N6 O42"
_cell_length_a       7.13775
_cell_length_b       12.6408
_cell_length_c       14.6159
_cell_angle_alpha    74.774
_cell_angle_beta     89.8792
_cell_angle_gamma    87.8265

_space_group_name_H-M_alt    "P 1"
_space_group_IT_number       1

loop_
  _space_group_symop_operation_xyz
  'x, y, z'

loop_
  _atom_site_type_symbol
  _atom_site_label
  _atom_site_symmetry_multiplicity
  _atom_site_fract_x
  _atom_site_fract_y
  _atom_site_fract_z
  _atom_site_occupancy
  Gd  Gd1       1.0  0.25376  0.12649  0.32587  1.0000
  Gd  Gd2       1.0  0.74624  0.87351  0.67413  1.0000
  Gd  Gd3       1.0  0.68054  0.54032  0.25529  1.0000
  Gd  Gd4       1.0  0.31946  0.45968  0.74471  1.0000
  Ni  Ni1       1.0  0.00000  0.50000  1.00000  1.0000
  Ni  Ni2       1.0  0.96558  0.82674  0.30016  1.0000
  Ni  Ni3       1.0  0.03441  0.17326  0.69984  1.0000
  H   H1        1.0  0.53665  0.95021  0.17227  1.0000
  H   H2        1.0  0.46335  0.04980  0.82773  1.0000
  H   H3        1.0  0.67611  0.06274  0.16965  1.0000
  H   H4        1.0  0.32389  0.93726  0.83036  1.0000
  H   H5        1.0  0.79077  0.85371  0.14356  1.0000
  H   H6        1.0  0.20923  0.14629  0.85644  1.0000
  H   H7        1.0  0.91982  0.05242  0.07020  1.0000
  H   H8        1.0  0.08019  0.94758  0.92980  1.0000
  H   H9        1.0  0.06523  0.93120  0.08840  1.0000
  H   H10       1.0  0.93477  0.06880  0.91159  1.0000
  H   H11       1.0  0.30620  0.68624  0.08368  1.0000
  H   H12       1.0  0.69380  0.31376  0.91632  1.0000
  H   H13       1.0  0.42546  0.65162  0.98898  1.0000
  H   H14       1.0  0.57454  0.34838  0.01101  1.0000
  H   H15       1.0  0.15958  0.68006  0.90837  1.0000
  H   H16       1.0  0.84042  0.31994  0.09162  1.0000
  H   H17       1.0  0.90166  0.76625  0.94385  1.0000
  H   H18       1.0  0.09834  0.23375  0.05615  1.0000
  H   H19       1.0  0.05479  0.78773  0.03230  1.0000
  H   H20       1.0  0.94520  0.21227  0.96770  1.0000
  H   H21       1.0  0.27057  0.59498  0.42095  1.0000
  H   H22       1.0  0.72943  0.40502  0.57905  1.0000
  H   H23       1.0  0.39870  0.71077  0.42323  1.0000
  H   H24       1.0  0.60130  0.28923  0.57677  1.0000
  H   H25       1.0  0.14034  0.78742  0.46261  1.0000
  H   H26       1.0  0.85967  0.21258  0.53739  1.0000
  H   H27       1.0  0.87779  0.70358  0.51489  1.0000
  H   H28       1.0  0.12222  0.29642  0.48511  1.0000
  H   H29       1.0  0.02875  0.58811  0.52060  1.0000
  H   H30       1.0  0.97125  0.41189  0.47940  1.0000
  H   H31       1.0  0.55499  0.11480  0.47634  1.0000
  H   H32       1.0  0.44500  0.88520  0.52366  1.0000
  H   H33       1.0  0.36334  0.13890  0.52059  1.0000
  H   H34       1.0  0.63666  0.86110  0.47942  1.0000
  H   H35       1.0  0.56244  0.28064  0.22177  1.0000
  H   H36       1.0  0.43756  0.71936  0.77823  1.0000
  H   H37       1.0  0.36938  0.30850  0.16876  1.0000
  H   H38       1.0  0.63063  0.69150  0.83124  1.0000
  H   H39       1.0  0.38021  0.38302  0.35631  1.0000
  H   H40       1.0  0.61980  0.61698  0.64369  1.0000
  H   H41       1.0  0.47187  0.44043  0.42939  1.0000
  H   H42       1.0  0.52814  0.55957  0.57061  1.0000
  C   C1        1.0  0.66655  0.97389  0.20068  1.0000
  C   C2        1.0  0.33345  0.02611  0.79932  1.0000
  C   C3        1.0  0.63912  0.95608  0.30705  1.0000
  C   C4        1.0  0.36087  0.04392  0.69295  1.0000
  C   C5        1.0  0.97674  0.98051  0.12429  1.0000
  C   C6        1.0  0.02326  0.01949  0.87571  1.0000
  C   C7        1.0  0.10416  0.02074  0.19037  1.0000
  C   C8        1.0  0.89584  0.97927  0.80963  1.0000
  C   C9        1.0  0.30335  0.63230  0.03558  1.0000
  C   C10       1.0  0.69666  0.36770  0.96442  1.0000
  C   C11       1.0  0.33568  0.51514  0.09588  1.0000
  C   C12       1.0  0.66432  0.48486  0.90412  1.0000
  C   C13       1.0  0.98857  0.72416  0.00569  1.0000
  C   C14       1.0  0.01143  0.27584  0.99430  1.0000
  C   C15       1.0  0.86163  0.66297  0.08292  1.0000
  C   C16       1.0  0.13838  0.33703  0.91708  1.0000
  C   C17       1.0  0.27350  0.68447  0.39282  1.0000
  C   C18       1.0  0.72650  0.31553  0.60718  1.0000
  C   C19       1.0  0.30023  0.71008  0.28582  1.0000
  C   C20       1.0  0.69976  0.28992  0.71418  1.0000
  C   C21       1.0  0.96376  0.66156  0.47190  1.0000
  C   C22       1.0  0.03624  0.33844  0.52810  1.0000
  C   C23       1.0  0.83495  0.62678  0.40446  1.0000
  C   C24       1.0  0.16505  0.37322  0.59554  1.0000
  C   C25       1.0  0.04910  0.37122  0.30132  1.0000
  C   C26       1.0  0.95090  0.62878  0.69868  1.0000
  C   C27       1.0  0.91508  0.30884  0.25395  1.0000
  C   C28       1.0  0.08492  0.69115  0.74605  1.0000
  C   C29       1.0  0.06700  0.94890  0.51149  1.0000
  C   C30       1.0  0.93300  0.05110  0.48851  1.0000
  N   N1        1.0  0.83010  0.91232  0.17655  1.0000
  N   N2        1.0  0.16989  0.08769  0.82345  1.0000
  N   N3        1.0  0.12895  0.65018  0.97851  1.0000
  N   N4        1.0  0.87105  0.34982  0.02148  1.0000
  N   N5        1.0  0.10332  0.73772  0.42116  1.0000
  N   N6        1.0  0.89668  0.26228  0.57884  1.0000
  O   O1        1.0  0.51385  0.01404  0.33383  1.0000
  O   O2        1.0  0.48615  0.98596  0.66617  1.0000
  O   O3        1.0  0.73964  0.88285  0.36513  1.0000
  O   O4        1.0  0.26036  0.11715  0.63487  1.0000
  O   O5        1.0  0.22497  0.09027  0.15895  1.0000
  O   O6        1.0  0.77502  0.90973  0.84104  1.0000
  O   O7        1.0  0.08101  0.98145  0.28069  1.0000
  O   O8        1.0  0.91900  0.01855  0.71931  1.0000
  O   O9        1.0  0.22820  0.43993  0.08699  1.0000
  O   O10       1.0  0.77180  0.56007  0.91301  1.0000
  O   O11       1.0  0.47438  0.49630  0.15198  1.0000
  O   O12       1.0  0.52562  0.50371  0.84801  1.0000
  O   O13       1.0  0.74806  0.71372  0.12402  1.0000
  O   O14       1.0  0.25196  0.28628  0.87599  1.0000
  O   O15       1.0  0.87349  0.55724  0.10678  1.0000
  O   O16       1.0  0.12650  0.44276  0.89321  1.0000
  O   O17       1.0  0.43960  0.66412  0.25645  1.0000
  O   O18       1.0  0.56039  0.33588  0.74355  1.0000
  O   O19       1.0  0.18540  0.77645  0.23085  1.0000
  O   O20       1.0  0.81459  0.22354  0.76915  1.0000
  O   O21       1.0  0.84276  0.67757  0.31580  1.0000
  O   O22       1.0  0.15723  0.32243  0.68420  1.0000
  O   O23       1.0  0.72464  0.54929  0.43304  1.0000
  O   O24       1.0  0.27536  0.45071  0.56697  1.0000
  O   O25       1.0  0.99600  0.46477  0.30865  1.0000
  O   O26       1.0  0.00400  0.53523  0.69134  1.0000
  O   O27       1.0  0.20376  0.32021  0.33086  1.0000
  O   O28       1.0  0.79624  0.67979  0.66914  1.0000
  O   O29       1.0  0.75029  0.35117  0.23737  1.0000
  O   O30       1.0  0.24971  0.64884  0.76264  1.0000
  O   O31       1.0  0.97844  0.22360  0.23311  1.0000
  O   O32       1.0  0.02155  0.77640  0.76689  1.0000
  O   O33       1.0  0.22105  0.95630  0.46754  1.0000
  O   O34       1.0  0.77895  0.04370  0.53246  1.0000
  O   O35       1.0  0.01087  0.86452  0.57154  1.0000
  O   O36       1.0  0.98914  0.13548  0.42846  1.0000
  O   O37       1.0  0.43210  0.15404  0.45931  1.0000
  O   O38       1.0  0.56790  0.84595  0.54069  1.0000
  O   O39       1.0  0.44614  0.24616  0.20735  1.0000
  O   O40       1.0  0.55386  0.75384  0.79266  1.0000
  O   O41       1.0  0.49341  0.42188  0.36955  1.0000
  O   O42       1.0  0.50659  0.57812  0.63045  1.0000
