data_image0
_chemical_formula_structural       Dy2NiH14C12N2O18
_chemical_formula_sum              "Dy2 Ni1 H14 C12 N2 O18"
_cell_length_a       6.98069
_cell_length_b       8.2031
_cell_length_c       9.17401
_cell_angle_alpha    95.1421
_cell_angle_beta     90.9529
_cell_angle_gamma    83.9983

_space_group_name_H-M_alt    "P 1"
_space_group_IT_number       1

loop_
  _space_group_symop_operation_xyz
  'x, y, z'

loop_
  _atom_site_type_symbol
  _atom_site_label
  _atom_site_symmetry_multiplicity
  _atom_site_fract_x
  _atom_site_fract_y
  _atom_site_fract_z
  _atom_site_occupancy
  Dy  Dy1       1.0  0.29865  0.38412  0.75339  1.0000
  Dy  Dy2       1.0  0.70134  0.61588  0.24661  1.0000
  Ni  Ni1       1.0  0.00000  0.99999  0.00000  1.0000
  H   H1        1.0  0.00944  0.89143  0.58039  1.0000
  H   H2        1.0  0.99056  0.10855  0.41961  1.0000
  H   H3        1.0  0.19997  0.84353  0.70283  1.0000
  H   H4        1.0  0.80004  0.15643  0.29720  1.0000
  H   H5        1.0  0.93302  0.77952  0.80765  1.0000
  H   H6        1.0  0.06694  0.22048  0.19236  1.0000
  H   H7        1.0  0.63256  0.87510  0.76438  1.0000
  H   H8        1.0  0.36742  0.12494  0.23560  1.0000
  H   H9        1.0  0.71987  0.02160  0.66039  1.0000
  H   H10       1.0  0.28017  0.97844  0.33963  1.0000
  H   H11       1.0  0.56823  0.61487  0.87730  1.0000
  H   H12       1.0  0.43175  0.38513  0.12271  1.0000
  H   H13       1.0  0.36147  0.71433  0.89245  1.0000
  H   H14       1.0  0.63852  0.28567  0.10755  1.0000
  C   C1        1.0  0.06898  0.92725  0.68881  1.0000
  C   C2        1.0  0.93104  0.07272  0.31118  1.0000
  C   C3        1.0  0.12535  0.10064  0.69552  1.0000
  C   C4        1.0  0.87467  0.89934  0.30448  1.0000
  C   C5        1.0  0.72951  0.97305  0.76830  1.0000
  C   C6        1.0  0.27050  0.02696  0.23170  1.0000
  C   C7        1.0  0.65595  0.10645  0.88289  1.0000
  C   C8        1.0  0.34407  0.89357  0.11712  1.0000
  C   C9        1.0  0.06698  0.46189  0.05842  1.0000
  C   C10       1.0  0.93298  0.53808  0.94157  1.0000
  C   C11       1.0  0.40358  0.54925  0.47834  1.0000
  C   C12       1.0  0.59642  0.45076  0.52166  1.0000
  N   N1        1.0  0.92938  0.90535  0.80346  1.0000
  N   N2        1.0  0.07062  0.09465  0.19654  1.0000
  O   O1        1.0  0.07124  0.20179  0.80456  1.0000
  O   O2        1.0  0.92876  0.79818  0.19542  1.0000
  O   O3        1.0  0.23182  0.14089  0.59589  1.0000
  O   O4        1.0  0.76823  0.85912  0.40411  1.0000
  O   O5        1.0  0.49945  0.19260  0.86700  1.0000
  O   O6        1.0  0.50057  0.80742  0.13300  1.0000
  O   O7        1.0  0.75875  0.12477  0.00116  1.0000
  O   O8        1.0  0.24126  0.87525  0.99884  1.0000
  O   O9        1.0  0.23957  0.42026  0.01969  1.0000
  O   O10       1.0  0.76041  0.57973  0.98029  1.0000
  O   O11       1.0  0.99433  0.44377  0.18092  1.0000
  O   O12       1.0  0.00566  0.55622  0.81907  1.0000
  O   O13       1.0  0.25493  0.52983  0.54965  1.0000
  O   O14       1.0  0.74507  0.47018  0.45035  1.0000
  O   O15       1.0  0.41154  0.64144  0.37558  1.0000
  O   O16       1.0  0.58846  0.35858  0.62443  1.0000
  O   O17       1.0  0.43901  0.62889  0.82820  1.0000
  O   O18       1.0  0.56096  0.37111  0.17181  1.0000
