data_image0
_chemical_formula_structural       Zn4H32C8Br8N8
_chemical_formula_sum              "Zn4 H32 C8 Br8 N8"
_cell_length_a       7.19913
_cell_length_b       9.86618
_cell_length_c       11.3407
_cell_angle_alpha    115.763
_cell_angle_beta     108.518
_cell_angle_gamma    89.9996

_space_group_name_H-M_alt    "P 1"
_space_group_IT_number       1

loop_
  _space_group_symop_operation_xyz
  'x, y, z'

loop_
  _atom_site_type_symbol
  _atom_site_label
  _atom_site_symmetry_multiplicity
  _atom_site_fract_x
  _atom_site_fract_y
  _atom_site_fract_z
  _atom_site_occupancy
  Zn  Zn1       1.0  0.92417  0.78173  0.50011  1.0000
  Zn  Zn2       1.0  0.07592  0.28153  0.49993  1.0000
  Zn  Zn3       1.0  0.50012  0.31097  0.00007  1.0000
  Zn  Zn4       1.0  0.99994  0.81082  0.00001  1.0000
  H   H1        1.0  0.03556  0.00353  0.75230  1.0000
  H   H2        1.0  0.96434  0.25110  0.24769  1.0000
  H   H3        1.0  0.78348  0.75122  0.24778  1.0000
  H   H4        1.0  0.21660  0.50348  0.75218  1.0000
  H   H5        1.0  0.91956  0.06928  0.63993  1.0000
  H   H6        1.0  0.08008  0.42921  0.35989  1.0000
  H   H7        1.0  0.77985  0.92928  0.35999  1.0000
  H   H8        1.0  0.22008  0.56916  0.63977  1.0000
  H   H9        1.0  0.52842  0.02799  0.87119  1.0000
  H   H10       1.0  0.47148  0.15690  0.12897  1.0000
  H   H11       1.0  0.15755  0.65684  0.12900  1.0000
  H   H12       1.0  0.84257  0.52791  0.87103  1.0000
  H   H13       1.0  0.41476  0.08315  0.75154  1.0000
  H   H14       1.0  0.58527  0.33162  0.24858  1.0000
  H   H15       1.0  0.16328  0.83157  0.24854  1.0000
  H   H16       1.0  0.83668  0.58318  0.75147  1.0000
  H   H17       1.0  0.73189  0.88067  0.72765  1.0000
  H   H18       1.0  0.26804  0.15309  0.27236  1.0000
  H   H19       1.0  0.50445  0.65302  0.27238  1.0000
  H   H20       1.0  0.49565  0.38067  0.72756  1.0000
  H   H21       1.0  0.60223  0.94229  0.60441  1.0000
  H   H22       1.0  0.39767  0.33781  0.39569  1.0000
  H   H23       1.0  0.49821  0.83773  0.39576  1.0000
  H   H24       1.0  0.50189  0.44218  0.60424  1.0000
  H   H25       1.0  0.84506  0.15544  0.91238  1.0000
  H   H26       1.0  0.15497  0.24332  0.08771  1.0000
  H   H27       1.0  0.43285  0.74352  0.08786  1.0000
  H   H28       1.0  0.56712  0.65551  0.91216  1.0000
  H   H29       1.0  0.72283  0.21537  0.78559  1.0000
  H   H30       1.0  0.27725  0.42991  0.21449  1.0000
  H   H31       1.0  0.43725  0.93000  0.21475  1.0000
  H   H32       1.0  0.56262  0.71527  0.78528  1.0000
  C   C1        1.0  0.73300  0.97358  0.69899  1.0000
  C   C2        1.0  0.26694  0.27465  0.30105  1.0000
  C   C3        1.0  0.53422  0.77461  0.30111  1.0000
  C   C4        1.0  0.46581  0.47356  0.69885  1.0000
  C   C5        1.0  0.71906  0.12324  0.81491  1.0000
  C   C6        1.0  0.28098  0.30849  0.18518  1.0000
  C   C7        1.0  0.40427  0.80853  0.18532  1.0000
  C   C8        1.0  0.59567  0.62319  0.81469  1.0000
  Br  Br1       1.0  0.24086  0.70726  0.49978  1.0000
  Br  Br2       1.0  0.75896  0.20727  0.49978  1.0000
  Br  Br3       1.0  0.74898  0.57154  0.49990  1.0000
  Br  Br4       1.0  0.25124  0.07146  0.49973  1.0000
  Br  Br5       1.0  0.80143  0.48664  0.09072  1.0000
  Br  Br6       1.0  0.19921  0.39657  0.90959  1.0000
  Br  Br7       1.0  0.21028  0.89639  0.90946  1.0000
  Br  Br8       1.0  0.78953  0.98661  0.09072  1.0000
  N   N1        1.0  0.91352  0.98124  0.66519  1.0000
  N   N2        1.0  0.08635  0.31599  0.33477  1.0000
  N   N3        1.0  0.74856  0.81603  0.33485  1.0000
  N   N4        1.0  0.25145  0.48114  0.66505  1.0000
  N   N5        1.0  0.53316  0.11371  0.84317  1.0000
  N   N6        1.0  0.46685  0.27060  0.15693  1.0000
  N   N7        1.0  0.19011  0.77054  0.15695  1.0000
  N   N8        1.0  0.80987  0.61366  0.84305  1.0000
