data_image0
_chemical_formula_structural       Zn4H24C32O20
_chemical_formula_sum              "Zn4 H24 C32 O20"
_cell_length_a       5.89729
_cell_length_b       8.59263
_cell_length_c       16.9389
_cell_angle_alpha    90.0009
_cell_angle_beta     90.0003
_cell_angle_gamma    90.0014

_space_group_name_H-M_alt    "P 1"
_space_group_IT_number       1

loop_
  _space_group_symop_operation_xyz
  'x, y, z'

loop_
  _atom_site_type_symbol
  _atom_site_label
  _atom_site_symmetry_multiplicity
  _atom_site_fract_x
  _atom_site_fract_y
  _atom_site_fract_z
  _atom_site_occupancy
  Zn  Zn1       1.0  0.41095  0.84213  0.68538  1.0000
  Zn  Zn2       1.0  0.58905  0.15787  0.18538  1.0000
  Zn  Zn3       1.0  0.41095  0.65787  0.18539  1.0000
  Zn  Zn4       1.0  0.58906  0.34214  0.68539  1.0000
  H   H1        1.0  0.51357  0.84425  0.94251  1.0000
  H   H2        1.0  0.48642  0.15574  0.44252  1.0000
  H   H3        1.0  0.51359  0.65573  0.44251  1.0000
  H   H4        1.0  0.48641  0.34425  0.94252  1.0000
  H   H5        1.0  0.10602  0.05430  0.83870  1.0000
  H   H6        1.0  0.89398  0.94571  0.33871  1.0000
  H   H7        1.0  0.10604  0.44571  0.33871  1.0000
  H   H8        1.0  0.89398  0.55431  0.83872  1.0000
  H   H9        1.0  0.26146  0.10483  0.97333  1.0000
  H   H10       1.0  0.73853  0.89516  0.47333  1.0000
  H   H11       1.0  0.26146  0.39517  0.47334  1.0000
  H   H12       1.0  0.73855  0.60483  0.97335  1.0000
  H   H13       1.0  0.04595  0.02525  0.09126  1.0000
  H   H14       1.0  0.95404  0.97474  0.59126  1.0000
  H   H15       1.0  0.04594  0.47473  0.59127  1.0000
  H   H16       1.0  0.95409  0.52526  0.09128  1.0000
  H   H17       1.0  0.99030  0.80416  0.71122  1.0000
  H   H18       1.0  0.00970  0.19583  0.21123  1.0000
  H   H19       1.0  0.99029  0.69585  0.21122  1.0000
  H   H20       1.0  0.00971  0.30416  0.71124  1.0000
  H   H21       1.0  0.11095  0.63165  0.71312  1.0000
  H   H22       1.0  0.88904  0.36834  0.21312  1.0000
  H   H23       1.0  0.11097  0.86836  0.21311  1.0000
  H   H24       1.0  0.88903  0.13164  0.71313  1.0000
  C   C1        1.0  0.64844  0.86501  0.09514  1.0000
  C   C2        1.0  0.35156  0.13500  0.59514  1.0000
  C   C3        1.0  0.64843  0.63498  0.59514  1.0000
  C   C4        1.0  0.35158  0.36501  0.09514  1.0000
  C   C5        1.0  0.76536  0.93003  0.02466  1.0000
  C   C6        1.0  0.23462  0.06998  0.52466  1.0000
  C   C7        1.0  0.76536  0.56996  0.52466  1.0000
  C   C8        1.0  0.23465  0.43003  0.02467  1.0000
  C   C9        1.0  0.67570  0.90353  0.94940  1.0000
  C   C10       1.0  0.32429  0.09647  0.44940  1.0000
  C   C11       1.0  0.67572  0.59647  0.44940  1.0000
  C   C12       1.0  0.32430  0.40353  0.94940  1.0000
  C   C13       1.0  0.79598  0.95096  0.88238  1.0000
  C   C14       1.0  0.20401  0.04903  0.38238  1.0000
  C   C15       1.0  0.79599  0.54901  0.38238  1.0000
  C   C16       1.0  0.20401  0.45099  0.88239  1.0000
  C   C17       1.0  0.00860  0.02271  0.89098  1.0000
  C   C18       1.0  0.99140  0.97729  0.39098  1.0000
  C   C19       1.0  0.00860  0.47728  0.39098  1.0000
  C   C20       1.0  0.99142  0.52273  0.89099  1.0000
  C   C21       1.0  0.09645  0.05010  0.96598  1.0000
  C   C22       1.0  0.90353  0.94990  0.46598  1.0000
  C   C23       1.0  0.09647  0.44990  0.46598  1.0000
  C   C24       1.0  0.90355  0.55010  0.96599  1.0000
  C   C25       1.0  0.97465  0.00575  0.03284  1.0000
  C   C26       1.0  0.02532  0.99428  0.53285  1.0000
  C   C27       1.0  0.97466  0.49425  0.53285  1.0000
  C   C28       1.0  0.02536  0.50575  0.03286  1.0000
  C   C29       1.0  0.70440  0.91747  0.80236  1.0000
  C   C30       1.0  0.29558  0.08253  0.30237  1.0000
  C   C31       1.0  0.70443  0.58253  0.30237  1.0000
  C   C32       1.0  0.29558  0.41749  0.80237  1.0000
  O   O1        1.0  0.55186  0.73272  0.08665  1.0000
  O   O2        1.0  0.44814  0.26728  0.58666  1.0000
  O   O3        1.0  0.55187  0.76727  0.58665  1.0000
  O   O4        1.0  0.44813  0.23272  0.08665  1.0000
  O   O5        1.0  0.65092  0.93397  0.16201  1.0000
  O   O6        1.0  0.34907  0.06603  0.66202  1.0000
  O   O7        1.0  0.65092  0.56605  0.66202  1.0000
  O   O8        1.0  0.34911  0.43395  0.16202  1.0000
  O   O9        1.0  0.50878  0.85318  0.79706  1.0000
  O   O10       1.0  0.49120  0.14682  0.29706  1.0000
  O   O11       1.0  0.50880  0.64681  0.29706  1.0000
  O   O12       1.0  0.49121  0.35321  0.79705  1.0000
  O   O13       1.0  0.82275  0.95000  0.74114  1.0000
  O   O14       1.0  0.17723  0.04998  0.24114  1.0000
  O   O15       1.0  0.82279  0.54998  0.24114  1.0000
  O   O16       1.0  0.17721  0.45002  0.74115  1.0000
  O   O17       1.0  0.10950  0.73637  0.68748  1.0000
  O   O18       1.0  0.89050  0.26362  0.18749  1.0000
  O   O19       1.0  0.10950  0.76364  0.18748  1.0000
  O   O20       1.0  0.89050  0.23637  0.68750  1.0000
