data_image0
_chemical_formula_structural       K2H44C34N6O12
_chemical_formula_sum              "K2 H44 C34 N6 O12"
_cell_length_a       7.36325
_cell_length_b       8.21683
_cell_length_c       14.994
_cell_angle_alpha    92.7103
_cell_angle_beta     90
_cell_angle_gamma    89.9999

_space_group_name_H-M_alt    "P 1"
_space_group_IT_number       1

loop_
  _space_group_symop_operation_xyz
  'x, y, z'

loop_
  _atom_site_type_symbol
  _atom_site_label
  _atom_site_symmetry_multiplicity
  _atom_site_fract_x
  _atom_site_fract_y
  _atom_site_fract_z
  _atom_site_occupancy
  K   K1        1.0  0.72554  0.03871  0.90988  1.0000
  K   K2        1.0  0.22553  0.96129  0.09012  1.0000
  H   H1        1.0  0.70474  0.43854  0.94929  1.0000
  H   H2        1.0  0.20474  0.56146  0.05071  1.0000
  H   H3        1.0  0.54763  0.88566  0.68650  1.0000
  H   H4        1.0  0.04763  0.11434  0.31350  1.0000
  H   H5        1.0  0.08249  0.73727  0.92005  1.0000
  H   H6        1.0  0.58249  0.26273  0.07995  1.0000
  H   H7        1.0  0.90801  0.72135  0.97831  1.0000
  H   H8        1.0  0.40801  0.27865  0.02169  1.0000
  H   H9        1.0  0.40820  0.73790  0.93521  1.0000
  H   H10       1.0  0.90820  0.26210  0.06479  1.0000
  H   H11       1.0  0.57856  0.72859  0.99648  1.0000
  H   H12       1.0  0.07856  0.27141  0.00352  1.0000
  H   H13       1.0  0.84657  0.30973  0.78573  1.0000
  H   H14       1.0  0.34657  0.69027  0.21427  1.0000
  H   H15       1.0  0.92572  0.47359  0.85622  1.0000
  H   H16       1.0  0.42572  0.52641  0.14378  1.0000
  H   H17       1.0  0.57164  0.48901  0.74940  1.0000
  H   H18       1.0  0.07164  0.51099  0.25060  1.0000
  H   H19       1.0  0.68050  0.65224  0.80788  1.0000
  H   H20       1.0  0.18051  0.34776  0.19212  1.0000
  H   H21       1.0  0.90516  0.97483  0.65875  1.0000
  H   H22       1.0  0.40516  0.02518  0.34125  1.0000
  H   H23       1.0  0.76307  0.84314  0.59265  1.0000
  H   H24       1.0  0.26307  0.15686  0.40735  1.0000
  H   H25       1.0  0.04275  0.71042  0.65795  1.0000
  H   H26       1.0  0.54275  0.28958  0.34205  1.0000
  H   H27       1.0  0.95260  0.75136  0.76583  1.0000
  H   H28       1.0  0.45260  0.24864  0.23417  1.0000
  H   H29       1.0  0.98831  0.61545  0.53458  1.0000
  H   H30       1.0  0.48830  0.38454  0.46541  1.0000
  H   H31       1.0  0.00008  0.41561  0.40903  1.0000
  H   H32       1.0  0.50008  0.58439  0.59097  1.0000
  H   H33       1.0  0.65128  0.09319  0.54813  1.0000
  H   H34       1.0  0.15128  0.90681  0.45187  1.0000
  H   H35       1.0  0.64024  0.28568  0.67614  1.0000
  H   H36       1.0  0.14024  0.71432  0.32386  1.0000
  H   H37       1.0  0.78143  0.07199  0.22717  1.0000
  H   H38       1.0  0.28143  0.92801  0.77283  1.0000
  H   H39       1.0  0.77765  0.86751  0.10005  1.0000
  H   H40       1.0  0.27765  0.13249  0.89995  1.0000
  H   H41       1.0  0.73542  0.48009  0.28149  1.0000
  H   H42       1.0  0.23542  0.51991  0.71851  1.0000
  H   H43       1.0  0.72999  0.68565  0.41058  1.0000
  H   H44       1.0  0.22999  0.31435  0.58942  1.0000
  C   C1        1.0  0.80246  0.41633  0.82768  1.0000
  C   C2        1.0  0.30246  0.58367  0.17232  1.0000
  C   C3        1.0  0.70519  0.53755  0.76952  1.0000
  C   C4        1.0  0.20519  0.46245  0.23048  1.0000
  C   C5        1.0  0.81115  0.87095  0.66128  1.0000
  C   C6        1.0  0.31115  0.12905  0.33872  1.0000
  C   C7        1.0  0.91545  0.72579  0.69551  1.0000
  C   C8        1.0  0.41545  0.27421  0.30449  1.0000
  C   C9        1.0  0.81825  0.46711  0.61862  1.0000
  C   C10       1.0  0.31825  0.53289  0.38138  1.0000
  C   C11       1.0  0.91702  0.50046  0.54000  1.0000
  C   C12       1.0  0.41702  0.49954  0.46000  1.0000
  C   C13       1.0  0.92365  0.38808  0.46860  1.0000
  C   C14       1.0  0.42366  0.61191  0.53140  1.0000
  C   C15       1.0  0.83168  0.23805  0.47032  1.0000
  C   C16       1.0  0.33168  0.76195  0.52968  1.0000
  C   C17       1.0  0.72713  0.20655  0.54684  1.0000
  C   C18       1.0  0.22713  0.79345  0.45316  1.0000
  C   C19       1.0  0.72105  0.31636  0.61871  1.0000
  C   C20       1.0  0.22105  0.68364  0.38129  1.0000
  C   C21       1.0  0.76325  0.89031  0.32747  1.0000
  C   C22       1.0  0.26325  0.10969  0.67253  1.0000
  C   C23       1.0  0.77344  0.94231  0.23919  1.0000
  C   C24       1.0  0.27344  0.05769  0.76081  1.0000
  C   C25       1.0  0.77039  0.82758  0.16818  1.0000
  C   C26       1.0  0.27039  0.17242  0.83182  1.0000
  C   C27       1.0  0.75966  0.66029  0.18313  1.0000
  C   C28       1.0  0.25966  0.33971  0.81687  1.0000
  C   C29       1.0  0.74543  0.61003  0.27100  1.0000
  C   C30       1.0  0.24542  0.38996  0.72900  1.0000
  C   C31       1.0  0.74322  0.72346  0.34229  1.0000
  C   C32       1.0  0.24322  0.27654  0.65771  1.0000
  C   C33       1.0  0.75709  0.53455  0.10790  1.0000
  C   C34       1.0  0.25709  0.46545  0.89210  1.0000
  N   N1        1.0  0.81217  0.57404  0.69089  1.0000
  N   N2        1.0  0.31217  0.42595  0.30911  1.0000
  N   N3        1.0  0.84678  0.13037  0.39652  1.0000
  N   N4        1.0  0.34678  0.86963  0.60348  1.0000
  N   N5        1.0  0.76348  0.99427  0.40368  1.0000
  N   N6        1.0  0.26348  0.00573  0.59632  1.0000
  O   O1        1.0  0.68655  0.36226  0.89581  1.0000
  O   O2        1.0  0.18655  0.63774  0.10419  1.0000
  O   O3        1.0  0.66173  0.91649  0.71838  1.0000
  O   O4        1.0  0.16173  0.08351  0.28162  1.0000
  O   O5        1.0  0.74853  0.58322  0.02769  1.0000
  O   O6        1.0  0.24852  0.41678  0.97231  1.0000
  O   O7        1.0  0.75886  0.38526  0.12701  1.0000
  O   O8        1.0  0.25886  0.61474  0.87299  1.0000
  O   O9        1.0  0.97869  0.80110  0.94518  1.0000
  O   O10       1.0  0.47869  0.19890  0.05482  1.0000
  O   O11       1.0  0.49466  0.80770  0.97067  1.0000
  O   O12       1.0  0.99466  0.19230  0.02932  1.0000
