data_image0
_chemical_formula_structural       Cu4H16C28N16O4
_chemical_formula_sum              "Cu4 H16 C28 N16 O4"
_cell_length_a       7.79299
_cell_length_b       9.11868
_cell_length_c       11.8032
_cell_angle_alpha    102.095
_cell_angle_beta     89.9993
_cell_angle_gamma    90.0004

_space_group_name_H-M_alt    "P 1"
_space_group_IT_number       1

loop_
  _space_group_symop_operation_xyz
  'x, y, z'

loop_
  _atom_site_type_symbol
  _atom_site_label
  _atom_site_symmetry_multiplicity
  _atom_site_fract_x
  _atom_site_fract_y
  _atom_site_fract_z
  _atom_site_occupancy
  Cu  Cu1       1.0  0.47982  0.74390  0.44761  1.0000
  Cu  Cu2       1.0  0.97986  0.75610  0.05239  1.0000
  Cu  Cu3       1.0  0.52014  0.25610  0.55239  1.0000
  Cu  Cu4       1.0  0.02017  0.24390  0.94761  1.0000
  H   H1        1.0  0.52250  0.09007  0.73609  1.0000
  H   H2        1.0  0.02253  0.40993  0.76391  1.0000
  H   H3        1.0  0.47747  0.90992  0.26390  1.0000
  H   H4        1.0  0.97750  0.59007  0.23610  1.0000
  H   H5        1.0  0.62525  0.01009  0.93998  1.0000
  H   H6        1.0  0.12524  0.48991  0.56002  1.0000
  H   H7        1.0  0.37476  0.98991  0.06001  1.0000
  H   H8        1.0  0.87476  0.51009  0.43999  1.0000
  H   H9        1.0  0.63253  0.70289  0.88667  1.0000
  H   H10       1.0  0.13252  0.79711  0.61333  1.0000
  H   H11       1.0  0.36748  0.29711  0.11333  1.0000
  H   H12       1.0  0.86748  0.20289  0.38667  1.0000
  H   H13       1.0  0.55672  0.49376  0.67871  1.0000
  H   H14       1.0  0.05673  0.00624  0.82129  1.0000
  H   H15       1.0  0.44327  0.50623  0.32129  1.0000
  H   H16       1.0  0.94329  0.99376  0.17872  1.0000
  C   C1        1.0  0.54381  0.98240  0.75887  1.0000
  C   C2        1.0  0.04384  0.51759  0.74113  1.0000
  C   C3        1.0  0.45616  0.01759  0.24113  1.0000
  C   C4        1.0  0.95618  0.48241  0.25887  1.0000
  C   C5        1.0  0.59322  0.93711  0.85783  1.0000
  C   C6        1.0  0.09323  0.56289  0.64217  1.0000
  C   C7        1.0  0.40678  0.06288  0.14216  1.0000
  C   C8        1.0  0.90678  0.43711  0.35784  1.0000
  C   C9        1.0  0.59763  0.77787  0.83021  1.0000
  C   C10       1.0  0.09763  0.72213  0.66979  1.0000
  C   C11       1.0  0.40237  0.22213  0.16979  1.0000
  C   C12       1.0  0.90238  0.27787  0.33021  1.0000
  C   C13       1.0  0.55203  0.73467  0.71459  1.0000
  C   C14       1.0  0.05205  0.76532  0.78541  1.0000
  C   C15       1.0  0.44795  0.26532  0.28541  1.0000
  C   C16       1.0  0.94798  0.23468  0.21459  1.0000
  C   C17       1.0  0.53875  0.59204  0.63981  1.0000
  C   C18       1.0  0.03878  0.90795  0.86019  1.0000
  C   C19       1.0  0.46123  0.40795  0.36019  1.0000
  C   C20       1.0  0.96125  0.09205  0.13981  1.0000
  C   C21       1.0  0.12581  0.84705  0.38742  1.0000
  C   C22       1.0  0.62584  0.65295  0.11258  1.0000
  C   C23       1.0  0.87415  0.15295  0.61258  1.0000
  C   C24       1.0  0.37420  0.34704  0.88742  1.0000
  C   C25       1.0  0.83220  0.84957  0.38516  1.0000
  C   C26       1.0  0.33223  0.65044  0.11484  1.0000
  C   C27       1.0  0.16776  0.15043  0.61484  1.0000
  C   C28       1.0  0.66781  0.34956  0.88516  1.0000
  N   N1        1.0  0.50505  0.57471  0.52886  1.0000
  N   N2        1.0  0.00508  0.92529  0.97115  1.0000
  N   N3        1.0  0.49492  0.42529  0.47115  1.0000
  N   N4        1.0  0.99495  0.07471  0.02886  1.0000
  N   N5        1.0  0.26444  0.80965  0.40951  1.0000
  N   N6        1.0  0.76448  0.69036  0.09049  1.0000
  N   N7        1.0  0.73551  0.19036  0.59049  1.0000
  N   N8        1.0  0.23556  0.30964  0.90951  1.0000
  N   N9        1.0  0.69091  0.81521  0.40358  1.0000
  N   N10       1.0  0.19094  0.68479  0.09642  1.0000
  N   N11       1.0  0.30904  0.18479  0.59642  1.0000
  N   N12       1.0  0.80909  0.31521  0.90358  1.0000
  N   N13       1.0  0.98041  0.89715  0.35812  1.0000
  N   N14       1.0  0.48044  0.60286  0.14189  1.0000
  N   N15       1.0  0.01954  0.10286  0.64188  1.0000
  N   N16       1.0  0.51959  0.39714  0.85811  1.0000
  O   O1        1.0  0.51833  0.86117  0.67083  1.0000
  O   O2        1.0  0.01837  0.63883  0.82918  1.0000
  O   O3        1.0  0.48164  0.13882  0.32917  1.0000
  O   O4        1.0  0.98167  0.36118  0.17083  1.0000
