data_image0
_chemical_formula_structural       CdH28C28N10O6
_chemical_formula_sum              "Cd1 H28 C28 N10 O6"
_cell_length_a       8.87477
_cell_length_b       8.84553
_cell_length_c       10.0209
_cell_angle_alpha    70.549
_cell_angle_beta     84.9704
_cell_angle_gamma    76.6825

_space_group_name_H-M_alt    "P 1"
_space_group_IT_number       1

loop_
  _space_group_symop_operation_xyz
  'x, y, z'

loop_
  _atom_site_type_symbol
  _atom_site_label
  _atom_site_symmetry_multiplicity
  _atom_site_fract_x
  _atom_site_fract_y
  _atom_site_fract_z
  _atom_site_occupancy
  Cd  Cd1       1.0  0.00000  1.00000  0.00000  1.0000
  H   H1        1.0  0.81712  0.33458  0.10257  1.0000
  H   H2        1.0  0.18288  0.66542  0.89743  1.0000
  H   H3        1.0  0.39397  0.17525  0.16766  1.0000
  H   H4        1.0  0.60603  0.82475  0.83234  1.0000
  H   H5        1.0  0.61922  0.95839  0.06759  1.0000
  H   H6        1.0  0.38078  0.04161  0.93241  1.0000
  H   H7        1.0  0.42876  0.51807  0.11754  1.0000
  H   H8        1.0  0.57124  0.48193  0.88246  1.0000
  H   H9        1.0  0.60706  0.49959  0.19409  1.0000
  H   H10       1.0  0.39294  0.50041  0.80591  1.0000
  H   H11       1.0  0.20936  0.46144  0.24598  1.0000
  H   H12       1.0  0.79064  0.53856  0.75402  1.0000
  H   H13       1.0  0.07121  0.36961  0.47313  1.0000
  H   H14       1.0  0.92879  0.63039  0.52687  1.0000
  H   H15       1.0  0.22189  0.22846  0.69739  1.0000
  H   H16       1.0  0.77811  0.77154  0.30261  1.0000
  H   H17       1.0  0.50725  0.19179  0.69076  1.0000
  H   H18       1.0  0.49275  0.80821  0.30924  1.0000
  H   H19       1.0  0.74746  0.26812  0.36376  1.0000
  H   H20       1.0  0.25254  0.73188  0.63625  1.0000
  H   H21       1.0  0.72418  0.40403  0.46124  1.0000
  H   H22       1.0  0.27582  0.59596  0.53876  1.0000
  H   H23       1.0  0.82474  0.29137  0.70932  1.0000
  H   H24       1.0  0.17526  0.70862  0.29068  1.0000
  H   H25       1.0  0.76924  0.94766  0.51810  1.0000
  H   H26       1.0  0.23076  0.05234  0.48189  1.0000
  H   H27       1.0  0.92049  0.78198  0.77480  1.0000
  H   H28       1.0  0.07952  0.21801  0.22520  1.0000
  C   C1        1.0  0.73584  0.25873  0.10493  1.0000
  C   C2        1.0  0.26416  0.74127  0.89507  1.0000
  C   C3        1.0  0.51479  0.17368  0.13972  1.0000
  C   C4        1.0  0.48521  0.82632  0.86028  1.0000
  C   C5        1.0  0.62602  0.06886  0.08942  1.0000
  C   C6        1.0  0.37398  0.93115  0.91057  1.0000
  C   C7        1.0  0.51496  0.43460  0.19580  1.0000
  C   C8        1.0  0.48505  0.56540  0.80420  1.0000
  C   C9        1.0  0.43671  0.38203  0.33860  1.0000
  C   C10       1.0  0.56329  0.61797  0.66141  1.0000
  C   C11       1.0  0.27530  0.40377  0.34380  1.0000
  C   C12       1.0  0.72471  0.59624  0.65620  1.0000
  C   C13       1.0  0.19694  0.35168  0.47224  1.0000
  C   C14       1.0  0.80306  0.64832  0.52776  1.0000
  C   C15       1.0  0.28110  0.27403  0.59694  1.0000
  C   C16       1.0  0.71890  0.72597  0.40306  1.0000
  C   C17       1.0  0.44234  0.25259  0.59279  1.0000
  C   C18       1.0  0.55765  0.74741  0.40721  1.0000
  C   C19       1.0  0.52169  0.30655  0.46485  1.0000
  C   C20       1.0  0.47831  0.69345  0.53515  1.0000
  C   C21       1.0  0.69584  0.28945  0.46103  1.0000
  C   C22       1.0  0.30416  0.71055  0.53897  1.0000
  C   C23       1.0  0.83034  0.17391  0.69530  1.0000
  C   C24       1.0  0.16965  0.82608  0.30471  1.0000
  C   C25       1.0  0.80391  0.99219  0.59652  1.0000
  C   C26       1.0  0.19609  0.00781  0.40348  1.0000
  C   C27       1.0  0.87787  0.91247  0.72396  1.0000
  C   C28       1.0  0.12213  0.08753  0.27604  1.0000
  N   N1        1.0  0.76291  0.12307  0.06876  1.0000
  N   N2        1.0  0.23709  0.87693  0.93124  1.0000
  N   N3        1.0  0.58628  0.29306  0.14898  1.0000
  N   N4        1.0  0.41372  0.70694  0.85102  1.0000
  N   N5        1.0  0.77501  0.15756  0.57987  1.0000
  N   N6        1.0  0.22499  0.84243  0.42013  1.0000
  N   N7        1.0  0.89342  0.02746  0.78445  1.0000
  N   N8        1.0  0.10658  0.97254  0.21555  1.0000
  N   N9        1.0  0.10462  0.37926  0.87499  1.0000
  N   N10       1.0  0.89538  0.62074  0.12501  1.0000
  O   O1        1.0  0.00459  0.29492  0.87504  1.0000
  O   O2        1.0  0.99541  0.70508  0.12496  1.0000
  O   O3        1.0  0.07915  0.52897  0.79962  1.0000
  O   O4        1.0  0.92085  0.47103  0.20038  1.0000
  O   O5        1.0  0.22562  0.31304  0.94727  1.0000
  O   O6        1.0  0.77438  0.68696  0.05273  1.0000
