data_image0
_chemical_formula_structural       Cd2H32C40N12O8
_chemical_formula_sum              "Cd2 H32 C40 N12 O8"
_cell_length_a       7.72859
_cell_length_b       10.0961
_cell_length_c       12.4478
_cell_angle_alpha    90.5396
_cell_angle_beta     105.424
_cell_angle_gamma    93.041

_space_group_name_H-M_alt    "P 1"
_space_group_IT_number       1

loop_
  _space_group_symop_operation_xyz
  'x, y, z'

loop_
  _atom_site_type_symbol
  _atom_site_label
  _atom_site_symmetry_multiplicity
  _atom_site_fract_x
  _atom_site_fract_y
  _atom_site_fract_z
  _atom_site_occupancy
  Cd  Cd1       1.0  0.80698  0.96463  0.37227  1.0000
  Cd  Cd2       1.0  0.19302  0.03537  0.62773  1.0000
  H   H1        1.0  0.94663  0.09003  0.14333  1.0000
  H   H2        1.0  0.05337  0.90996  0.85666  1.0000
  H   H3        1.0  0.82114  0.95966  0.93411  1.0000
  H   H4        1.0  0.17886  0.04034  0.06589  1.0000
  H   H5        1.0  0.50280  0.83190  0.14692  1.0000
  H   H6        1.0  0.49719  0.16811  0.85308  1.0000
  H   H7        1.0  0.61031  0.77537  0.86423  1.0000
  H   H8        1.0  0.38969  0.22463  0.13577  1.0000
  H   H9        1.0  0.40314  0.80758  0.89108  1.0000
  H   H10       1.0  0.59686  0.19242  0.10892  1.0000
  H   H11       1.0  0.30579  0.57755  0.82258  1.0000
  H   H12       1.0  0.69421  0.42245  0.17742  1.0000
  H   H13       1.0  0.73048  0.65350  0.12399  1.0000
  H   H14       1.0  0.26952  0.34650  0.87601  1.0000
  H   H15       1.0  0.77136  0.61759  0.43178  1.0000
  H   H16       1.0  0.22864  0.38241  0.56822  1.0000
  H   H17       1.0  0.10221  0.82699  0.26140  1.0000
  H   H18       1.0  0.89779  0.17301  0.73861  1.0000
  H   H19       1.0  0.97705  0.43693  0.35148  1.0000
  H   H20       1.0  0.02296  0.56307  0.64852  1.0000
  H   H21       1.0  0.25235  0.47709  0.27439  1.0000
  H   H22       1.0  0.74766  0.52291  0.72561  1.0000
  H   H23       1.0  0.30478  0.64158  0.23687  1.0000
  H   H24       1.0  0.69522  0.35842  0.76313  1.0000
  H   H25       1.0  0.11769  0.73198  0.05460  1.0000
  H   H26       1.0  0.88231  0.26802  0.94540  1.0000
  H   H27       1.0  0.05218  0.32426  0.14176  1.0000
  H   H28       1.0  0.94782  0.67574  0.85824  1.0000
  H   H29       1.0  0.37370  0.54985  0.49782  1.0000
  H   H30       1.0  0.62629  0.45015  0.50218  1.0000
  H   H31       1.0  0.15766  0.71553  0.53059  1.0000
  H   H32       1.0  0.84233  0.28447  0.46941  1.0000
  C   C1        1.0  0.83623  0.01723  0.11210  1.0000
  C   C2        1.0  0.16377  0.98277  0.88790  1.0000
  C   C3        1.0  0.78027  0.95120  0.01073  1.0000
  C   C4        1.0  0.21973  0.04880  0.98927  1.0000
  C   C5        1.0  0.60712  0.88500  0.11835  1.0000
  C   C6        1.0  0.39287  0.11500  0.88165  1.0000
  C   C7        1.0  0.53753  0.77265  0.92910  1.0000
  C   C8        1.0  0.46247  0.22734  0.07089  1.0000
  C   C9        1.0  0.52081  0.63266  0.96890  1.0000
  C   C10       1.0  0.47919  0.36734  0.03110  1.0000
  C   C11       1.0  0.39263  0.54378  0.90043  1.0000
  C   C12       1.0  0.60738  0.45622  0.09957  1.0000
  C   C13       1.0  0.62822  0.58734  0.06916  1.0000
  C   C14       1.0  0.37178  0.41266  0.93085  1.0000
  C   C15       1.0  0.86853  0.63350  0.38364  1.0000
  C   C16       1.0  0.13147  0.36651  0.61636  1.0000
  C   C17       1.0  0.03564  0.74671  0.29632  1.0000
  C   C18       1.0  0.96436  0.25330  0.70368  1.0000
  C   C19       1.0  0.96890  0.54384  0.34614  1.0000
  C   C20       1.0  0.03110  0.45616  0.65386  1.0000
  C   C21       1.0  0.19566  0.56520  0.23065  1.0000
  C   C22       1.0  0.80434  0.43480  0.76935  1.0000
  C   C23       1.0  0.09791  0.53095  0.11058  1.0000
  C   C24       1.0  0.90209  0.46905  0.88942  1.0000
  C   C25       1.0  0.06618  0.62996  0.03084  1.0000
  C   C26       1.0  0.93382  0.37004  0.96916  1.0000
  C   C27       1.0  0.03113  0.40072  0.07885  1.0000
  C   C28       1.0  0.96887  0.59928  0.92115  1.0000
  C   C29       1.0  0.42202  0.64861  0.53331  1.0000
  C   C30       1.0  0.57798  0.35139  0.46669  1.0000
  C   C31       1.0  0.30209  0.73894  0.55117  1.0000
  C   C32       1.0  0.69791  0.26106  0.44883  1.0000
  C   C33       1.0  0.54002  0.89059  0.62382  1.0000
  C   C34       1.0  0.45998  0.10941  0.37618  1.0000
  C   C35       1.0  0.65952  0.79945  0.60208  1.0000
  C   C36       1.0  0.34048  0.20055  0.39792  1.0000
  C   C37       1.0  0.86000  0.83417  0.62573  1.0000
  C   C38       1.0  0.13999  0.16582  0.37427  1.0000
  C   C39       1.0  0.60274  0.02223  0.68559  1.0000
  C   C40       1.0  0.39726  0.97777  0.31441  1.0000
  N   N1        1.0  0.72754  0.97482  0.17860  1.0000
  N   N2        1.0  0.27246  0.02518  0.82140  1.0000
  N   N3        1.0  0.63553  0.86732  0.01628  1.0000
  N   N4        1.0  0.36447  0.13268  0.98372  1.0000
  N   N5        1.0  0.91162  0.75932  0.35206  1.0000
  N   N6        1.0  0.08839  0.24069  0.64794  1.0000
  N   N7        1.0  0.07389  0.61754  0.29158  1.0000
  N   N8        1.0  0.92611  0.38246  0.70842  1.0000
  N   N9        1.0  0.59969  0.67838  0.55810  1.0000
  N   N10       1.0  0.40031  0.32162  0.44190  1.0000
  N   N11       1.0  0.36273  0.85917  0.59603  1.0000
  N   N12       1.0  0.63727  0.14083  0.40397  1.0000
  O   O1        1.0  0.90226  0.93493  0.57239  1.0000
  O   O2        1.0  0.09774  0.06507  0.42761  1.0000
  O   O3        1.0  0.96739  0.76457  0.69047  1.0000
  O   O4        1.0  0.03261  0.23543  0.30953  1.0000
  O   O5        1.0  0.50208  0.11909  0.65810  1.0000
  O   O6        1.0  0.49792  0.88091  0.34190  1.0000
  O   O7        1.0  0.74739  0.02133  0.76160  1.0000
  O   O8        1.0  0.25261  0.97867  0.23840  1.0000
