data_image0
_chemical_formula_structural       K2V2H26C18N10O10
_chemical_formula_sum              "K2 V2 H26 C18 N10 O10"
_cell_length_a       8.4671
_cell_length_b       9.0562
_cell_length_c       9.6678
_cell_angle_alpha    95.7086
_cell_angle_beta     94.9749
_cell_angle_gamma    117.188

_space_group_name_H-M_alt    "P 1"
_space_group_IT_number       1

loop_
  _space_group_symop_operation_xyz
  'x, y, z'

loop_
  _atom_site_type_symbol
  _atom_site_label
  _atom_site_symmetry_multiplicity
  _atom_site_fract_x
  _atom_site_fract_y
  _atom_site_fract_z
  _atom_site_occupancy
  K   K1        1.0  0.19716  0.46846  0.91587  1.0000
  K   K2        1.0  0.80284  0.53155  0.08414  1.0000
  V   V1        1.0  0.15114  0.82715  0.82864  1.0000
  V   V2        1.0  0.84885  0.17285  0.17135  1.0000
  H   H1        1.0  0.00848  0.06103  0.72579  1.0000
  H   H2        1.0  0.99152  0.93898  0.27421  1.0000
  H   H3        1.0  0.10336  0.92549  0.08283  1.0000
  H   H4        1.0  0.89664  0.07451  0.91717  1.0000
  H   H5        1.0  0.39893  0.36504  0.15210  1.0000
  H   H6        1.0  0.60107  0.63496  0.84790  1.0000
  H   H7        1.0  0.19682  0.20070  0.18644  1.0000
  H   H8        1.0  0.80318  0.79930  0.81356  1.0000
  H   H9        1.0  0.78809  0.90168  0.42636  1.0000
  H   H10       1.0  0.21191  0.09832  0.57364  1.0000
  H   H11       1.0  0.66926  0.20007  0.80685  1.0000
  H   H12       1.0  0.33074  0.79993  0.19315  1.0000
  H   H13       1.0  0.93137  0.17669  0.53224  1.0000
  H   H14       1.0  0.06863  0.82331  0.46776  1.0000
  H   H15       1.0  0.84286  0.26534  0.65596  1.0000
  H   H16       1.0  0.15714  0.73466  0.34404  1.0000
  H   H17       1.0  0.11611  0.51098  0.47373  1.0000
  H   H18       1.0  0.88389  0.48903  0.52627  1.0000
  H   H19       1.0  0.23286  0.42957  0.57434  1.0000
  H   H20       1.0  0.76714  0.57043  0.42566  1.0000
  H   H21       1.0  0.25454  0.43770  0.39375  1.0000
  H   H22       1.0  0.74547  0.56230  0.60625  1.0000
  H   H23       1.0  0.46081  0.34047  0.85960  1.0000
  H   H24       1.0  0.53919  0.65953  0.14040  1.0000
  H   H25       1.0  0.46373  0.38041  0.70188  1.0000
  H   H26       1.0  0.53627  0.61959  0.29812  1.0000
  C   C1        1.0  0.30847  0.12870  0.03153  1.0000
  C   C2        1.0  0.69153  0.87130  0.96847  1.0000
  C   C3        1.0  0.40221  0.78971  0.64184  1.0000
  C   C4        1.0  0.59779  0.21029  0.35816  1.0000
  C   C5        1.0  0.39974  0.67617  0.52823  1.0000
  C   C6        1.0  0.60027  0.32384  0.47177  1.0000
  C   C7        1.0  0.68057  0.87327  0.49017  1.0000
  C   C8        1.0  0.31943  0.12673  0.50983  1.0000
  C   C9        1.0  0.69495  0.99416  0.59773  1.0000
  C   C10       1.0  0.30504  0.00584  0.40227  1.0000
  C   C11       1.0  0.54907  0.95433  0.67499  1.0000
  C   C12       1.0  0.45093  0.04567  0.32500  1.0000
  C   C13       1.0  0.55125  0.07605  0.78324  1.0000
  C   C14       1.0  0.44875  0.92395  0.21676  1.0000
  C   C15       1.0  0.86693  0.15759  0.62782  1.0000
  C   C16       1.0  0.13307  0.84241  0.37218  1.0000
  C   C17       1.0  0.24269  0.50451  0.48964  1.0000
  C   C18       1.0  0.75731  0.49549  0.51036  1.0000
  N   N1        1.0  0.18696  0.96571  0.00894  1.0000
  N   N2        1.0  0.81304  0.03429  0.99106  1.0000
  N   N3        1.0  0.44470  0.18161  0.95337  1.0000
  N   N4        1.0  0.55530  0.81840  0.04662  1.0000
  N   N5        1.0  0.41978  0.04996  0.85564  1.0000
  N   N6        1.0  0.58022  0.95004  0.14436  1.0000
  N   N7        1.0  0.30014  0.24053  0.12838  1.0000
  N   N8        1.0  0.69986  0.75947  0.87162  1.0000
  N   N9        1.0  0.53695  0.72028  0.45459  1.0000
  N   N10       1.0  0.46305  0.27972  0.54542  1.0000
  O   O1        1.0  0.26501  0.73382  0.71367  1.0000
  O   O2        1.0  0.73499  0.26618  0.28633  1.0000
  O   O3        1.0  0.98979  0.16234  0.74417  1.0000
  O   O4        1.0  0.01021  0.83766  0.25583  1.0000
  O   O5        1.0  0.02163  0.65134  0.88748  1.0000
  O   O6        1.0  0.97837  0.34866  0.11253  1.0000
  O   O7        1.0  0.02529  0.88098  0.72414  1.0000
  O   O8        1.0  0.97471  0.11903  0.27586  1.0000
  O   O9        1.0  0.45683  0.42445  0.80109  1.0000
  O   O10       1.0  0.54317  0.57555  0.19891  1.0000
