data_image0
_chemical_formula_structural       Nd2Co2H32C24N6O24
_chemical_formula_sum              "Nd2 Co2 H32 C24 N6 O24"
_cell_length_a       8.51112
_cell_length_b       9.70081
_cell_length_c       12.8372
_cell_angle_alpha    67.7993
_cell_angle_beta     81.0051
_cell_angle_gamma    65.5503

_space_group_name_H-M_alt    "P 1"
_space_group_IT_number       1

loop_
  _space_group_symop_operation_xyz
  'x, y, z'

loop_
  _atom_site_type_symbol
  _atom_site_label
  _atom_site_symmetry_multiplicity
  _atom_site_fract_x
  _atom_site_fract_y
  _atom_site_fract_z
  _atom_site_occupancy
  Nd  Nd1       1.0  0.25002  0.50706  0.98578  1.0000
  Nd  Nd2       1.0  0.74998  0.49293  0.01422  1.0000
  Co  Co1       1.0  0.25006  0.66318  0.67361  1.0000
  Co  Co2       1.0  0.74994  0.33683  0.32639  1.0000
  H   H1        1.0  0.07747  0.68976  0.50470  1.0000
  H   H2        1.0  0.42264  0.80557  0.50476  1.0000
  H   H3        1.0  0.92253  0.31024  0.49530  1.0000
  H   H4        1.0  0.57736  0.19444  0.49524  1.0000
  H   H5        1.0  0.64468  0.16772  0.74436  1.0000
  H   H6        1.0  0.85541  0.08796  0.74436  1.0000
  H   H7        1.0  0.35532  0.83228  0.25564  1.0000
  H   H8        1.0  0.14459  0.91204  0.25564  1.0000
  H   H9        1.0  0.95732  0.46699  0.63449  1.0000
  H   H10       1.0  0.54270  0.89854  0.63463  1.0000
  H   H11       1.0  0.04267  0.53302  0.36551  1.0000
  H   H12       1.0  0.45730  0.10147  0.36538  1.0000
  H   H13       1.0  0.87048  0.67034  0.62971  1.0000
  H   H14       1.0  0.62957  0.69998  0.62981  1.0000
  H   H15       1.0  0.12952  0.32966  0.37029  1.0000
  H   H16       1.0  0.37043  0.30003  0.37019  1.0000
  H   H17       1.0  0.29577  0.49987  0.46121  1.0000
  H   H18       1.0  0.20433  0.03896  0.46125  1.0000
  H   H19       1.0  0.70423  0.50012  0.53879  1.0000
  H   H20       1.0  0.79567  0.96105  0.53875  1.0000
  H   H21       1.0  0.20753  0.36359  0.56090  1.0000
  H   H22       1.0  0.29254  0.07552  0.56096  1.0000
  H   H23       1.0  0.79247  0.63640  0.43910  1.0000
  H   H24       1.0  0.70746  0.92448  0.43903  1.0000
  H   H25       1.0  0.68949  0.90495  0.81223  1.0000
  H   H26       1.0  0.81050  0.28294  0.81226  1.0000
  H   H27       1.0  0.31052  0.09505  0.18777  1.0000
  H   H28       1.0  0.18950  0.71706  0.18774  1.0000
  H   H29       1.0  0.64500  0.95421  0.93507  1.0000
  H   H30       1.0  0.85508  0.11078  0.93507  1.0000
  H   H31       1.0  0.35501  0.04579  0.06493  1.0000
  H   H32       1.0  0.14492  0.88922  0.06493  1.0000
  C   C1        1.0  0.01421  0.50555  0.77558  1.0000
  C   C2        1.0  0.48584  0.71881  0.77566  1.0000
  C   C3        1.0  0.98579  0.49445  0.22442  1.0000
  C   C4        1.0  0.51416  0.28119  0.22434  1.0000
  C   C5        1.0  0.42314  0.37817  0.61777  1.0000
  C   C6        1.0  0.07693  0.00406  0.61778  1.0000
  C   C7        1.0  0.57686  0.62183  0.38223  1.0000
  C   C8        1.0  0.92307  0.99595  0.38222  1.0000
  C   C9        1.0  0.98698  0.55836  0.64945  1.0000
  C   C10       1.0  0.51307  0.79220  0.64955  1.0000
  C   C11       1.0  0.01302  0.44164  0.35055  1.0000
  C   C12       1.0  0.48693  0.20780  0.35045  1.0000
  C   C13       1.0  0.25748  0.45642  0.54984  1.0000
  C   C14       1.0  0.24260  0.99376  0.54989  1.0000
  C   C15       1.0  0.74251  0.54358  0.45015  1.0000
  C   C16       1.0  0.75740  0.00625  0.45011  1.0000
  C   C17       1.0  0.91002  0.80687  0.91490  1.0000
  C   C18       1.0  0.59004  0.27821  0.91493  1.0000
  C   C19       1.0  0.08998  0.19313  0.08510  1.0000
  C   C20       1.0  0.40995  0.72179  0.08507  1.0000
  C   C21       1.0  0.73933  0.94151  0.86688  1.0000
  C   C22       1.0  0.76072  0.19165  0.86690  1.0000
  C   C23       1.0  0.26067  0.05849  0.13312  1.0000
  C   C24       1.0  0.23928  0.80835  0.13310  1.0000
  N   N1        1.0  0.12726  0.59404  0.57796  1.0000
  N   N2        1.0  0.37283  0.82803  0.57801  1.0000
  N   N3        1.0  0.87274  0.40595  0.42204  1.0000
  N   N4        1.0  0.62717  0.17198  0.42199  1.0000
  N   N5        1.0  0.75005  0.09953  0.80099  1.0000
  N   N6        1.0  0.24995  0.90047  0.19901  1.0000
  O   O1        1.0  0.13676  0.52775  0.80492  1.0000
  O   O2        1.0  0.36346  0.66706  0.80498  1.0000
  O   O3        1.0  0.86323  0.47225  0.19508  1.0000
  O   O4        1.0  0.63655  0.33294  0.19502  1.0000
  O   O5        1.0  0.91002  0.45121  0.84005  1.0000
  O   O6        1.0  0.58991  0.70878  0.84017  1.0000
  O   O7        1.0  0.08998  0.54878  0.15995  1.0000
  O   O8        1.0  0.41009  0.29122  0.15983  1.0000
  O   O9        1.0  0.45934  0.46618  0.65537  1.0000
  O   O10       1.0  0.04082  0.87840  0.65543  1.0000
  O   O11       1.0  0.54066  0.53382  0.34463  1.0000
  O   O12       1.0  0.95918  0.12161  0.34457  1.0000
  O   O13       1.0  0.51873  0.23270  0.62952  1.0000
  O   O14       1.0  0.98128  0.13779  0.62949  1.0000
  O   O15       1.0  0.48127  0.76730  0.37047  1.0000
  O   O16       1.0  0.01872  0.86223  0.37051  1.0000
  O   O17       1.0  0.90808  0.66473  0.95469  1.0000
  O   O18       1.0  0.59204  0.38050  0.95475  1.0000
  O   O19       1.0  0.09191  0.33527  0.04531  1.0000
  O   O20       1.0  0.40796  0.61949  0.04525  1.0000
  O   O21       1.0  0.04497  0.82981  0.91468  1.0000
  O   O22       1.0  0.45510  0.25548  0.91471  1.0000
  O   O23       1.0  0.95503  0.17018  0.08532  1.0000
  O   O24       1.0  0.54490  0.74451  0.08530  1.0000
