data_image0
_chemical_formula_structural       Cd2H32C48N8O20
_chemical_formula_sum              "Cd2 H32 C48 N8 O20"
_cell_length_a       6.67434
_cell_length_b       12.7092
_cell_length_c       15.0332
_cell_angle_alpha    115.016
_cell_angle_beta     98.4923
_cell_angle_gamma    90.0695

_space_group_name_H-M_alt    "P 1"
_space_group_IT_number       1

loop_
  _space_group_symop_operation_xyz
  'x, y, z'

loop_
  _atom_site_type_symbol
  _atom_site_label
  _atom_site_symmetry_multiplicity
  _atom_site_fract_x
  _atom_site_fract_y
  _atom_site_fract_z
  _atom_site_occupancy
  Cd  Cd1       1.0  0.25009  0.87181  0.00018  1.0000
  Cd  Cd2       1.0  0.74991  0.12819  0.99982  1.0000
  H   H1        1.0  0.33072  0.51732  0.37484  1.0000
  H   H2        1.0  0.16857  0.14233  0.62541  1.0000
  H   H3        1.0  0.66926  0.48268  0.62516  1.0000
  H   H4        1.0  0.83144  0.85767  0.37459  1.0000
  H   H5        1.0  0.28312  0.45172  0.50447  1.0000
  H   H6        1.0  0.21587  0.94717  0.49558  1.0000
  H   H7        1.0  0.71688  0.54829  0.49553  1.0000
  H   H8        1.0  0.78414  0.05283  0.50443  1.0000
  H   H9        1.0  0.36908  0.09900  0.30472  1.0000
  H   H10       1.0  0.13130  0.79391  0.69529  1.0000
  H   H11       1.0  0.63093  0.90100  0.69529  1.0000
  H   H12       1.0  0.86872  0.20610  0.30471  1.0000
  H   H13       1.0  0.07196  0.69223  0.77386  1.0000
  H   H14       1.0  0.42758  0.91831  0.22620  1.0000
  H   H15       1.0  0.92804  0.30777  0.22615  1.0000
  H   H16       1.0  0.57243  0.08168  0.77380  1.0000
  H   H17       1.0  0.04620  0.47697  0.66149  1.0000
  H   H18       1.0  0.45403  0.81514  0.33827  1.0000
  H   H19       1.0  0.95381  0.52303  0.33851  1.0000
  H   H20       1.0  0.54597  0.18485  0.66173  1.0000
  H   H21       1.0  0.12847  0.33975  0.74051  1.0000
  H   H22       1.0  0.37146  0.59883  0.25905  1.0000
  H   H23       1.0  0.87152  0.66025  0.25949  1.0000
  H   H24       1.0  0.62854  0.40116  0.74094  1.0000
  H   H25       1.0  0.23962  0.41916  0.92203  1.0000
  H   H26       1.0  0.25959  0.49677  0.07756  1.0000
  H   H27       1.0  0.76038  0.58083  0.07796  1.0000
  H   H28       1.0  0.74040  0.50322  0.92244  1.0000
  H   H29       1.0  0.42538  0.30570  0.13637  1.0000
  H   H30       1.0  0.07540  0.16889  0.86403  1.0000
  H   H31       1.0  0.57459  0.69430  0.86363  1.0000
  H   H32       1.0  0.92460  0.83111  0.13596  1.0000
  C   C1        1.0  0.38593  0.22501  0.24546  1.0000
  C   C2        1.0  0.11454  0.97918  0.75473  1.0000
  C   C3        1.0  0.61406  0.77499  0.75454  1.0000
  C   C4        1.0  0.88547  0.02082  0.24527  1.0000
  C   C5        1.0  0.37704  0.34493  0.26596  1.0000
  C   C6        1.0  0.12327  0.07868  0.73435  1.0000
  C   C7        1.0  0.62295  0.65507  0.73404  1.0000
  C   C8        1.0  0.87673  0.92132  0.26564  1.0000
  C   C9        1.0  0.34032  0.42599  0.36003  1.0000
  C   C10       1.0  0.15927  0.06578  0.64019  1.0000
  C   C11       1.0  0.65966  0.57401  0.63996  1.0000
  C   C12       1.0  0.84074  0.93422  0.35981  1.0000
  C   C13       1.0  0.31435  0.38968  0.43249  1.0000
  C   C14       1.0  0.18502  0.95706  0.56761  1.0000
  C   C15       1.0  0.68564  0.61032  0.56751  1.0000
  C   C16       1.0  0.81499  0.04295  0.43239  1.0000
  C   C17       1.0  0.32892  0.27166  0.41226  1.0000
  C   C18       1.0  0.17087  0.85921  0.58780  1.0000
  C   C19       1.0  0.67108  0.72835  0.58774  1.0000
  C   C20       1.0  0.82914  0.14079  0.41220  1.0000
  C   C21       1.0  0.36242  0.19013  0.31951  1.0000
  C   C22       1.0  0.13780  0.87031  0.68057  1.0000
  C   C23       1.0  0.63758  0.80987  0.68049  1.0000
  C   C24       1.0  0.86222  0.12970  0.31943  1.0000
  C   C25       1.0  0.41757  0.13718  0.14554  1.0000
  C   C26       1.0  0.08310  0.99109  0.85461  1.0000
  C   C27       1.0  0.58243  0.86282  0.85445  1.0000
  C   C28       1.0  0.91690  0.00891  0.14539  1.0000
  C   C29       1.0  0.10814  0.62798  0.80300  1.0000
  C   C30       1.0  0.39137  0.82487  0.19695  1.0000
  C   C31       1.0  0.89185  0.37202  0.19700  1.0000
  C   C32       1.0  0.60863  0.17513  0.80305  1.0000
  C   C33       1.0  0.09308  0.50913  0.74148  1.0000
  C   C34       1.0  0.40674  0.76740  0.25830  1.0000
  C   C35       1.0  0.90692  0.49088  0.25852  1.0000
  C   C36       1.0  0.59326  0.23259  0.74170  1.0000
  C   C37       1.0  0.13938  0.43329  0.78532  1.0000
  C   C38       1.0  0.36031  0.64766  0.21435  1.0000
  C   C39       1.0  0.86061  0.56671  0.21468  1.0000
  C   C40       1.0  0.63969  0.35233  0.78565  1.0000
  C   C41       1.0  0.20055  0.47833  0.88792  1.0000
  C   C42       1.0  0.29864  0.59013  0.11178  1.0000
  C   C43       1.0  0.79944  0.52167  0.11208  1.0000
  C   C44       1.0  0.70136  0.40986  0.88822  1.0000
  C   C45       1.0  0.21495  0.59899  0.94510  1.0000
  C   C46       1.0  0.28403  0.65375  0.05472  1.0000
  C   C47       1.0  0.78504  0.40101  0.05490  1.0000
  C   C48       1.0  0.71597  0.34625  0.94528  1.0000
  N   N1        1.0  0.31013  0.23246  0.48816  1.0000
  N   N2        1.0  0.18975  0.74416  0.51184  1.0000
  N   N3        1.0  0.68988  0.76755  0.51185  1.0000
  N   N4        1.0  0.81026  0.25584  0.48816  1.0000
  N   N5        1.0  0.16736  0.67154  0.90164  1.0000
  N   N6        1.0  0.33168  0.76984  0.09833  1.0000
  N   N7        1.0  0.83263  0.32846  0.09836  1.0000
  N   N8        1.0  0.66832  0.23015  0.90168  1.0000
  O   O1        1.0  0.40855  0.03091  0.12914  1.0000
  O   O2        1.0  0.09223  0.90120  0.87092  1.0000
  O   O3        1.0  0.59145  0.96909  0.87087  1.0000
  O   O4        1.0  0.90777  0.09881  0.12908  1.0000
  O   O5        1.0  0.45480  0.17595  0.08267  1.0000
  O   O6        1.0  0.04599  0.09270  0.91760  1.0000
  O   O7        1.0  0.54519  0.82405  0.91733  1.0000
  O   O8        1.0  0.95401  0.90730  0.08240  1.0000
  O   O9        1.0  0.39787  0.38087  0.19594  1.0000
  O   O10       1.0  0.10265  0.18460  0.80447  1.0000
  O   O11       1.0  0.60211  0.61913  0.80405  1.0000
  O   O12       1.0  0.89735  0.81540  0.19553  1.0000
  O   O13       1.0  0.27483  0.30504  0.57057  1.0000
  O   O14       1.0  0.22511  0.73444  0.42947  1.0000
  O   O15       1.0  0.72518  0.69497  0.42944  1.0000
  O   O16       1.0  0.77491  0.26556  0.57053  1.0000
  O   O17       1.0  0.33065  0.12758  0.46844  1.0000
  O   O18       1.0  0.16930  0.65891  0.53149  1.0000
  O   O19       1.0  0.66938  0.87243  0.53157  1.0000
  O   O20       1.0  0.83070  0.34109  0.46851  1.0000
