data_image0
_chemical_formula_structural       Zn2H36C28N8O8
_chemical_formula_sum              "Zn2 H36 C28 N8 O8"
_cell_length_a       9.35184
_cell_length_b       9.35184
_cell_length_c       9.3595
_cell_angle_alpha    96.6368
_cell_angle_beta     96.6369
_cell_angle_gamma    95.4522

_space_group_name_H-M_alt    "P 1"
_space_group_IT_number       1

loop_
  _space_group_symop_operation_xyz
  'x, y, z'

loop_
  _atom_site_type_symbol
  _atom_site_label
  _atom_site_symmetry_multiplicity
  _atom_site_fract_x
  _atom_site_fract_y
  _atom_site_fract_z
  _atom_site_occupancy
  Zn  Zn1       1.0  0.10917  0.89083  0.75000  1.0000
  Zn  Zn2       1.0  0.89083  0.10917  0.25000  1.0000
  H   H1        1.0  0.29340  0.78405  0.48526  1.0000
  H   H2        1.0  0.21595  0.70660  0.01474  1.0000
  H   H3        1.0  0.70660  0.21595  0.51474  1.0000
  H   H4        1.0  0.78405  0.29340  0.98526  1.0000
  H   H5        1.0  0.43947  0.01143  0.89836  1.0000
  H   H6        1.0  0.98857  0.56053  0.60164  1.0000
  H   H7        1.0  0.56053  0.98857  0.10164  1.0000
  H   H8        1.0  0.01143  0.43947  0.39836  1.0000
  H   H9        1.0  0.68132  0.94311  0.76203  1.0000
  H   H10       1.0  0.05688  0.31868  0.73797  1.0000
  H   H11       1.0  0.31868  0.05688  0.23796  1.0000
  H   H12       1.0  0.94312  0.68133  0.26203  1.0000
  H   H13       1.0  0.68321  0.86885  0.46604  1.0000
  H   H14       1.0  0.13115  0.31678  0.03396  1.0000
  H   H15       1.0  0.31678  0.13115  0.53396  1.0000
  H   H16       1.0  0.86885  0.68322  0.96604  1.0000
  H   H17       1.0  0.52604  0.75874  0.38115  1.0000
  H   H18       1.0  0.24126  0.47396  0.11885  1.0000
  H   H19       1.0  0.47396  0.24126  0.61884  1.0000
  H   H20       1.0  0.75874  0.52604  0.88115  1.0000
  H   H21       1.0  0.74321  0.69079  0.63051  1.0000
  H   H22       1.0  0.30921  0.25679  0.86949  1.0000
  H   H23       1.0  0.25679  0.30921  0.36949  1.0000
  H   H24       1.0  0.69079  0.74321  0.13051  1.0000
  H   H25       1.0  0.72673  0.61160  0.44856  1.0000
  H   H26       1.0  0.38840  0.27327  0.05144  1.0000
  H   H27       1.0  0.27327  0.38840  0.55144  1.0000
  H   H28       1.0  0.61160  0.72673  0.94856  1.0000
  H   H29       1.0  0.61155  0.45284  0.61457  1.0000
  H   H30       1.0  0.54716  0.38845  0.88542  1.0000
  H   H31       1.0  0.38845  0.54716  0.38543  1.0000
  H   H32       1.0  0.45284  0.61154  0.11457  1.0000
  H   H33       1.0  0.49009  0.58076  0.65031  1.0000
  H   H34       1.0  0.41924  0.50991  0.84969  1.0000
  H   H35       1.0  0.50991  0.41924  0.34969  1.0000
  H   H36       1.0  0.58077  0.49009  0.15031  1.0000
  C   C1        1.0  0.98138  0.92060  0.46102  1.0000
  C   C2        1.0  0.07940  0.01862  0.03898  1.0000
  C   C3        1.0  0.01863  0.07940  0.53899  1.0000
  C   C4        1.0  0.92060  0.98137  0.96101  1.0000
  C   C5        1.0  0.36485  0.83775  0.57964  1.0000
  C   C6        1.0  0.16225  0.63514  0.92036  1.0000
  C   C7        1.0  0.63515  0.16225  0.42036  1.0000
  C   C8        1.0  0.83775  0.36486  0.07964  1.0000
  C   C9        1.0  0.44642  0.95481  0.79215  1.0000
  C   C10       1.0  0.04519  0.55358  0.70785  1.0000
  C   C11       1.0  0.55358  0.04519  0.20785  1.0000
  C   C12       1.0  0.95481  0.44642  0.29215  1.0000
  C   C13       1.0  0.56564  0.92458  0.72522  1.0000
  C   C14       1.0  0.07542  0.43436  0.77478  1.0000
  C   C15       1.0  0.43436  0.07542  0.27479  1.0000
  C   C16       1.0  0.92458  0.56564  0.22522  1.0000
  C   C17       1.0  0.59798  0.78644  0.48395  1.0000
  C   C18       1.0  0.21356  0.40202  0.01605  1.0000
  C   C19       1.0  0.40202  0.21356  0.51605  1.0000
  C   C20       1.0  0.78644  0.59798  0.98395  1.0000
  C   C21       1.0  0.66414  0.65416  0.53367  1.0000
  C   C22       1.0  0.34585  0.33585  0.96633  1.0000
  C   C23       1.0  0.33586  0.34584  0.46633  1.0000
  C   C24       1.0  0.65416  0.66415  0.03366  1.0000
  C   C25       1.0  0.55251  0.53561  0.56610  1.0000
  C   C26       1.0  0.46439  0.44749  0.93390  1.0000
  C   C27       1.0  0.44749  0.46438  0.43391  1.0000
  C   C28       1.0  0.53562  0.55251  0.06609  1.0000
  N   N1        1.0  0.32226  0.90012  0.70038  1.0000
  N   N2        1.0  0.09988  0.67774  0.79962  1.0000
  N   N3        1.0  0.67775  0.09988  0.29962  1.0000
  N   N4        1.0  0.90012  0.32226  0.20038  1.0000
  N   N5        1.0  0.51171  0.85102  0.59013  1.0000
  N   N6        1.0  0.14898  0.48829  0.90987  1.0000
  N   N7        1.0  0.48829  0.14898  0.40987  1.0000
  N   N8        1.0  0.85102  0.51171  0.09013  1.0000
  O   O1        1.0  0.01531  0.81881  0.53252  1.0000
  O   O2        1.0  0.18119  0.98469  0.96748  1.0000
  O   O3        1.0  0.98469  0.18119  0.46749  1.0000
  O   O4        1.0  0.81881  0.01531  0.03251  1.0000
  O   O5        1.0  0.91962  0.90393  0.33166  1.0000
  O   O6        1.0  0.09607  0.08038  0.16834  1.0000
  O   O7        1.0  0.08038  0.09608  0.66835  1.0000
  O   O8        1.0  0.90392  0.91961  0.83165  1.0000
