data_image0
_chemical_formula_structural       Mn2H36C28N8O8
_chemical_formula_sum              "Mn2 H36 C28 N8 O8"
_cell_length_a       9.32237
_cell_length_b       9.32222
_cell_length_c       9.49764
_cell_angle_alpha    97.0521
_cell_angle_beta     97.0543
_cell_angle_gamma    96.7427

_space_group_name_H-M_alt    "P 1"
_space_group_IT_number       1

loop_
  _space_group_symop_operation_xyz
  'x, y, z'

loop_
  _atom_site_type_symbol
  _atom_site_label
  _atom_site_symmetry_multiplicity
  _atom_site_fract_x
  _atom_site_fract_y
  _atom_site_fract_z
  _atom_site_occupancy
  Mn  Mn1       1.0  0.10129  0.89870  0.25000  1.0000
  Mn  Mn2       1.0  0.89131  0.10869  0.75000  1.0000
  H   H1        1.0  0.44312  0.02105  0.39838  1.0000
  H   H2        1.0  0.97894  0.55686  0.10165  1.0000
  H   H3        1.0  0.57102  0.98726  0.60162  1.0000
  H   H4        1.0  0.01274  0.42898  0.89835  1.0000
  H   H5        1.0  0.68457  0.94991  0.26746  1.0000
  H   H6        1.0  0.05010  0.31540  0.23256  1.0000
  H   H7        1.0  0.32759  0.04487  0.73403  1.0000
  H   H8        1.0  0.95516  0.67242  0.76595  1.0000
  H   H9        1.0  0.29297  0.79058  0.98752  1.0000
  H   H10       1.0  0.20943  0.70701  0.51249  1.0000
  H   H11       1.0  0.71579  0.22562  0.01119  1.0000
  H   H12       1.0  0.77437  0.28420  0.48879  1.0000
  H   H13       1.0  0.68595  0.87637  0.97562  1.0000
  H   H14       1.0  0.12365  0.31403  0.52439  1.0000
  H   H15       1.0  0.32182  0.12183  0.02190  1.0000
  H   H16       1.0  0.87819  0.67819  0.47808  1.0000
  H   H17       1.0  0.52699  0.76252  0.88928  1.0000
  H   H18       1.0  0.23749  0.47300  0.61073  1.0000
  H   H19       1.0  0.47785  0.23808  0.11094  1.0000
  H   H20       1.0  0.76192  0.52215  0.38904  1.0000
  H   H21       1.0  0.74114  0.69947  0.14044  1.0000
  H   H22       1.0  0.30054  0.25885  0.35957  1.0000
  H   H23       1.0  0.26243  0.29846  0.85957  1.0000
  H   H24       1.0  0.70156  0.73757  0.64042  1.0000
  H   H25       1.0  0.73016  0.62095  0.96062  1.0000
  H   H26       1.0  0.37907  0.26983  0.53938  1.0000
  H   H27       1.0  0.27222  0.37576  0.03987  1.0000
  H   H28       1.0  0.62426  0.72778  0.46014  1.0000
  H   H29       1.0  0.60929  0.45729  0.11783  1.0000
  H   H30       1.0  0.54272  0.39070  0.38216  1.0000
  H   H31       1.0  0.38983  0.54361  0.88388  1.0000
  H   H32       1.0  0.45642  0.61017  0.61613  1.0000
  H   H33       1.0  0.48414  0.58071  0.14753  1.0000
  H   H34       1.0  0.41929  0.51586  0.35248  1.0000
  H   H35       1.0  0.51694  0.42254  0.85263  1.0000
  H   H36       1.0  0.57749  0.48306  0.64736  1.0000
  C   C1        1.0  0.97217  0.92103  0.95692  1.0000
  C   C2        1.0  0.07895  0.02782  0.54309  1.0000
  C   C3        1.0  0.00873  0.07714  0.03093  1.0000
  C   C4        1.0  0.92285  0.99126  0.46905  1.0000
  C   C5        1.0  0.44870  0.96347  0.29334  1.0000
  C   C6        1.0  0.03653  0.55130  0.20669  1.0000
  C   C7        1.0  0.56395  0.04445  0.70631  1.0000
  C   C8        1.0  0.95556  0.43604  0.79367  1.0000
  C   C9        1.0  0.56811  0.93191  0.22938  1.0000
  C   C10       1.0  0.06810  0.43188  0.27062  1.0000
  C   C11       1.0  0.44380  0.06941  0.77165  1.0000
  C   C12       1.0  0.93061  0.55621  0.72833  1.0000
  C   C13       1.0  0.36519  0.84468  0.08226  1.0000
  C   C14       1.0  0.15532  0.63479  0.41775  1.0000
  C   C15       1.0  0.64484  0.16772  0.91753  1.0000
  C   C16       1.0  0.83228  0.35515  0.58246  1.0000
  C   C17       1.0  0.59922  0.79230  0.99173  1.0000
  C   C18       1.0  0.20774  0.40075  0.50829  1.0000
  C   C19       1.0  0.40728  0.20806  0.00758  1.0000
  C   C20       1.0  0.79193  0.59274  0.49239  1.0000
  C   C21       1.0  0.66425  0.66101  0.04190  1.0000
  C   C22       1.0  0.33904  0.33575  0.45810  1.0000
  C   C23       1.0  0.33887  0.33801  0.95820  1.0000
  C   C24       1.0  0.66198  0.66113  0.54180  1.0000
  C   C25       1.0  0.55073  0.53818  0.06779  1.0000
  C   C26       1.0  0.46185  0.44928  0.43221  1.0000
  C   C27       1.0  0.45002  0.46322  0.93291  1.0000
  C   C28       1.0  0.53679  0.54997  0.56708  1.0000
  N   N1        1.0  0.32289  0.90863  0.20070  1.0000
  N   N2        1.0  0.09138  0.67711  0.29931  1.0000
  N   N3        1.0  0.68926  0.10672  0.79796  1.0000
  N   N4        1.0  0.89329  0.31073  0.70204  1.0000
  N   N5        1.0  0.51300  0.85711  0.09522  1.0000
  N   N6        1.0  0.14290  0.48698  0.40479  1.0000
  N   N7        1.0  0.49656  0.14688  0.90496  1.0000
  N   N8        1.0  0.85314  0.50344  0.59502  1.0000
  O   O1        1.0  0.00284  0.81800  0.02676  1.0000
  O   O2        1.0  0.18199  0.99715  0.47326  1.0000
  O   O3        1.0  0.97582  0.17634  0.95369  1.0000
  O   O4        1.0  0.82366  0.02417  0.54631  1.0000
  O   O5        1.0  0.91455  0.90510  0.82520  1.0000
  O   O6        1.0  0.09490  0.08544  0.67481  1.0000
  O   O7        1.0  0.07113  0.10240  0.15964  1.0000
  O   O8        1.0  0.89758  0.92886  0.34035  1.0000
