data_image0
_chemical_formula_structural       Cu2H36C28N8O8
_chemical_formula_sum              "Cu2 H36 C28 N8 O8"
_cell_length_a       9.23727
_cell_length_b       9.23725
_cell_length_c       9.48619
_cell_angle_alpha    96.6035
_cell_angle_beta     96.604
_cell_angle_gamma    96.0953

_space_group_name_H-M_alt    "P 1"
_space_group_IT_number       1

loop_
  _space_group_symop_operation_xyz
  'x, y, z'

loop_
  _atom_site_type_symbol
  _atom_site_label
  _atom_site_symmetry_multiplicity
  _atom_site_fract_x
  _atom_site_fract_y
  _atom_site_fract_z
  _atom_site_occupancy
  Cu  Cu1       1.0  0.61043  0.38957  0.25000  1.0000
  Cu  Cu2       1.0  0.38956  0.61043  0.75000  1.0000
  H   H1        1.0  0.78628  0.28296  0.98525  1.0000
  H   H2        1.0  0.71706  0.21373  0.51474  1.0000
  H   H3        1.0  0.21372  0.71706  0.01474  1.0000
  H   H4        1.0  0.28294  0.78628  0.48526  1.0000
  H   H5        1.0  0.93149  0.50101  0.39947  1.0000
  H   H6        1.0  0.49899  0.06851  0.10053  1.0000
  H   H7        1.0  0.06850  0.49898  0.60053  1.0000
  H   H8        1.0  0.50101  0.93149  0.89947  1.0000
  H   H9        1.0  0.17775  0.44370  0.26428  1.0000
  H   H10       1.0  0.55629  0.82225  0.23572  1.0000
  H   H11       1.0  0.82225  0.55628  0.73572  1.0000
  H   H12       1.0  0.44371  0.17775  0.76428  1.0000
  H   H13       1.0  0.18155  0.37792  0.97056  1.0000
  H   H14       1.0  0.62208  0.81845  0.52945  1.0000
  H   H15       1.0  0.81845  0.62208  0.02944  1.0000
  H   H16       1.0  0.37792  0.18155  0.47056  1.0000
  H   H17       1.0  0.02400  0.26337  0.88423  1.0000
  H   H18       1.0  0.73663  0.97600  0.61577  1.0000
  H   H19       1.0  0.97600  0.73663  0.11578  1.0000
  H   H20       1.0  0.26337  0.02401  0.38422  1.0000
  H   H21       1.0  0.24638  0.19647  0.12825  1.0000
  H   H22       1.0  0.80353  0.75362  0.37175  1.0000
  H   H23       1.0  0.75362  0.80353  0.87175  1.0000
  H   H24       1.0  0.19647  0.24638  0.62824  1.0000
  H   H25       1.0  0.22859  0.11830  0.94815  1.0000
  H   H26       1.0  0.88170  0.77140  0.55186  1.0000
  H   H27       1.0  0.77141  0.88170  0.05186  1.0000
  H   H28       1.0  0.11830  0.22859  0.44814  1.0000
  H   H29       1.0  0.11621  0.95155  0.10875  1.0000
  H   H30       1.0  0.04845  0.88378  0.39125  1.0000
  H   H31       1.0  0.88378  0.04845  0.89126  1.0000
  H   H32       1.0  0.95155  0.11621  0.60875  1.0000
  H   H33       1.0  0.99314  0.07759  0.15062  1.0000
  H   H34       1.0  0.92242  0.00685  0.34939  1.0000
  H   H35       1.0  0.00686  0.92242  0.84940  1.0000
  H   H36       1.0  0.07759  0.99314  0.65061  1.0000
  C   C1        1.0  0.57715  0.52050  0.54595  1.0000
  C   C2        1.0  0.47949  0.42285  0.95404  1.0000
  C   C3        1.0  0.42286  0.47949  0.45404  1.0000
  C   C4        1.0  0.52050  0.57714  0.04595  1.0000
  C   C5        1.0  0.85843  0.33510  0.07982  1.0000
  C   C6        1.0  0.66491  0.14157  0.42017  1.0000
  C   C7        1.0  0.14157  0.66491  0.92017  1.0000
  C   C8        1.0  0.33509  0.85843  0.57983  1.0000
  C   C9        1.0  0.93965  0.44805  0.29325  1.0000
  C   C10       1.0  0.55195  0.06035  0.20675  1.0000
  C   C11       1.0  0.06035  0.55194  0.70676  1.0000
  C   C12       1.0  0.44805  0.93965  0.79324  1.0000
  C   C13       1.0  0.06099  0.42254  0.22662  1.0000
  C   C14       1.0  0.57746  0.93901  0.27339  1.0000
  C   C15       1.0  0.93901  0.57745  0.77339  1.0000
  C   C16       1.0  0.42255  0.06099  0.72661  1.0000
  C   C17       1.0  0.09629  0.29140  0.98613  1.0000
  C   C18       1.0  0.70860  0.90371  0.51388  1.0000
  C   C19       1.0  0.90371  0.70860  0.01388  1.0000
  C   C20       1.0  0.29140  0.09630  0.48612  1.0000
  C   C21       1.0  0.16557  0.15866  0.03313  1.0000
  C   C22       1.0  0.84135  0.83443  0.46687  1.0000
  C   C23       1.0  0.83443  0.84135  0.96688  1.0000
  C   C24       1.0  0.15866  0.16557  0.53312  1.0000
  C   C25       1.0  0.05445  0.03542  0.06476  1.0000
  C   C26       1.0  0.96458  0.94554  0.43524  1.0000
  C   C27       1.0  0.94554  0.96459  0.93525  1.0000
  C   C28       1.0  0.03542  0.05445  0.56475  1.0000
  N   N1        1.0  0.00744  0.35172  0.09149  1.0000
  N   N2        1.0  0.64829  0.99256  0.40851  1.0000
  N   N3        1.0  0.99256  0.64829  0.90851  1.0000
  N   N4        1.0  0.35171  0.00744  0.59149  1.0000
  N   N5        1.0  0.81479  0.39310  0.20058  1.0000
  N   N6        1.0  0.60691  0.18521  0.29942  1.0000
  N   N7        1.0  0.18520  0.60690  0.79941  1.0000
  N   N8        1.0  0.39309  0.81479  0.70058  1.0000
  O   O1        1.0  0.68858  0.48666  0.49163  1.0000
  O   O2        1.0  0.51334  0.31142  0.00837  1.0000
  O   O3        1.0  0.31142  0.51333  0.50837  1.0000
  O   O4        1.0  0.48666  0.68858  0.99162  1.0000
  O   O5        1.0  0.58130  0.58767  0.67257  1.0000
  O   O6        1.0  0.41233  0.41870  0.82743  1.0000
  O   O7        1.0  0.41870  0.41232  0.32742  1.0000
  O   O8        1.0  0.58767  0.58130  0.17258  1.0000
