data_image0
_chemical_formula_structural       Zn2H44C40N8O8
_chemical_formula_sum              "Zn2 H44 C40 N8 O8"
_cell_length_a       9.61065
_cell_length_b       9.8967
_cell_length_c       11.6541
_cell_angle_alpha    79.0805
_cell_angle_beta     73.6035
_cell_angle_gamma    69.3773

_space_group_name_H-M_alt    "P 1"
_space_group_IT_number       1

loop_
  _space_group_symop_operation_xyz
  'x, y, z'

loop_
  _atom_site_type_symbol
  _atom_site_label
  _atom_site_symmetry_multiplicity
  _atom_site_fract_x
  _atom_site_fract_y
  _atom_site_fract_z
  _atom_site_occupancy
  Zn  Zn1       1.0  0.19226  0.29991  0.62242  1.0000
  Zn  Zn2       1.0  0.80774  0.70009  0.37758  1.0000
  H   H1        1.0  0.83763  0.36761  0.52972  1.0000
  H   H2        1.0  0.16237  0.63239  0.47028  1.0000
  H   H3        1.0  0.75326  0.41249  0.40526  1.0000
  H   H4        1.0  0.24674  0.58751  0.59474  1.0000
  H   H5        1.0  0.41172  0.46200  0.92736  1.0000
  H   H6        1.0  0.58829  0.53800  0.07264  1.0000
  H   H7        1.0  0.57901  0.51332  0.86652  1.0000
  H   H8        1.0  0.42099  0.48668  0.13348  1.0000
  H   H9        1.0  0.61757  0.99424  0.73804  1.0000
  H   H10       1.0  0.38244  0.00576  0.26196  1.0000
  H   H11       1.0  0.81225  0.14231  0.39453  1.0000
  H   H12       1.0  0.18775  0.85769  0.60547  1.0000
  H   H13       1.0  0.97048  0.20631  0.35761  1.0000
  H   H14       1.0  0.02952  0.79370  0.64239  1.0000
  H   H15       1.0  0.40660  0.97439  0.66240  1.0000
  H   H16       1.0  0.59340  0.02560  0.33760  1.0000
  H   H17       1.0  0.03118  0.88304  0.91992  1.0000
  H   H18       1.0  0.96882  0.11696  0.08008  1.0000
  H   H19       1.0  0.27218  0.70260  0.00786  1.0000
  H   H20       1.0  0.72782  0.29740  0.99214  1.0000
  H   H21       1.0  0.43984  0.75473  0.95075  1.0000
  H   H22       1.0  0.56016  0.24527  0.04924  1.0000
  H   H23       1.0  0.63745  0.00940  0.94360  1.0000
  H   H24       1.0  0.36255  0.99060  0.05639  1.0000
  H   H25       1.0  0.94171  0.17499  0.82595  1.0000
  H   H26       1.0  0.05829  0.82501  0.17405  1.0000
  H   H27       1.0  0.44669  0.72335  0.74353  1.0000
  H   H28       1.0  0.55331  0.27665  0.25647  1.0000
  H   H29       1.0  0.28048  0.66849  0.79498  1.0000
  H   H30       1.0  0.71951  0.33151  0.20503  1.0000
  H   H31       1.0  0.90706  0.55694  0.96114  1.0000
  H   H32       1.0  0.09294  0.44306  0.03887  1.0000
  H   H33       1.0  0.85690  0.04916  0.60143  1.0000
  H   H34       1.0  0.14310  0.95084  0.39857  1.0000
  H   H35       1.0  0.01442  0.11426  0.56469  1.0000
  H   H36       1.0  0.98558  0.88574  0.43530  1.0000
  H   H37       1.0  0.52687  0.27251  0.44228  1.0000
  H   H38       1.0  0.47313  0.72749  0.55772  1.0000
  H   H39       1.0  0.78365  0.78819  0.05594  1.0000
  H   H40       1.0  0.21635  0.21181  0.94407  1.0000
  H   H41       1.0  0.65907  0.37154  0.72451  1.0000
  H   H42       1.0  0.34093  0.62846  0.27549  1.0000
  H   H43       1.0  0.36106  0.35159  0.80618  1.0000
  H   H44       1.0  0.63894  0.64841  0.19382  1.0000
  C   C1        1.0  0.75210  0.76936  0.73297  1.0000
  C   C2        1.0  0.24790  0.23064  0.26703  1.0000
  C   C3        1.0  0.83552  0.64511  0.79575  1.0000
  C   C4        1.0  0.16448  0.35489  0.20425  1.0000
  C   C5        1.0  0.91761  0.50054  0.74477  1.0000
  C   C6        1.0  0.08239  0.49946  0.25524  1.0000
  C   C7        1.0  0.77935  0.32980  0.47991  1.0000
  C   C8        1.0  0.22065  0.67020  0.52009  1.0000
  C   C9        1.0  0.47610  0.52801  0.94086  1.0000
  C   C10       1.0  0.52390  0.47199  0.05914  1.0000
  C   C11       1.0  0.73852  0.77266  0.60663  1.0000
  C   C12       1.0  0.26148  0.22734  0.39337  1.0000
  C   C13       1.0  0.68034  0.89887  0.78847  1.0000
  C   C14       1.0  0.31967  0.10113  0.21153  1.0000
  C   C15       1.0  0.87923  0.18474  0.43265  1.0000
  C   C16       1.0  0.12077  0.81526  0.56735  1.0000
  C   C17       1.0  0.29203  0.99288  0.72081  1.0000
  C   C18       1.0  0.70797  0.00712  0.27919  1.0000
  C   C19       1.0  0.09430  0.94706  0.85500  1.0000
  C   C20       1.0  0.90570  0.05294  0.14501  1.0000
  C   C21       1.0  0.37773  0.68726  0.93598  1.0000
  C   C22       1.0  0.62226  0.31274  0.06402  1.0000
  C   C23       1.0  0.69158  0.90703  0.90335  1.0000
  C   C24       1.0  0.30842  0.09297  0.09665  1.0000
  C   C25       1.0  0.05117  0.08995  0.80890  1.0000
  C   C26       1.0  0.94883  0.91005  0.19110  1.0000
  C   C27       1.0  0.34003  0.73605  0.81321  1.0000
  C   C28       1.0  0.65997  0.26395  0.18679  1.0000
  C   C29       1.0  0.84363  0.65379  0.91238  1.0000
  C   C30       1.0  0.15637  0.34621  0.08762  1.0000
  C   C31       1.0  0.94848  0.07089  0.52625  1.0000
  C   C32       1.0  0.05152  0.92911  0.47374  1.0000
  C   C33       1.0  0.52025  0.29832  0.53011  1.0000
  C   C34       1.0  0.47975  0.70167  0.46990  1.0000
  C   C35       1.0  0.77329  0.78335  0.96601  1.0000
  C   C36       1.0  0.22671  0.21665  0.03399  1.0000
  C   C37       1.0  0.58525  0.34804  0.68098  1.0000
  C   C38       1.0  0.41475  0.65196  0.31902  1.0000
  C   C39       1.0  0.43962  0.33823  0.71877  1.0000
  C   C40       1.0  0.56038  0.66178  0.28123  1.0000
  N   N1        1.0  0.63366  0.32319  0.56135  1.0000
  N   N2        1.0  0.36634  0.67682  0.43865  1.0000
  N   N3        1.0  0.17552  0.11673  0.72555  1.0000
  N   N4        1.0  0.82448  0.88327  0.27445  1.0000
  N   N5        1.0  0.40044  0.30712  0.62369  1.0000
  N   N6        1.0  0.59956  0.69288  0.37631  1.0000
  N   N7        1.0  0.24645  0.88780  0.79867  1.0000
  N   N8        1.0  0.75355  0.11220  0.20133  1.0000
  O   O1        1.0  0.06452  0.47051  0.71267  1.0000
  O   O2        1.0  0.93549  0.52949  0.28733  1.0000
  O   O3        1.0  0.84451  0.41857  0.74401  1.0000
  O   O4        1.0  0.15549  0.58143  0.25599  1.0000
  O   O5        1.0  0.84247  0.67455  0.54164  1.0000
  O   O6        1.0  0.15753  0.32544  0.45836  1.0000
  O   O7        1.0  0.63011  0.86931  0.57004  1.0000
  O   O8        1.0  0.36989  0.13068  0.42996  1.0000
