data_image0
_chemical_formula_structural       Zn2H24C40N12O10
_chemical_formula_sum              "Zn2 H24 C40 N12 O10"
_cell_length_a       6.78796
_cell_length_b       7.46889
_cell_length_c       17.2497
_cell_angle_alpha    94.1227
_cell_angle_beta     96.5915
_cell_angle_gamma    96.6409

_space_group_name_H-M_alt    "P 1"
_space_group_IT_number       1

loop_
  _space_group_symop_operation_xyz
  'x, y, z'

loop_
  _atom_site_type_symbol
  _atom_site_label
  _atom_site_symmetry_multiplicity
  _atom_site_fract_x
  _atom_site_fract_y
  _atom_site_fract_z
  _atom_site_occupancy
  Zn  Zn1       1.0  0.53850  0.43614  0.66399  1.0000
  Zn  Zn2       1.0  0.46150  0.56386  0.33601  1.0000
  H   H1        1.0  0.08967  0.27819  0.69139  1.0000
  H   H2        1.0  0.91033  0.72182  0.30861  1.0000
  H   H3        1.0  0.89179  0.27292  0.80264  1.0000
  H   H4        1.0  0.10821  0.72708  0.19736  1.0000
  H   H5        1.0  0.03456  0.45672  0.93059  1.0000
  H   H6        1.0  0.96544  0.54328  0.06941  1.0000
  H   H7        1.0  0.32307  0.77965  0.13459  1.0000
  H   H8        1.0  0.67693  0.22034  0.86541  1.0000
  H   H9        1.0  0.64767  0.96142  0.13427  1.0000
  H   H10       1.0  0.35234  0.03857  0.86574  1.0000
  H   H11       1.0  0.94982  0.95755  0.93101  1.0000
  H   H12       1.0  0.05018  0.04244  0.06900  1.0000
  H   H13       1.0  0.10078  0.93583  0.80343  1.0000
  H   H14       1.0  0.89922  0.06417  0.19657  1.0000
  H   H15       1.0  0.94163  0.71149  0.69670  1.0000
  H   H16       1.0  0.05836  0.28851  0.30330  1.0000
  H   H17       1.0  0.28055  0.36517  0.49332  1.0000
  H   H18       1.0  0.71945  0.63484  0.50668  1.0000
  H   H19       1.0  0.17235  0.07916  0.40280  1.0000
  H   H20       1.0  0.82765  0.92085  0.59720  1.0000
  H   H21       1.0  0.78765  0.29370  0.56811  1.0000
  H   H22       1.0  0.21235  0.70631  0.43189  1.0000
  H   H23       1.0  0.91028  0.48718  0.60095  1.0000
  H   H24       1.0  0.08971  0.51282  0.39905  1.0000
  C   C1        1.0  0.14991  0.35336  0.74721  1.0000
  C   C2        1.0  0.85008  0.64664  0.25279  1.0000
  C   C3        1.0  0.03879  0.35195  0.81075  1.0000
  C   C4        1.0  0.96121  0.64806  0.18925  1.0000
  C   C5        1.0  0.11730  0.45361  0.88004  1.0000
  C   C6        1.0  0.88269  0.54639  0.11996  1.0000
  C   C7        1.0  0.30760  0.55448  0.88468  1.0000
  C   C8        1.0  0.69240  0.44552  0.11532  1.0000
  C   C9        1.0  0.40205  0.66539  0.95473  1.0000
  C   C10       1.0  0.59795  0.33461  0.04527  1.0000
  C   C11       1.0  0.39509  0.77415  0.08130  1.0000
  C   C12       1.0  0.60491  0.22584  0.91870  1.0000
  C   C13       1.0  0.58323  0.87532  0.08161  1.0000
  C   C14       1.0  0.41678  0.12466  0.91839  1.0000
  C   C15       1.0  0.59393  0.76503  0.95549  1.0000
  C   C16       1.0  0.40607  0.23496  0.04451  1.0000
  C   C17       1.0  0.69649  0.75835  0.88600  1.0000
  C   C18       1.0  0.30351  0.24164  0.11400  1.0000
  C   C19       1.0  0.87831  0.86615  0.88100  1.0000
  C   C20       1.0  0.12169  0.13383  0.11900  1.0000
  C   C21       1.0  0.96254  0.85439  0.81168  1.0000
  C   C22       1.0  0.03746  0.14561  0.18833  1.0000
  C   C23       1.0  0.87094  0.72957  0.74996  1.0000
  C   C24       1.0  0.12906  0.27043  0.25004  1.0000
  C   C25       1.0  0.60787  0.64467  0.81924  1.0000
  C   C26       1.0  0.39213  0.35533  0.18076  1.0000
  C   C27       1.0  0.41058  0.54486  0.81814  1.0000
  C   C28       1.0  0.58942  0.45514  0.18187  1.0000
  C   C29       1.0  0.28545  0.23117  0.51387  1.0000
  C   C30       1.0  0.71455  0.76884  0.48613  1.0000
  C   C31       1.0  0.22298  0.07316  0.46475  1.0000
  C   C32       1.0  0.77703  0.92685  0.53525  1.0000
  C   C33       1.0  0.29142  0.89894  0.56745  1.0000
  C   C34       1.0  0.70858  0.10106  0.43255  1.0000
  C   C35       1.0  0.36711  0.05631  0.61599  1.0000
  C   C36       1.0  0.63289  0.94370  0.38400  1.0000
  C   C37       1.0  0.46231  0.05617  0.70030  1.0000
  C   C38       1.0  0.53769  0.94383  0.29970  1.0000
  C   C39       1.0  0.28428  0.71032  0.59510  1.0000
  C   C40       1.0  0.71572  0.28968  0.40490  1.0000
  N   N1        1.0  0.33061  0.44637  0.75092  1.0000
  N   N2        1.0  0.66939  0.55364  0.24908  1.0000
  N   N3        1.0  0.69893  0.62651  0.75386  1.0000
  N   N4        1.0  0.30107  0.37349  0.24614  1.0000
  N   N5        1.0  0.30404  0.67019  0.01876  1.0000
  N   N6        1.0  0.69596  0.32981  0.98124  1.0000
  N   N7        1.0  0.68340  0.87055  0.01990  1.0000
  N   N8        1.0  0.31661  0.12944  0.98011  1.0000
  N   N9        1.0  0.36336  0.21969  0.58791  1.0000
  N   N10       1.0  0.63665  0.78031  0.41209  1.0000
  N   N11       1.0  0.22691  0.90938  0.49109  1.0000
  N   N12       1.0  0.77310  0.09063  0.50890  1.0000
  O   O1        1.0  0.60057  0.18730  0.72294  1.0000
  O   O2        1.0  0.39943  0.81270  0.27706  1.0000
  O   O3        1.0  0.39569  0.93245  0.73910  1.0000
  O   O4        1.0  0.60431  0.06755  0.26089  1.0000
  O   O5        1.0  0.77779  0.41328  0.59675  1.0000
  O   O6        1.0  0.22221  0.58673  0.40325  1.0000
  O   O7        1.0  0.11572  0.63449  0.60548  1.0000
  O   O8        1.0  0.88428  0.36552  0.39451  1.0000
  O   O9        1.0  0.45083  0.64724  0.60102  1.0000
  O   O10       1.0  0.54917  0.35276  0.39898  1.0000
