data_image0
_chemical_formula_structural       Ag4H8C28O12F20
_chemical_formula_sum              "Ag4 H8 C28 O12 F20"
_cell_length_a       3.53196
_cell_length_b       13.647
_cell_length_c       18.3894
_cell_angle_alpha    110.843
_cell_angle_beta     89.9996
_cell_angle_gamma    90.0002

_space_group_name_H-M_alt    "P 1"
_space_group_IT_number       1

loop_
  _space_group_symop_operation_xyz
  'x, y, z'

loop_
  _atom_site_type_symbol
  _atom_site_label
  _atom_site_symmetry_multiplicity
  _atom_site_fract_x
  _atom_site_fract_y
  _atom_site_fract_z
  _atom_site_occupancy
  Ag  Ag1       1.0  0.36371  0.16065  0.97961  1.0000
  Ag  Ag2       1.0  0.86371  0.33935  0.02038  1.0000
  Ag  Ag3       1.0  0.63629  0.83935  0.02039  1.0000
  Ag  Ag4       1.0  0.13628  0.66065  0.97962  1.0000
  H   H1        1.0  0.73755  0.94674  0.90265  1.0000
  H   H2        1.0  0.23755  0.55326  0.09735  1.0000
  H   H3        1.0  0.26245  0.05326  0.09735  1.0000
  H   H4        1.0  0.76245  0.44674  0.90265  1.0000
  H   H5        1.0  0.87859  0.02808  0.86573  1.0000
  H   H6        1.0  0.37858  0.47192  0.13427  1.0000
  H   H7        1.0  0.12141  0.97192  0.13427  1.0000
  H   H8        1.0  0.62141  0.52808  0.86573  1.0000
  C   C1        1.0  0.59208  0.20177  0.26732  1.0000
  C   C2        1.0  0.09208  0.29823  0.73268  1.0000
  C   C3        1.0  0.40791  0.79823  0.73268  1.0000
  C   C4        1.0  0.90793  0.70177  0.26732  1.0000
  C   C5        1.0  0.50831  0.28081  0.23795  1.0000
  C   C6        1.0  0.00832  0.21919  0.76205  1.0000
  C   C7        1.0  0.49169  0.71920  0.76205  1.0000
  C   C8        1.0  0.99169  0.78081  0.23795  1.0000
  C   C9        1.0  0.38971  0.37754  0.29171  1.0000
  C   C10       1.0  0.88972  0.12246  0.70829  1.0000
  C   C11       1.0  0.61029  0.62246  0.70829  1.0000
  C   C12       1.0  0.11029  0.87754  0.29171  1.0000
  C   C13       1.0  0.55069  0.26441  0.15279  1.0000
  C   C14       1.0  0.05069  0.23559  0.84721  1.0000
  C   C15       1.0  0.44931  0.73559  0.84721  1.0000
  C   C16       1.0  0.94930  0.76441  0.15279  1.0000
  C   C17       1.0  0.34813  0.39400  0.37064  1.0000
  C   C18       1.0  0.84812  0.10600  0.62935  1.0000
  C   C19       1.0  0.65188  0.60600  0.62935  1.0000
  C   C20       1.0  0.15188  0.89400  0.37065  1.0000
  C   C21       1.0  0.43566  0.31351  0.39801  1.0000
  C   C22       1.0  0.93566  0.18649  0.60199  1.0000
  C   C23       1.0  0.56434  0.68649  0.60199  1.0000
  C   C24       1.0  0.06434  0.81351  0.39801  1.0000
  C   C25       1.0  0.56266  0.21716  0.34620  1.0000
  C   C26       1.0  0.06266  0.28283  0.65380  1.0000
  C   C27       1.0  0.43733  0.78284  0.65380  1.0000
  C   C28       1.0  0.93735  0.71716  0.34620  1.0000
  O   O1        1.0  0.41709  0.17993  0.10407  1.0000
  O   O2        1.0  0.91709  0.32007  0.89593  1.0000
  O   O3        1.0  0.58291  0.82007  0.89593  1.0000
  O   O4        1.0  0.08291  0.67993  0.10407  1.0000
  O   O5        1.0  0.81938  0.02027  0.91517  1.0000
  O   O6        1.0  0.31938  0.47973  0.08483  1.0000
  O   O7        1.0  0.18062  0.97973  0.08483  1.0000
  O   O8        1.0  0.68062  0.52027  0.91517  1.0000
  O   O9        1.0  0.71505  0.33748  0.13813  1.0000
  O   O10       1.0  0.21505  0.16252  0.86187  1.0000
  O   O11       1.0  0.28495  0.66252  0.86187  1.0000
  O   O12       1.0  0.78495  0.83748  0.13813  1.0000
  F   F1        1.0  0.29908  0.45758  0.26831  1.0000
  F   F2        1.0  0.79909  0.04242  0.73169  1.0000
  F   F3        1.0  0.70091  0.54242  0.73169  1.0000
  F   F4        1.0  0.20093  0.95758  0.26831  1.0000
  F   F5        1.0  0.71661  0.10716  0.21952  1.0000
  F   F6        1.0  0.21662  0.39284  0.78048  1.0000
  F   F7        1.0  0.28339  0.89284  0.78048  1.0000
  F   F8        1.0  0.78338  0.60716  0.21952  1.0000
  F   F9        1.0  0.65894  0.14064  0.37270  1.0000
  F   F10       1.0  0.15894  0.35936  0.62731  1.0000
  F   F11       1.0  0.34107  0.85936  0.62731  1.0000
  F   F12       1.0  0.84106  0.64064  0.37269  1.0000
  F   F13       1.0  0.39544  0.32863  0.47375  1.0000
  F   F14       1.0  0.89544  0.17137  0.52625  1.0000
  F   F15       1.0  0.60456  0.67137  0.52625  1.0000
  F   F16       1.0  0.10457  0.82863  0.47375  1.0000
  F   F17       1.0  0.22007  0.48612  0.42066  1.0000
  F   F18       1.0  0.72007  0.01388  0.57935  1.0000
  F   F19       1.0  0.77993  0.51388  0.57934  1.0000
  F   F20       1.0  0.27992  0.98612  0.42065  1.0000
