data_image0
_chemical_formula_structural       Cd2H24C24N4Cl4
_chemical_formula_sum              "Cd2 H24 C24 N4 Cl4"
_cell_length_a       7.26761
_cell_length_b       10.0942
_cell_length_c       10.094
_cell_angle_alpha    61.463
_cell_angle_beta     76.0329
_cell_angle_gamma    76.0319

_space_group_name_H-M_alt    "P 1"
_space_group_IT_number       1

loop_
  _space_group_symop_operation_xyz
  'x, y, z'

loop_
  _atom_site_type_symbol
  _atom_site_label
  _atom_site_symmetry_multiplicity
  _atom_site_fract_x
  _atom_site_fract_y
  _atom_site_fract_z
  _atom_site_occupancy
  Cd  Cd1       1.0  0.75000  0.07030  0.92970  1.0000
  Cd  Cd2       1.0  0.25000  0.92970  0.07030  1.0000
  H   H1        1.0  0.01096  0.51586  0.13360  1.0000
  H   H2        1.0  0.48905  0.86641  0.48413  1.0000
  H   H3        1.0  0.98906  0.48412  0.86641  1.0000
  H   H4        1.0  0.51096  0.13359  0.51587  1.0000
  H   H5        1.0  0.07976  0.33011  0.13940  1.0000
  H   H6        1.0  0.42025  0.86061  0.66988  1.0000
  H   H7        1.0  0.92025  0.66988  0.86061  1.0000
  H   H8        1.0  0.57975  0.13939  0.33012  1.0000
  H   H9        1.0  0.24430  0.41480  0.16745  1.0000
  H   H10       1.0  0.25571  0.83257  0.58518  1.0000
  H   H11       1.0  0.75570  0.58517  0.83257  1.0000
  H   H12       1.0  0.74429  0.16744  0.41481  1.0000
  H   H13       1.0  0.83395  0.52722  0.35857  1.0000
  H   H14       1.0  0.66606  0.64142  0.47278  1.0000
  H   H15       1.0  0.16604  0.47278  0.64142  1.0000
  H   H16       1.0  0.33393  0.35857  0.52722  1.0000
  H   H17       1.0  0.20451  0.11089  0.40140  1.0000
  H   H18       1.0  0.29552  0.59862  0.88909  1.0000
  H   H19       1.0  0.79550  0.88910  0.59862  1.0000
  H   H20       1.0  0.70449  0.40140  0.11090  1.0000
  H   H21       1.0  0.08161  0.99750  0.68353  1.0000
  H   H22       1.0  0.41839  0.31649  0.00248  1.0000
  H   H23       1.0  0.91839  0.00250  0.31648  1.0000
  H   H24       1.0  0.58161  0.68352  0.99752  1.0000
  C   C1        1.0  0.82514  0.33681  0.58483  1.0000
  C   C2        1.0  0.67487  0.41515  0.66320  1.0000
  C   C3        1.0  0.17484  0.66320  0.41516  1.0000
  C   C4        1.0  0.32512  0.58485  0.33680  1.0000
  C   C5        1.0  0.89065  0.40927  0.42833  1.0000
  C   C6        1.0  0.60935  0.57169  0.59070  1.0000
  C   C7        1.0  0.10934  0.59071  0.57167  1.0000
  C   C8        1.0  0.39064  0.42832  0.40928  1.0000
  C   C9        1.0  0.09794  0.17801  0.45073  1.0000
  C   C10       1.0  0.40206  0.54931  0.82197  1.0000
  C   C11       1.0  0.90206  0.82197  0.54930  1.0000
  C   C12       1.0  0.59794  0.45070  0.17803  1.0000
  C   C13       1.0  0.02674  0.32950  0.35790  1.0000
  C   C14       1.0  0.47325  0.64210  0.67050  1.0000
  C   C15       1.0  0.97325  0.67050  0.64209  1.0000
  C   C16       1.0  0.52675  0.35791  0.32948  1.0000
  C   C17       1.0  0.02984  0.11422  0.60601  1.0000
  C   C18       1.0  0.47016  0.39399  0.88578  1.0000
  C   C19       1.0  0.97016  0.88578  0.39399  1.0000
  C   C20       1.0  0.52984  0.60602  0.11421  1.0000
  C   C21       1.0  0.09222  0.40226  0.19005  1.0000
  C   C22       1.0  0.40780  0.80996  0.59773  1.0000
  C   C23       1.0  0.90779  0.59773  0.80995  1.0000
  C   C24       1.0  0.59221  0.19004  0.40227  1.0000
  N   N1        1.0  0.89513  0.19063  0.67112  1.0000
  N   N2        1.0  0.60487  0.32888  0.80936  1.0000
  N   N3        1.0  0.10487  0.80936  0.32888  1.0000
  N   N4        1.0  0.39512  0.67112  0.19063  1.0000
  Cl  Cl1       1.0  0.50288  0.00905  0.17541  1.0000
  Cl  Cl2       1.0  0.99713  0.82459  0.99094  1.0000
  Cl  Cl3       1.0  0.49712  0.99096  0.82459  1.0000
  Cl  Cl4       1.0  0.00288  0.17541  0.00905  1.0000
