data_image0
_chemical_formula_structural       Cu2H36C56N8O10
_chemical_formula_sum              "Cu2 H36 C56 N8 O10"
_cell_length_a       8.78561
_cell_length_b       10.924
_cell_length_c       12.5928
_cell_angle_alpha    93.1579
_cell_angle_beta     101.459
_cell_angle_gamma    103.741

_space_group_name_H-M_alt    "P 1"
_space_group_IT_number       1

loop_
  _space_group_symop_operation_xyz
  'x, y, z'

loop_
  _atom_site_type_symbol
  _atom_site_label
  _atom_site_symmetry_multiplicity
  _atom_site_fract_x
  _atom_site_fract_y
  _atom_site_fract_z
  _atom_site_occupancy
  Cu  Cu1       1.0  0.52014  0.43444  0.22985  1.0000
  Cu  Cu2       1.0  0.47987  0.56556  0.77015  1.0000
  H   H1        1.0  0.14042  0.60002  0.63896  1.0000
  H   H2        1.0  0.85958  0.39997  0.36105  1.0000
  H   H3        1.0  0.41291  0.21787  0.36787  1.0000
  H   H4        1.0  0.58710  0.78213  0.63213  1.0000
  H   H5        1.0  0.27084  0.20191  0.52344  1.0000
  H   H6        1.0  0.72916  0.79808  0.47656  1.0000
  H   H7        1.0  0.17994  0.38883  0.58786  1.0000
  H   H8        1.0  0.82007  0.61116  0.41214  1.0000
  H   H9        1.0  0.99466  0.68957  0.72293  1.0000
  H   H10       1.0  0.00535  0.31043  0.27708  1.0000
  H   H11       1.0  0.89154  0.81603  0.84849  1.0000
  H   H12       1.0  0.10846  0.18397  0.15151  1.0000
  H   H13       1.0  0.91967  0.21904  0.94180  1.0000
  H   H14       1.0  0.08032  0.78095  0.05820  1.0000
  H   H15       1.0  0.94625  0.23373  0.80554  1.0000
  H   H16       1.0  0.05374  0.76627  0.19446  1.0000
  H   H17       1.0  0.11171  0.22203  0.91239  1.0000
  H   H18       1.0  0.88828  0.77796  0.08761  1.0000
  H   H19       1.0  0.09547  0.15637  0.71371  1.0000
  H   H20       1.0  0.90451  0.84363  0.28629  1.0000
  H   H21       1.0  0.19177  0.02720  0.58520  1.0000
  H   H22       1.0  0.80822  0.97280  0.41481  1.0000
  H   H23       1.0  0.35809  0.91737  0.30593  1.0000
  H   H24       1.0  0.64191  0.08264  0.69407  1.0000
  H   H25       1.0  0.50405  0.89122  0.15750  1.0000
  H   H26       1.0  0.49594  0.10878  0.84250  1.0000
  H   H27       1.0  0.57077  0.68356  0.12056  1.0000
  H   H28       1.0  0.42923  0.31643  0.87944  1.0000
  H   H29       1.0  0.73166  0.15055  0.12506  1.0000
  H   H30       1.0  0.26834  0.84945  0.87493  1.0000
  H   H31       1.0  0.22556  0.03233  0.98384  1.0000
  H   H32       1.0  0.77444  0.96767  0.01616  1.0000
  H   H33       1.0  0.72632  0.53587  0.95768  1.0000
  H   H34       1.0  0.27369  0.46414  0.04231  1.0000
  H   H35       1.0  0.11650  0.46280  0.18795  1.0000
  H   H36       1.0  0.88352  0.53720  0.81204  1.0000
  C   C1        1.0  0.37028  0.29625  0.39772  1.0000
  C   C2        1.0  0.62972  0.70375  0.60229  1.0000
  C   C3        1.0  0.29118  0.28920  0.48470  1.0000
  C   C4        1.0  0.70882  0.71080  0.51530  1.0000
  C   C5        1.0  0.23987  0.39183  0.51961  1.0000
  C   C6        1.0  0.76013  0.60818  0.48039  1.0000
  C   C7        1.0  0.26786  0.50306  0.46638  1.0000
  C   C8        1.0  0.73214  0.49694  0.53362  1.0000
  C   C9        1.0  0.22985  0.61889  0.49311  1.0000
  C   C10       1.0  0.77016  0.38111  0.50690  1.0000
  C   C11       1.0  0.16128  0.77942  0.56904  1.0000
  C   C12       1.0  0.83873  0.22058  0.43096  1.0000
  C   C13       1.0  0.10126  0.85070  0.64502  1.0000
  C   C14       1.0  0.89875  0.14930  0.35498  1.0000
  C   C15       1.0  0.01635  0.79173  0.72015  1.0000
  C   C16       1.0  0.98365  0.20828  0.27985  1.0000
  C   C17       1.0  0.95917  0.86165  0.79122  1.0000
  C   C18       1.0  0.04082  0.13835  0.20878  1.0000
  C   C19       1.0  0.98821  0.99384  0.79017  1.0000
  C   C20       1.0  0.01178  0.00615  0.20982  1.0000
  C   C21       1.0  0.98106  0.19072  0.88061  1.0000
  C   C22       1.0  0.01893  0.80928  0.11939  1.0000
  C   C23       1.0  0.07306  0.05433  0.71605  1.0000
  C   C24       1.0  0.92693  0.94567  0.28394  1.0000
  C   C25       1.0  0.12712  0.98244  0.64405  1.0000
  C   C26       1.0  0.87287  0.01756  0.35595  1.0000
  C   C27       1.0  0.26576  0.72738  0.43779  1.0000
  C   C28       1.0  0.73425  0.27262  0.56222  1.0000
  C   C29       1.0  0.34423  0.72618  0.34855  1.0000
  C   C30       1.0  0.65577  0.27382  0.65146  1.0000
  C   C31       1.0  0.38828  0.82845  0.28777  1.0000
  C   C32       1.0  0.61172  0.17156  0.71223  1.0000
  C   C33       1.0  0.46854  0.81405  0.20561  1.0000
  C   C34       1.0  0.53145  0.18595  0.79439  1.0000
  C   C35       1.0  0.50737  0.69878  0.18442  1.0000
  C   C36       1.0  0.49262  0.30123  0.81557  1.0000
  C   C37       1.0  0.38640  0.61259  0.32167  1.0000
  C   C38       1.0  0.61360  0.38741  0.67833  1.0000
  C   C39       1.0  0.34842  0.50279  0.37906  1.0000
  C   C40       1.0  0.65158  0.49721  0.62095  1.0000
  C   C41       1.0  0.45240  0.21674  0.11890  1.0000
  C   C42       1.0  0.54760  0.78325  0.88109  1.0000
  C   C43       1.0  0.47618  0.10253  0.06023  1.0000
  C   C44       1.0  0.52381  0.89746  0.93976  1.0000
  C   C45       1.0  0.63095  0.08429  0.07002  1.0000
  C   C46       1.0  0.36904  0.91570  0.92997  1.0000
  C   C47       1.0  0.34516  0.01770  0.99000  1.0000
  C   C48       1.0  0.65483  0.98229  0.01000  1.0000
  C   C49       1.0  0.81765  0.49418  0.16842  1.0000
  C   C50       1.0  0.18236  0.50582  0.83158  1.0000
  C   C51       1.0  0.91159  0.49753  0.08110  1.0000
  C   C52       1.0  0.08843  0.50247  0.91889  1.0000
  C   C53       1.0  0.84506  0.51830  0.97503  1.0000
  C   C54       1.0  0.15495  0.48171  0.02496  1.0000
  C   C55       1.0  0.06672  0.47924  0.10533  1.0000
  C   C56       1.0  0.93329  0.52077  0.89466  1.0000
  N   N1        1.0  0.39800  0.40072  0.34720  1.0000
  N   N2        1.0  0.60200  0.59928  0.65280  1.0000
  N   N3        1.0  0.46779  0.60175  0.24194  1.0000
  N   N4        1.0  0.53221  0.39826  0.75806  1.0000
  N   N5        1.0  0.16237  0.65401  0.57513  1.0000
  N   N6        1.0  0.83764  0.34599  0.42488  1.0000
  N   N7        1.0  0.22207  0.82568  0.48535  1.0000
  N   N8        1.0  0.77794  0.17432  0.51466  1.0000
  O   O1        1.0  0.34380  0.26767  0.07733  1.0000
  O   O2        1.0  0.65619  0.73233  0.92267  1.0000
  O   O3        1.0  0.55287  0.26200  0.21105  1.0000
  O   O4        1.0  0.44712  0.73800  0.78895  1.0000
  O   O5        1.0  0.66741  0.48844  0.13462  1.0000
  O   O6        1.0  0.33260  0.51157  0.86538  1.0000
  O   O7        1.0  0.88825  0.49732  0.26666  1.0000
  O   O8        1.0  0.11177  0.50268  0.73334  1.0000
  O   O9        1.0  0.92926  0.05478  0.86363  1.0000
  O   O10       1.0  0.07072  0.94521  0.13636  1.0000
