data_image0
_chemical_formula_structural       Zn4H28C48O20
_chemical_formula_sum              "Zn4 H28 C48 O20"
_cell_length_a       7.65611
_cell_length_b       12.227
_cell_length_c       12.227
_cell_angle_alpha    85.2828
_cell_angle_beta     86.5544
_cell_angle_gamma    86.5545

_space_group_name_H-M_alt    "P 1"
_space_group_IT_number       1

loop_
  _space_group_symop_operation_xyz
  'x, y, z'

loop_
  _atom_site_type_symbol
  _atom_site_label
  _atom_site_symmetry_multiplicity
  _atom_site_fract_x
  _atom_site_fract_y
  _atom_site_fract_z
  _atom_site_occupancy
  Zn  Zn1       1.0  0.56595  0.76466  0.70225  1.0000
  Zn  Zn2       1.0  0.93405  0.29775  0.23534  1.0000
  Zn  Zn3       1.0  0.43405  0.23534  0.29775  1.0000
  Zn  Zn4       1.0  0.06595  0.70225  0.76466  1.0000
  H   H1        1.0  0.30603  0.05269  0.53815  1.0000
  H   H2        1.0  0.19397  0.46185  0.94731  1.0000
  H   H3        1.0  0.69397  0.94731  0.46185  1.0000
  H   H4        1.0  0.80603  0.53815  0.05269  1.0000
  H   H5        1.0  0.78868  0.20927  0.56027  1.0000
  H   H6        1.0  0.71132  0.43973  0.79073  1.0000
  H   H7        1.0  0.21132  0.79073  0.43973  1.0000
  H   H8        1.0  0.28868  0.56027  0.20927  1.0000
  H   H9        1.0  0.93051  0.93878  0.79362  1.0000
  H   H10       1.0  0.56949  0.20638  0.06122  1.0000
  H   H11       1.0  0.06949  0.06122  0.20638  1.0000
  H   H12       1.0  0.43050  0.79362  0.93878  1.0000
  H   H13       1.0  0.51005  0.13341  0.62686  1.0000
  H   H14       1.0  0.98995  0.37314  0.86659  1.0000
  H   H15       1.0  0.48995  0.86659  0.37314  1.0000
  H   H16       1.0  0.01005  0.62686  0.13341  1.0000
  H   H17       1.0  0.59027  0.23737  0.70203  1.0000
  H   H18       1.0  0.90972  0.29798  0.76263  1.0000
  H   H19       1.0  0.40973  0.76263  0.29797  1.0000
  H   H20       1.0  0.09027  0.70202  0.23737  1.0000
  H   H21       1.0  0.50512  0.99760  0.88220  1.0000
  H   H22       1.0  0.99487  0.11780  0.00239  1.0000
  H   H23       1.0  0.49487  0.00240  0.11780  1.0000
  H   H24       1.0  0.00513  0.88220  0.99761  1.0000
  H   H25       1.0  0.25000  0.98273  0.01727  1.0000
  H   H26       1.0  0.75000  0.01727  0.98273  1.0000
  H   H27       1.0  0.25000  0.28256  0.71744  1.0000
  H   H28       1.0  0.75000  0.71743  0.28256  1.0000
  C   C1        1.0  0.13249  0.98535  0.66957  1.0000
  C   C2        1.0  0.36750  0.33043  0.01465  1.0000
  C   C3        1.0  0.86751  0.01465  0.33043  1.0000
  C   C4        1.0  0.63249  0.66957  0.98535  1.0000
  C   C5        1.0  0.17704  0.05933  0.58004  1.0000
  C   C6        1.0  0.32296  0.41996  0.94067  1.0000
  C   C7        1.0  0.82296  0.94067  0.41996  1.0000
  C   C8        1.0  0.67704  0.58004  0.05933  1.0000
  C   C9        1.0  0.05342  0.14013  0.54311  1.0000
  C   C10       1.0  0.44658  0.45689  0.85987  1.0000
  C   C11       1.0  0.94658  0.85987  0.45689  1.0000
  C   C12       1.0  0.55342  0.54311  0.14013  1.0000
  C   C13       1.0  0.88393  0.14773  0.59374  1.0000
  C   C14       1.0  0.61607  0.40626  0.85227  1.0000
  C   C15       1.0  0.11607  0.85227  0.40626  1.0000
  C   C16       1.0  0.38393  0.59374  0.14773  1.0000
  C   C17       1.0  0.84256  0.07575  0.68532  1.0000
  C   C18       1.0  0.65744  0.31468  0.92425  1.0000
  C   C19       1.0  0.15744  0.92425  0.31468  1.0000
  C   C20       1.0  0.34256  0.68532  0.07575  1.0000
  C   C21       1.0  0.96698  0.99467  0.72314  1.0000
  C   C22       1.0  0.53302  0.27686  0.00533  1.0000
  C   C23       1.0  0.03302  0.00533  0.27686  1.0000
  C   C24       1.0  0.46698  0.72314  0.99467  1.0000
  C   C25       1.0  0.26058  0.89598  0.70663  1.0000
  C   C26       1.0  0.23943  0.29337  0.10402  1.0000
  C   C27       1.0  0.73942  0.10402  0.29337  1.0000
  C   C28       1.0  0.76058  0.70663  0.89598  1.0000
  C   C29       1.0  0.54718  0.15229  0.70895  1.0000
  C   C30       1.0  0.95281  0.29105  0.84771  1.0000
  C   C31       1.0  0.45281  0.84771  0.29105  1.0000
  C   C32       1.0  0.04718  0.70895  0.15229  1.0000
  C   C33       1.0  0.39457  0.14154  0.79192  1.0000
  C   C34       1.0  0.10542  0.20808  0.85846  1.0000
  C   C35       1.0  0.60543  0.85846  0.20808  1.0000
  C   C36       1.0  0.89457  0.79192  0.14154  1.0000
  C   C37       1.0  0.39353  0.05676  0.87618  1.0000
  C   C38       1.0  0.10646  0.12382  0.94324  1.0000
  C   C39       1.0  0.60647  0.94324  0.12382  1.0000
  C   C40       1.0  0.89353  0.87618  0.05676  1.0000
  C   C41       1.0  0.25000  0.04853  0.95147  1.0000
  C   C42       1.0  0.75000  0.95147  0.04853  1.0000
  C   C43       1.0  0.25000  0.21659  0.78341  1.0000
  C   C44       1.0  0.75000  0.78341  0.21659  1.0000
  C   C45       1.0  0.10342  0.21562  0.44531  1.0000
  C   C46       1.0  0.39659  0.55469  0.78438  1.0000
  C   C47       1.0  0.89659  0.78438  0.55469  1.0000
  C   C48       1.0  0.60341  0.44531  0.21562  1.0000
  O   O1        1.0  0.41346  0.89280  0.65775  1.0000
  O   O2        1.0  0.08654  0.34225  0.10720  1.0000
  O   O3        1.0  0.58654  0.10720  0.34225  1.0000
  O   O4        1.0  0.91346  0.65775  0.89280  1.0000
  O   O5        1.0  0.21809  0.82465  0.78490  1.0000
  O   O6        1.0  0.28191  0.21510  0.17535  1.0000
  O   O7        1.0  0.78191  0.17535  0.21510  1.0000
  O   O8        1.0  0.71809  0.78490  0.82465  1.0000
  O   O9        1.0  0.26619  0.22793  0.42600  1.0000
  O   O10       1.0  0.23381  0.57401  0.77207  1.0000
  O   O11       1.0  0.73381  0.77207  0.57401  1.0000
  O   O12       1.0  0.76619  0.42600  0.22793  1.0000
  O   O13       1.0  0.97896  0.26214  0.39021  1.0000
  O   O14       1.0  0.52105  0.60979  0.73786  1.0000
  O   O15       1.0  0.02105  0.73786  0.60979  1.0000
  O   O16       1.0  0.47896  0.39021  0.26214  1.0000
  O   O17       1.0  0.68646  0.07709  0.74459  1.0000
  O   O18       1.0  0.81353  0.25541  0.92291  1.0000
  O   O19       1.0  0.31353  0.92291  0.25541  1.0000
  O   O20       1.0  0.18647  0.74459  0.07709  1.0000
