data_image0
_chemical_formula_structural       Ti2H36C44N4O8
_chemical_formula_sum              "Ti2 H36 C44 N4 O8"
_cell_length_a       8.3122
_cell_length_b       10.2802
_cell_length_c       11.0203
_cell_angle_alpha    90.952
_cell_angle_beta     91.7283
_cell_angle_gamma    91.5094

_space_group_name_H-M_alt    "P 1"
_space_group_IT_number       1

loop_
  _space_group_symop_operation_xyz
  'x, y, z'

loop_
  _atom_site_type_symbol
  _atom_site_label
  _atom_site_symmetry_multiplicity
  _atom_site_fract_x
  _atom_site_fract_y
  _atom_site_fract_z
  _atom_site_occupancy
  Ti  Ti1       1.0  0.00000  0.50000  1.00000  1.0000
  Ti  Ti2       1.0  1.00000  1.00000  0.50000  1.0000
  H   H1        1.0  0.21716  0.39032  0.28433  1.0000
  H   H2        1.0  0.78285  0.60969  0.71567  1.0000
  H   H3        1.0  0.25993  0.41763  0.50818  1.0000
  H   H4        1.0  0.74007  0.58237  0.49182  1.0000
  H   H5        1.0  0.19089  0.62591  0.61249  1.0000
  H   H6        1.0  0.80910  0.37409  0.38752  1.0000
  H   H7        1.0  0.02902  0.77743  0.26959  1.0000
  H   H8        1.0  0.97097  0.22257  0.73041  1.0000
  H   H9        1.0  0.20175  0.52110  0.77260  1.0000
  H   H10       1.0  0.79826  0.47891  0.22740  1.0000
  H   H11       1.0  0.46270  0.44358  0.68993  1.0000
  H   H12       1.0  0.53731  0.55643  0.31007  1.0000
  H   H13       1.0  0.63321  0.30056  0.81933  1.0000
  H   H14       1.0  0.36679  0.69944  0.18067  1.0000
  H   H15       1.0  0.54126  0.24319  0.02700  1.0000
  H   H16       1.0  0.45874  0.75681  0.97300  1.0000
  H   H17       1.0  0.27680  0.32972  0.09502  1.0000
  H   H18       1.0  0.72320  0.67028  0.90498  1.0000
  H   H19       1.0  0.27851  0.18281  0.59039  1.0000
  H   H20       1.0  0.72148  0.81718  0.40960  1.0000
  H   H21       1.0  0.55443  0.26076  0.52970  1.0000
  H   H22       1.0  0.44556  0.73924  0.47030  1.0000
  H   H23       1.0  0.66383  0.17428  0.33578  1.0000
  H   H24       1.0  0.33617  0.82572  0.66422  1.0000
  H   H25       1.0  0.49188  0.01909  0.20714  1.0000
  H   H26       1.0  0.50813  0.98091  0.79286  1.0000
  H   H27       1.0  0.21615  0.95591  0.27840  1.0000
  H   H28       1.0  0.78385  0.04409  0.72159  1.0000
  H   H29       1.0  0.17928  0.80370  0.08277  1.0000
  H   H30       1.0  0.82072  0.19630  0.91723  1.0000
  H   H31       1.0  0.27355  0.03426  0.05077  1.0000
  H   H32       1.0  0.72646  0.96574  0.94923  1.0000
  H   H33       1.0  0.22342  0.13895  0.85123  1.0000
  H   H34       1.0  0.77658  0.86105  0.14877  1.0000
  H   H35       1.0  0.99127  0.78354  0.71463  1.0000
  H   H36       1.0  0.00873  0.21646  0.28537  1.0000
  C   C1        1.0  0.12233  0.58313  0.26219  1.0000
  C   C2        1.0  0.87767  0.41687  0.73781  1.0000
  C   C3        1.0  0.18767  0.48083  0.33018  1.0000
  C   C4        1.0  0.81233  0.51917  0.66982  1.0000
  C   C5        1.0  0.21191  0.49746  0.45549  1.0000
  C   C6        1.0  0.78809  0.50254  0.54452  1.0000
  C   C7        1.0  0.17356  0.61274  0.51477  1.0000
  C   C8        1.0  0.82644  0.38725  0.48524  1.0000
  C   C9        1.0  0.10777  0.71531  0.44766  1.0000
  C   C10       1.0  0.89222  0.28469  0.55235  1.0000
  C   C11       1.0  0.08182  0.69937  0.32170  1.0000
  C   C12       1.0  0.91818  0.30063  0.67830  1.0000
  C   C13       1.0  0.28115  0.45896  0.82475  1.0000
  C   C14       1.0  0.71885  0.54104  0.17525  1.0000
  C   C15       1.0  0.42459  0.41455  0.77953  1.0000
  C   C16       1.0  0.57541  0.58544  0.22047  1.0000
  C   C17       1.0  0.51982  0.33549  0.85220  1.0000
  C   C18       1.0  0.48018  0.66451  0.14779  1.0000
  C   C19       1.0  0.46884  0.30396  0.96779  1.0000
  C   C20       1.0  0.53115  0.69604  0.03221  1.0000
  C   C21       1.0  0.32386  0.35206  0.00635  1.0000
  C   C22       1.0  0.67614  0.64794  0.99365  1.0000
  C   C23       1.0  0.33042  0.15130  0.50543  1.0000
  C   C24       1.0  0.66957  0.84869  0.49457  1.0000
  C   C25       1.0  0.48271  0.19329  0.47157  1.0000
  C   C26       1.0  0.51729  0.80671  0.52844  1.0000
  C   C27       1.0  0.54309  0.14598  0.36306  1.0000
  C   C28       1.0  0.45691  0.85402  0.63694  1.0000
  C   C29       1.0  0.44749  0.05941  0.29150  1.0000
  C   C30       1.0  0.55251  0.94058  0.70850  1.0000
  C   C31       1.0  0.29554  0.02304  0.33082  1.0000
  C   C32       1.0  0.70446  0.97695  0.66918  1.0000
  C   C33       1.0  0.08262  0.77903  0.90004  1.0000
  C   C34       1.0  0.91739  0.22097  0.09996  1.0000
  C   C35       1.0  0.16262  0.85024  0.99552  1.0000
  C   C36       1.0  0.83739  0.14976  0.00448  1.0000
  C   C37       1.0  0.21382  0.97837  0.97649  1.0000
  C   C38       1.0  0.78619  0.02163  0.02350  1.0000
  C   C39       1.0  0.18610  0.03820  0.86540  1.0000
  C   C40       1.0  0.81390  0.96180  0.13460  1.0000
  C   C41       1.0  0.10396  0.96830  0.77012  1.0000
  C   C42       1.0  0.89604  0.03170  0.22987  1.0000
  C   C43       1.0  0.05307  0.83869  0.78811  1.0000
  C   C44       1.0  0.94694  0.16131  0.21189  1.0000
  N   N1        1.0  0.23174  0.42826  0.93619  1.0000
  N   N2        1.0  0.76826  0.57174  0.06381  1.0000
  N   N3        1.0  0.23817  0.06744  0.43643  1.0000
  N   N4        1.0  0.76182  0.93256  0.56357  1.0000
  O   O1        1.0  0.10166  0.57500  0.14181  1.0000
  O   O2        1.0  0.89834  0.42500  0.85819  1.0000
  O   O3        1.0  0.07380  0.82665  0.50461  1.0000
  O   O4        1.0  0.92619  0.17335  0.49539  1.0000
  O   O5        1.0  0.03275  0.65541  0.91270  1.0000
  O   O6        1.0  0.96725  0.34460  0.08730  1.0000
  O   O7        1.0  0.07207  0.02723  0.66503  1.0000
  O   O8        1.0  0.92793  0.97277  0.33497  1.0000
