data_image0
_chemical_formula_structural       Ti2H52C68N4O8
_chemical_formula_sum              "Ti2 H52 C68 N4 O8"
_cell_length_a       8.12629
_cell_length_b       11.4692
_cell_length_c       15.4224
_cell_angle_alpha    111.145
_cell_angle_beta     89.9999
_cell_angle_gamma    90.0002

_space_group_name_H-M_alt    "P 1"
_space_group_IT_number       1

loop_
  _space_group_symop_operation_xyz
  'x, y, z'

loop_
  _atom_site_type_symbol
  _atom_site_label
  _atom_site_symmetry_multiplicity
  _atom_site_fract_x
  _atom_site_fract_y
  _atom_site_fract_z
  _atom_site_occupancy
  Ti  Ti1       1.0  0.49999  0.50000  1.00000  1.0000
  Ti  Ti2       1.0  0.00000  0.50000  0.50000  1.0000
  H   H1        1.0  0.72936  0.21319  0.75756  1.0000
  H   H2        1.0  0.22936  0.78681  0.74244  1.0000
  H   H3        1.0  0.27063  0.78681  0.24244  1.0000
  H   H4        1.0  0.77064  0.21319  0.25756  1.0000
  H   H5        1.0  0.84540  0.20873  0.60523  1.0000
  H   H6        1.0  0.34540  0.79128  0.89477  1.0000
  H   H7        1.0  0.15460  0.79128  0.39477  1.0000
  H   H8        1.0  0.65460  0.20872  0.10523  1.0000
  H   H9        1.0  0.76485  0.60494  0.69025  1.0000
  H   H10       1.0  0.26485  0.39506  0.80975  1.0000
  H   H11       1.0  0.23514  0.39507  0.30976  1.0000
  H   H12       1.0  0.73514  0.60493  0.19024  1.0000
  H   H13       1.0  0.64008  0.60689  0.83803  1.0000
  H   H14       1.0  0.14009  0.39310  0.66197  1.0000
  H   H15       1.0  0.35991  0.39311  0.16198  1.0000
  H   H16       1.0  0.85991  0.60689  0.33802  1.0000
  H   H17       1.0  0.87065  0.52067  0.95201  1.0000
  H   H18       1.0  0.37067  0.47933  0.54799  1.0000
  H   H19       1.0  0.12934  0.47933  0.04798  1.0000
  H   H20       1.0  0.62935  0.52067  0.45201  1.0000
  H   H21       1.0  0.09530  0.67759  0.98824  1.0000
  H   H22       1.0  0.59530  0.32240  0.51176  1.0000
  H   H23       1.0  0.90470  0.32240  0.01176  1.0000
  H   H24       1.0  0.40470  0.67759  0.48824  1.0000
  H   H25       1.0  0.28038  0.80217  0.07650  1.0000
  H   H26       1.0  0.78038  0.19784  0.42350  1.0000
  H   H27       1.0  0.71962  0.19783  0.92350  1.0000
  H   H28       1.0  0.21962  0.80217  0.57650  1.0000
  H   H29       1.0  0.48536  0.97255  0.10675  1.0000
  H   H30       1.0  0.98536  0.02746  0.39325  1.0000
  H   H31       1.0  0.51464  0.02745  0.89325  1.0000
  H   H32       1.0  0.01464  0.97255  0.60675  1.0000
  H   H33       1.0  0.09389  0.24340  0.16099  1.0000
  H   H34       1.0  0.59389  0.75660  0.33901  1.0000
  H   H35       1.0  0.90611  0.75660  0.83901  1.0000
  H   H36       1.0  0.40612  0.24339  0.66099  1.0000
  H   H37       1.0  0.89015  0.07369  0.12533  1.0000
  H   H38       1.0  0.39015  0.92631  0.37468  1.0000
  H   H39       1.0  0.10985  0.92631  0.87468  1.0000
  H   H40       1.0  0.60986  0.07369  0.62533  1.0000
  H   H41       1.0  0.75527  0.94341  0.17237  1.0000
  H   H42       1.0  0.25527  0.05659  0.32763  1.0000
  H   H43       1.0  0.24473  0.05659  0.82763  1.0000
  H   H44       1.0  0.74473  0.94341  0.67237  1.0000
  H   H45       1.0  0.54472  0.77501  0.12618  1.0000
  H   H46       1.0  0.04473  0.22499  0.37382  1.0000
  H   H47       1.0  0.45528  0.22499  0.87382  1.0000
  H   H48       1.0  0.95528  0.77501  0.62618  1.0000
  H   H49       1.0  0.39448  0.19352  0.15237  1.0000
  H   H50       1.0  0.89448  0.80649  0.34762  1.0000
  H   H51       1.0  0.60552  0.80649  0.84763  1.0000
  H   H52       1.0  0.10553  0.19351  0.65237  1.0000
  C   C1        1.0  0.67526  0.40988  0.80700  1.0000
  C   C2        1.0  0.17527  0.59012  0.69300  1.0000
  C   C3        1.0  0.32473  0.59013  0.19300  1.0000
  C   C4        1.0  0.82473  0.40988  0.30700  1.0000
  C   C5        1.0  0.73616  0.29809  0.74131  1.0000
  C   C6        1.0  0.23616  0.70191  0.75869  1.0000
  C   C7        1.0  0.26383  0.70192  0.25869  1.0000
  C   C8        1.0  0.76384  0.29808  0.24131  1.0000
  C   C9        1.0  0.80174  0.29589  0.65733  1.0000
  C   C10       1.0  0.30173  0.70411  0.84267  1.0000
  C   C11       1.0  0.19826  0.70412  0.34267  1.0000
  C   C12       1.0  0.69826  0.29589  0.15733  1.0000
  C   C13       1.0  0.81377  0.40644  0.63758  1.0000
  C   C14       1.0  0.31377  0.59357  0.86243  1.0000
  C   C15       1.0  0.18623  0.59358  0.36243  1.0000
  C   C16       1.0  0.68623  0.40643  0.13757  1.0000
  C   C17       1.0  0.75552  0.51878  0.70437  1.0000
  C   C18       1.0  0.25551  0.48122  0.79562  1.0000
  C   C19       1.0  0.24448  0.48123  0.29563  1.0000
  C   C20       1.0  0.74448  0.51878  0.20437  1.0000
  C   C21       1.0  0.68681  0.52024  0.78713  1.0000
  C   C22       1.0  0.18682  0.47975  0.71287  1.0000
  C   C23       1.0  0.31318  0.47976  0.21287  1.0000
  C   C24       1.0  0.81318  0.52024  0.28713  1.0000
  C   C25       1.0  0.85070  0.61589  0.00018  1.0000
  C   C26       1.0  0.35072  0.38411  0.49982  1.0000
  C   C27       1.0  0.14929  0.38411  0.99982  1.0000
  C   C28       1.0  0.64929  0.61589  0.50018  1.0000
  C   C29       1.0  0.97559  0.70434  0.02119  1.0000
  C   C30       1.0  0.47560  0.29566  0.47881  1.0000
  C   C31       1.0  0.02440  0.29566  0.97881  1.0000
  C   C32       1.0  0.52441  0.70433  0.52119  1.0000
  C   C33       1.0  0.94461  0.82727  0.08179  1.0000
  C   C34       1.0  0.44462  0.17273  0.41821  1.0000
  C   C35       1.0  0.05538  0.17273  0.91821  1.0000
  C   C36       1.0  0.55538  0.82726  0.58179  1.0000
  C   C37       1.0  0.23929  0.89881  0.09527  1.0000
  C   C38       1.0  0.73929  0.10119  0.40473  1.0000
  C   C39       1.0  0.76071  0.10119  0.90474  1.0000
  C   C40       1.0  0.26071  0.89881  0.59526  1.0000
  C   C41       1.0  0.35447  0.99485  0.11279  1.0000
  C   C42       1.0  0.85447  0.00515  0.38721  1.0000
  C   C43       1.0  0.64553  0.00515  0.88722  1.0000
  C   C44       1.0  0.14553  0.99485  0.61278  1.0000
  C   C45       1.0  0.30347  0.11906  0.13756  1.0000
  C   C46       1.0  0.80347  0.88095  0.36243  1.0000
  C   C47       1.0  0.69653  0.88094  0.86244  1.0000
  C   C48       1.0  0.19654  0.11906  0.63756  1.0000
  C   C49       1.0  0.13569  0.14722  0.14311  1.0000
  C   C50       1.0  0.63570  0.85278  0.35689  1.0000
  C   C51       1.0  0.86431  0.85278  0.85689  1.0000
  C   C52       1.0  0.36432  0.14722  0.64311  1.0000
  C   C53       1.0  0.02052  0.05143  0.12471  1.0000
  C   C54       1.0  0.52052  0.94857  0.37529  1.0000
  C   C55       1.0  0.97948  0.94857  0.87529  1.0000
  C   C56       1.0  0.47949  0.05143  0.62471  1.0000
  C   C57       1.0  0.06996  0.92641  0.10176  1.0000
  C   C58       1.0  0.56996  0.07359  0.39824  1.0000
  C   C59       1.0  0.93004  0.07359  0.89825  1.0000
  C   C60       1.0  0.43004  0.92641  0.60176  1.0000
  C   C61       1.0  0.78628  0.85219  0.12106  1.0000
  C   C62       1.0  0.28628  0.14781  0.37894  1.0000
  C   C63       1.0  0.21372  0.14781  0.87894  1.0000
  C   C64       1.0  0.71372  0.85218  0.62106  1.0000
  C   C65       1.0  0.66797  0.75900  0.09647  1.0000
  C   C66       1.0  0.16798  0.24100  0.40353  1.0000
  C   C67       1.0  0.33203  0.24100  0.90353  1.0000
  C   C68       1.0  0.83203  0.75900  0.59647  1.0000
  N   N1        1.0  0.69789  0.64227  0.03607  1.0000
  N   N2        1.0  0.19790  0.35773  0.46393  1.0000
  N   N3        1.0  0.30211  0.35773  0.96392  1.0000
  N   N4        1.0  0.80211  0.64227  0.53607  1.0000
  O   O1        1.0  0.61082  0.41030  0.88709  1.0000
  O   O2        1.0  0.11084  0.58970  0.61291  1.0000
  O   O3        1.0  0.38917  0.58971  0.11291  1.0000
  O   O4        1.0  0.88917  0.41029  0.38709  1.0000
  O   O5        1.0  0.87667  0.40270  0.55626  1.0000
  O   O6        1.0  0.37667  0.59730  0.94375  1.0000
  O   O7        1.0  0.12333  0.59731  0.44375  1.0000
  O   O8        1.0  0.62333  0.40270  0.05625  1.0000
