data_image0
_chemical_formula_structural       Bi2H16C16N8Cl6
_chemical_formula_sum              "Bi2 H16 C16 N8 Cl6"
_cell_length_a       7.80559
_cell_length_b       9.62459
_cell_length_c       9.8865
_cell_angle_alpha    107.072
_cell_angle_beta     111.539
_cell_angle_gamma    98.2607

_space_group_name_H-M_alt    "P 1"
_space_group_IT_number       1

loop_
  _space_group_symop_operation_xyz
  'x, y, z'

loop_
  _atom_site_type_symbol
  _atom_site_label
  _atom_site_symmetry_multiplicity
  _atom_site_fract_x
  _atom_site_fract_y
  _atom_site_fract_z
  _atom_site_occupancy
  Bi  Bi1       1.0  0.19329  0.68056  0.73274  1.0000
  Bi  Bi2       1.0  0.80671  0.31944  0.26726  1.0000
  H   H1        1.0  0.87945  0.70224  0.93379  1.0000
  H   H2        1.0  0.12055  0.29776  0.06621  1.0000
  H   H3        1.0  0.22916  0.41734  0.90554  1.0000
  H   H4        1.0  0.77084  0.58266  0.09446  1.0000
  H   H5        1.0  0.52254  0.47292  0.74230  1.0000
  H   H6        1.0  0.47746  0.52708  0.25770  1.0000
  H   H7        1.0  0.69233  0.34062  0.59330  1.0000
  H   H8        1.0  0.30766  0.65938  0.40670  1.0000
  H   H9        1.0  0.64794  0.87140  0.82152  1.0000
  H   H10       1.0  0.35206  0.12860  0.17847  1.0000
  H   H11       1.0  0.13460  0.96689  0.61218  1.0000
  H   H12       1.0  0.86540  0.03311  0.38782  1.0000
  H   H13       1.0  0.82581  0.08715  0.78718  1.0000
  H   H14       1.0  0.17419  0.91285  0.21282  1.0000
  H   H15       1.0  0.31218  0.18552  0.57951  1.0000
  H   H16       1.0  0.68782  0.81448  0.42049  1.0000
  C   C1        1.0  0.93280  0.61111  0.96295  1.0000
  C   C2        1.0  0.06720  0.38889  0.03705  1.0000
  C   C3        1.0  0.12578  0.45444  0.94690  1.0000
  C   C4        1.0  0.87422  0.54556  0.05310  1.0000
  C   C5        1.0  0.51291  0.48503  0.63367  1.0000
  C   C6        1.0  0.48709  0.51497  0.36633  1.0000
  C   C7        1.0  0.60741  0.41252  0.55142  1.0000
  C   C8        1.0  0.39259  0.58748  0.44859  1.0000
  C   C9        1.0  0.57296  0.94057  0.76520  1.0000
  C   C10       1.0  0.42704  0.05943  0.23480  1.0000
  C   C11       1.0  0.28919  0.99417  0.64957  1.0000
  C   C12       1.0  0.71081  0.00583  0.35043  1.0000
  C   C13       1.0  0.67066  0.06205  0.74694  1.0000
  C   C14       1.0  0.32934  0.93795  0.25306  1.0000
  C   C15       1.0  0.38937  0.11494  0.63253  1.0000
  C   C16       1.0  0.61063  0.88506  0.36747  1.0000
  N   N1        1.0  0.05839  0.56524  0.90988  1.0000
  N   N2        1.0  0.94161  0.43476  0.09012  1.0000
  N   N3        1.0  0.40652  0.57239  0.58248  1.0000
  N   N4        1.0  0.59348  0.42761  0.41752  1.0000
  N   N5        1.0  0.38200  0.90652  0.71452  1.0000
  N   N6        1.0  0.61800  0.09348  0.28548  1.0000
  N   N7        1.0  0.57999  0.14898  0.68002  1.0000
  N   N8        1.0  0.42001  0.85102  0.31998  1.0000
  Cl  Cl1       1.0  0.04341  0.88762  0.83942  1.0000
  Cl  Cl2       1.0  0.95659  0.11238  0.16058  1.0000
  Cl  Cl3       1.0  0.04408  0.34275  0.57463  1.0000
  Cl  Cl4       1.0  0.95592  0.65724  0.42537  1.0000
  Cl  Cl5       1.0  0.51000  0.72525  0.97596  1.0000
  Cl  Cl6       1.0  0.49000  0.27475  0.02404  1.0000
