data_image0
_chemical_formula_structural       Fe4H24C48O16
_chemical_formula_sum              "Fe4 H24 C48 O16"
_cell_length_a       4.66078
_cell_length_b       13.5855
_cell_length_c       15.0183
_cell_angle_alpha    89.9999
_cell_angle_beta     90.0001
_cell_angle_gamma    90.0056

_space_group_name_H-M_alt    "P 1"
_space_group_IT_number       1

loop_
  _space_group_symop_operation_xyz
  'x, y, z'

loop_
  _atom_site_type_symbol
  _atom_site_label
  _atom_site_symmetry_multiplicity
  _atom_site_fract_x
  _atom_site_fract_y
  _atom_site_fract_z
  _atom_site_occupancy
  Fe  Fe1       1.0  0.75149  0.49921  0.54893  1.0000
  Fe  Fe2       1.0  0.74851  0.00079  0.04893  1.0000
  Fe  Fe3       1.0  0.24851  0.50079  0.45107  1.0000
  Fe  Fe4       1.0  0.25149  0.99921  0.95107  1.0000
  H   H1        1.0  0.17484  0.37701  0.79834  1.0000
  H   H2        1.0  0.32516  0.12299  0.29834  1.0000
  H   H3        1.0  0.82516  0.62299  0.20166  1.0000
  H   H4        1.0  0.67483  0.87701  0.70166  1.0000
  H   H5        1.0  0.42409  0.26736  0.90712  1.0000
  H   H6        1.0  0.07591  0.23264  0.40712  1.0000
  H   H7        1.0  0.57591  0.73264  0.09288  1.0000
  H   H8        1.0  0.92409  0.76736  0.59288  1.0000
  H   H9        1.0  0.93276  0.03305  0.72800  1.0000
  H   H10       1.0  0.56724  0.46695  0.22800  1.0000
  H   H11       1.0  0.06724  0.96695  0.27200  1.0000
  H   H12       1.0  0.43276  0.53305  0.77199  1.0000
  H   H13       1.0  0.93760  0.99288  0.56875  1.0000
  H   H14       1.0  0.56240  0.50712  0.06876  1.0000
  H   H15       1.0  0.06240  0.00712  0.43125  1.0000
  H   H16       1.0  0.43760  0.49287  0.93124  1.0000
  H   H17       1.0  0.68286  0.10128  0.45911  1.0000
  H   H18       1.0  0.81713  0.39873  0.95911  1.0000
  H   H19       1.0  0.31714  0.89872  0.54089  1.0000
  H   H20       1.0  0.18286  0.60127  0.04088  1.0000
  H   H21       1.0  0.42607  0.24852  0.51137  1.0000
  H   H22       1.0  0.07393  0.25148  0.01137  1.0000
  H   H23       1.0  0.57393  0.75148  0.48863  1.0000
  H   H24       1.0  0.92608  0.74852  0.98863  1.0000
  C   C1        1.0  0.34894  0.30474  0.68399  1.0000
  C   C2        1.0  0.15106  0.19526  0.18399  1.0000
  C   C3        1.0  0.65106  0.69526  0.31601  1.0000
  C   C4        1.0  0.84894  0.80474  0.81601  1.0000
  C   C5        1.0  0.31202  0.31756  0.77480  1.0000
  C   C6        1.0  0.18798  0.18244  0.27480  1.0000
  C   C7        1.0  0.68798  0.68244  0.22520  1.0000
  C   C8        1.0  0.81202  0.81756  0.72520  1.0000
  C   C9        1.0  0.45273  0.25616  0.83588  1.0000
  C   C10       1.0  0.04728  0.24384  0.33588  1.0000
  C   C11       1.0  0.54728  0.74384  0.16412  1.0000
  C   C12       1.0  0.95272  0.75616  0.66412  1.0000
  C   C13       1.0  0.63089  0.18089  0.80710  1.0000
  C   C14       1.0  0.86911  0.31911  0.30710  1.0000
  C   C15       1.0  0.36911  0.81911  0.19290  1.0000
  C   C16       1.0  0.13089  0.68089  0.69290  1.0000
  C   C17       1.0  0.81825  0.07955  0.68115  1.0000
  C   C18       1.0  0.68174  0.42044  0.18115  1.0000
  C   C19       1.0  0.18174  0.92045  0.31885  1.0000
  C   C20       1.0  0.31826  0.57955  0.81884  1.0000
  C   C21       1.0  0.82360  0.05803  0.59163  1.0000
  C   C22       1.0  0.67639  0.44197  0.09163  1.0000
  C   C23       1.0  0.17640  0.94197  0.40838  1.0000
  C   C24       1.0  0.32361  0.55803  0.90837  1.0000
  C   C25       1.0  0.68046  0.11909  0.52995  1.0000
  C   C26       1.0  0.81953  0.38091  0.02995  1.0000
  C   C27       1.0  0.31954  0.88091  0.47006  1.0000
  C   C28       1.0  0.18046  0.61909  0.97005  1.0000
  C   C29       1.0  0.53392  0.20104  0.55899  1.0000
  C   C30       1.0  0.96607  0.29896  0.05899  1.0000
  C   C31       1.0  0.46607  0.79896  0.44101  1.0000
  C   C32       1.0  0.03394  0.70104  0.94101  1.0000
  C   C33       1.0  0.51762  0.22450  0.65108  1.0000
  C   C34       1.0  0.98237  0.27550  0.15108  1.0000
  C   C35       1.0  0.48238  0.77550  0.34892  1.0000
  C   C36       1.0  0.01763  0.72451  0.84892  1.0000
  C   C37       1.0  0.66266  0.16177  0.71391  1.0000
  C   C38       1.0  0.83734  0.33822  0.21391  1.0000
  C   C39       1.0  0.33734  0.83823  0.28609  1.0000
  C   C40       1.0  0.16267  0.66178  0.78609  1.0000
  C   C41       1.0  0.21458  0.37758  0.62275  1.0000
  C   C42       1.0  0.28543  0.12241  0.12275  1.0000
  C   C43       1.0  0.78542  0.62242  0.37726  1.0000
  C   C44       1.0  0.71458  0.87759  0.87725  1.0000
  C   C45       1.0  0.77342  0.11894  0.87602  1.0000
  C   C46       1.0  0.72659  0.38106  0.37602  1.0000
  C   C47       1.0  0.22659  0.88106  0.12398  1.0000
  C   C48       1.0  0.27341  0.61894  0.62398  1.0000
  O   O1        1.0  0.36448  0.40521  0.55469  1.0000
  O   O2        1.0  0.13552  0.09479  0.05469  1.0000
  O   O3        1.0  0.63551  0.59479  0.44531  1.0000
  O   O4        1.0  0.86448  0.90521  0.94531  1.0000
  O   O5        1.0  0.96618  0.41067  0.63971  1.0000
  O   O6        1.0  0.53383  0.08933  0.13972  1.0000
  O   O7        1.0  0.03382  0.58933  0.36029  1.0000
  O   O8        1.0  0.46618  0.91067  0.86028  1.0000
  O   O9        1.0  0.02808  0.08881  0.86435  1.0000
  O   O10       1.0  0.47192  0.41119  0.36435  1.0000
  O   O11       1.0  0.97192  0.91119  0.13565  1.0000
  O   O12       1.0  0.52808  0.58881  0.63565  1.0000
  O   O13       1.0  0.62562  0.09965  0.94686  1.0000
  O   O14       1.0  0.87438  0.40035  0.44686  1.0000
  O   O15       1.0  0.37438  0.90035  0.05314  1.0000
  O   O16       1.0  0.12562  0.59965  0.55314  1.0000
