data_image0
_chemical_formula_structural       Tb4H32C32N4O32
_chemical_formula_sum              "Tb4 H32 C32 N4 O32"
_cell_length_a       9.93786
_cell_length_b       10.1292
_cell_length_c       12.7356
_cell_angle_alpha    108.492
_cell_angle_beta     89.9999
_cell_angle_gamma    119.377

_space_group_name_H-M_alt    "P 1"
_space_group_IT_number       1

loop_
  _space_group_symop_operation_xyz
  'x, y, z'

loop_
  _atom_site_type_symbol
  _atom_site_label
  _atom_site_symmetry_multiplicity
  _atom_site_fract_x
  _atom_site_fract_y
  _atom_site_fract_z
  _atom_site_occupancy
  Tb  Tb1       1.0  0.14145  0.35292  0.42651  1.0000
  Tb  Tb2       1.0  0.78852  0.64708  0.07349  1.0000
  Tb  Tb3       1.0  0.85856  0.64708  0.57350  1.0000
  Tb  Tb4       1.0  0.21147  0.35292  0.92651  1.0000
  H   H1        1.0  0.26154  0.03969  0.63558  1.0000
  H   H2        1.0  0.22184  0.96030  0.86441  1.0000
  H   H3        1.0  0.73846  0.96030  0.36441  1.0000
  H   H4        1.0  0.77816  0.03970  0.13558  1.0000
  H   H5        1.0  0.55481  0.83082  0.59280  1.0000
  H   H6        1.0  0.72398  0.16918  0.90719  1.0000
  H   H7        1.0  0.44519  0.16918  0.40719  1.0000
  H   H8        1.0  0.27602  0.83082  0.09280  1.0000
  H   H9        1.0  0.50756  0.31345  0.68279  1.0000
  H   H10       1.0  0.19411  0.68655  0.81721  1.0000
  H   H11       1.0  0.49244  0.68655  0.31721  1.0000
  H   H12       1.0  0.80589  0.31345  0.18279  1.0000
  H   H13       1.0  0.78871  0.11328  0.64255  1.0000
  H   H14       1.0  0.67543  0.88673  0.85745  1.0000
  H   H15       1.0  0.21129  0.88673  0.35745  1.0000
  H   H16       1.0  0.32457  0.11327  0.14255  1.0000
  H   H17       1.0  0.20533  0.60279  0.31715  1.0000
  H   H18       1.0  0.60254  0.39721  0.18284  1.0000
  H   H19       1.0  0.79467  0.39721  0.68284  1.0000
  H   H20       1.0  0.39746  0.60279  0.81715  1.0000
  H   H21       1.0  0.07878  0.43040  0.22504  1.0000
  H   H22       1.0  0.64838  0.56960  0.27496  1.0000
  H   H23       1.0  0.92122  0.56960  0.77496  1.0000
  H   H24       1.0  0.35162  0.43040  0.72504  1.0000
  H   H25       1.0  0.06696  0.28740  0.64463  1.0000
  H   H26       1.0  0.77957  0.71260  0.85537  1.0000
  H   H27       1.0  0.93304  0.71260  0.35537  1.0000
  H   H28       1.0  0.22043  0.28739  0.14463  1.0000
  H   H29       1.0  0.00915  0.41029  0.64262  1.0000
  H   H30       1.0  0.59886  0.58971  0.85738  1.0000
  H   H31       1.0  0.99085  0.58970  0.35738  1.0000
  H   H32       1.0  0.40114  0.41029  0.14262  1.0000
  C   C1        1.0  0.99834  0.96994  0.30018  1.0000
  C   C2        1.0  0.02841  0.03007  0.19983  1.0000
  C   C3        1.0  0.00166  0.03007  0.69983  1.0000
  C   C4        1.0  0.97159  0.96994  0.80018  1.0000
  C   C5        1.0  0.24604  0.74856  0.58276  1.0000
  C   C6        1.0  0.49748  0.25144  0.91724  1.0000
  C   C7        1.0  0.75396  0.25144  0.41724  1.0000
  C   C8        1.0  0.50251  0.74856  0.08276  1.0000
  C   C9        1.0  0.39031  0.91445  0.61189  1.0000
  C   C10       1.0  0.47585  0.08555  0.88811  1.0000
  C   C11       1.0  0.60970  0.08555  0.38812  1.0000
  C   C12       1.0  0.52414  0.91445  0.11188  1.0000
  C   C13       1.0  0.37646  0.05166  0.63743  1.0000
  C   C14       1.0  0.32480  0.94834  0.86256  1.0000
  C   C15       1.0  0.62354  0.94834  0.36256  1.0000
  C   C16       1.0  0.67520  0.05166  0.13743  1.0000
  C   C17       1.0  0.54001  0.93516  0.61351  1.0000
  C   C18       1.0  0.60485  0.06485  0.88649  1.0000
  C   C19       1.0  0.45999  0.06485  0.38648  1.0000
  C   C20       1.0  0.39515  0.93515  0.11351  1.0000
  C   C21       1.0  0.51191  0.20307  0.66371  1.0000
  C   C22       1.0  0.30884  0.79693  0.83629  1.0000
  C   C23       1.0  0.48809  0.79693  0.33629  1.0000
  C   C24       1.0  0.69116  0.20307  0.16371  1.0000
  C   C25       1.0  0.66981  0.09164  0.64154  1.0000
  C   C26       1.0  0.57818  0.90836  0.85845  1.0000
  C   C27       1.0  0.33019  0.90836  0.35845  1.0000
  C   C28       1.0  0.42182  0.09164  0.14154  1.0000
  C   C29       1.0  0.48735  0.48434  0.55597  1.0000
  C   C30       1.0  0.00300  0.51566  0.94403  1.0000
  C   C31       1.0  0.51265  0.51566  0.44403  1.0000
  C   C32       1.0  0.99699  0.48434  0.05597  1.0000
  N   N1        1.0  0.65591  0.22278  0.66631  1.0000
  N   N2        1.0  0.43314  0.77723  0.83369  1.0000
  N   N3        1.0  0.34409  0.77723  0.33369  1.0000
  N   N4        1.0  0.56686  0.22277  0.16631  1.0000
  O   O1        1.0  0.05964  0.07646  0.39798  1.0000
  O   O2        1.0  0.98319  0.92354  0.10202  1.0000
  O   O3        1.0  0.94036  0.92354  0.60202  1.0000
  O   O4        1.0  0.01681  0.07646  0.89798  1.0000
  O   O5        1.0  0.25962  0.62672  0.53395  1.0000
  O   O6        1.0  0.63289  0.37328  0.96605  1.0000
  O   O7        1.0  0.74038  0.37328  0.46605  1.0000
  O   O8        1.0  0.36710  0.62672  0.03395  1.0000
  O   O9        1.0  0.34645  0.39631  0.56493  1.0000
  O   O10       1.0  0.95014  0.60370  0.93508  1.0000
  O   O11       1.0  0.65356  0.60370  0.43507  1.0000
  O   O12       1.0  0.04986  0.39631  0.06493  1.0000
  O   O13       1.0  0.09853  0.18373  0.22671  1.0000
  O   O14       1.0  0.91479  0.81627  0.27329  1.0000
  O   O15       1.0  0.90148  0.81627  0.77329  1.0000
  O   O16       1.0  0.08520  0.18373  0.72671  1.0000
  O   O17       1.0  0.39104  0.45130  0.37053  1.0000
  O   O18       1.0  0.93973  0.54870  0.12947  1.0000
  O   O19       1.0  0.60897  0.54870  0.62947  1.0000
  O   O20       1.0  0.06026  0.45130  0.87053  1.0000
  O   O21       1.0  0.87945  0.25813  0.39094  1.0000
  O   O22       1.0  0.62131  0.74186  0.10906  1.0000
  O   O23       1.0  0.12055  0.74186  0.60906  1.0000
  O   O24       1.0  0.37868  0.25813  0.89093  1.0000
  O   O25       1.0  0.11106  0.48743  0.30763  1.0000
  O   O26       1.0  0.62362  0.51256  0.19237  1.0000
  O   O27       1.0  0.88894  0.51256  0.69238  1.0000
  O   O28       1.0  0.37638  0.48744  0.80763  1.0000
  O   O29       1.0  0.04712  0.34030  0.59800  1.0000
  O   O30       1.0  0.70682  0.65970  0.90200  1.0000
  O   O31       1.0  0.95288  0.65970  0.40201  1.0000
  O   O32       1.0  0.29318  0.34030  0.09799  1.0000
