data_image0
_chemical_formula_structural       CoH32C38S2N6O4
_chemical_formula_sum              "Co1 H32 C38 S2 N6 O4"
_cell_length_a       9.27691
_cell_length_b       9.45181
_cell_length_c       11.8024
_cell_angle_alpha    107.095
_cell_angle_beta     104.691
_cell_angle_gamma    94.2702

_space_group_name_H-M_alt    "P 1"
_space_group_IT_number       1

loop_
  _space_group_symop_operation_xyz
  'x, y, z'

loop_
  _atom_site_type_symbol
  _atom_site_label
  _atom_site_symmetry_multiplicity
  _atom_site_fract_x
  _atom_site_fract_y
  _atom_site_fract_z
  _atom_site_occupancy
  Co  Co1       1.0  0.99999  0.00000  0.00000  1.0000
  H   H1        1.0  0.71396  0.83802  0.04074  1.0000
  H   H2        1.0  0.28603  0.16198  0.95926  1.0000
  H   H3        1.0  0.44967  0.72464  0.91246  1.0000
  H   H4        1.0  0.55032  0.27538  0.08754  1.0000
  H   H5        1.0  0.46644  0.05099  0.72425  1.0000
  H   H6        1.0  0.53358  0.94902  0.27576  1.0000
  H   H7        1.0  0.73281  0.14258  0.85255  1.0000
  H   H8        1.0  0.26720  0.85741  0.14745  1.0000
  H   H9        1.0  0.25711  0.85640  0.64541  1.0000
  H   H10       1.0  0.74289  0.14363  0.35458  1.0000
  H   H11       1.0  0.19670  0.86192  0.77797  1.0000
  H   H12       1.0  0.80329  0.13808  0.22203  1.0000
  H   H13       1.0  0.19982  0.37480  0.59512  1.0000
  H   H14       1.0  0.80017  0.62521  0.40486  1.0000
  H   H15       1.0  0.02070  0.77860  0.57672  1.0000
  H   H16       1.0  0.97930  0.22142  0.42326  1.0000
  H   H17       1.0  0.88762  0.27908  0.99571  1.0000
  H   H18       1.0  0.11236  0.72092  0.00431  1.0000
  H   H19       1.0  0.96599  0.54985  0.11679  1.0000
  H   H20       1.0  0.03402  0.45014  0.88324  1.0000
  H   H21       1.0  0.31924  0.42731  0.36955  1.0000
  H   H22       1.0  0.68078  0.57268  0.63045  1.0000
  H   H23       1.0  0.21727  0.16061  0.24497  1.0000
  H   H24       1.0  0.78273  0.83939  0.75503  1.0000
  H   H25       1.0  0.13923  0.70996  0.39074  1.0000
  H   H26       1.0  0.86078  0.29004  0.60927  1.0000
  H   H27       1.0  0.17732  0.74202  0.26016  1.0000
  H   H28       1.0  0.82269  0.25798  0.73984  1.0000
  H   H29       1.0  0.64686  0.78977  0.47328  1.0000
  H   H30       1.0  0.35314  0.21024  0.52673  1.0000
  H   H31       1.0  0.21854  0.95015  0.42468  1.0000
  H   H32       1.0  0.78146  0.04985  0.57533  1.0000
  C   C1        1.0  0.65533  0.88223  0.96940  1.0000
  C   C2        1.0  0.34466  0.11776  0.03060  1.0000
  C   C3        1.0  0.50771  0.81958  0.89811  1.0000
  C   C4        1.0  0.49229  0.18042  0.10188  1.0000
  C   C5        1.0  0.43601  0.87894  0.80729  1.0000
  C   C6        1.0  0.56399  0.12105  0.19272  1.0000
  C   C7        1.0  0.51713  0.00044  0.79359  1.0000
  C   C8        1.0  0.48289  0.99956  0.20642  1.0000
  C   C9        1.0  0.66525  0.05371  0.86728  1.0000
  C   C10       1.0  0.33476  0.94629  0.13273  1.0000
  C   C11       1.0  0.27742  0.81847  0.72692  1.0000
  C   C12       1.0  0.72258  0.18153  0.27307  1.0000
  C   C13       1.0  0.12661  0.58508  0.59636  1.0000
  C   C14       1.0  0.87339  0.41493  0.40361  1.0000
  C   C15       1.0  0.11195  0.42873  0.55199  1.0000
  C   C16       1.0  0.88804  0.57127  0.44799  1.0000
  C   C17       1.0  0.01348  0.65697  0.54392  1.0000
  C   C18       1.0  0.98652  0.34303  0.45605  1.0000
  C   C19       1.0  0.98118  0.31621  0.07995  1.0000
  C   C20       1.0  0.01880  0.68379  0.92006  1.0000
  C   C21       1.0  0.02696  0.46723  0.14745  1.0000
  C   C22       1.0  0.97303  0.53276  0.85257  1.0000
  C   C23       1.0  0.15276  0.51201  0.25221  1.0000
  C   C24       1.0  0.84724  0.48798  0.74780  1.0000
  C   C25       1.0  0.22216  0.39951  0.28790  1.0000
  C   C26       1.0  0.77785  0.60049  0.71211  1.0000
  C   C27       1.0  0.16692  0.25027  0.21783  1.0000
  C   C28       1.0  0.83307  0.74972  0.78216  1.0000
  C   C29       1.0  0.20365  0.67516  0.32309  1.0000
  C   C30       1.0  0.79636  0.32483  0.67692  1.0000
  C   C31       1.0  0.42531  0.85150  0.44182  1.0000
  C   C32       1.0  0.57470  0.14849  0.55820  1.0000
  C   C33       1.0  0.58301  0.88254  0.48598  1.0000
  C   C34       1.0  0.41700  0.11746  0.51403  1.0000
  C   C35       1.0  0.34170  0.97019  0.45635  1.0000
  C   C36       1.0  0.65831  0.02981  0.54367  1.0000
  C   C37       1.0  0.04673  0.09008  0.78507  1.0000
  C   C38       1.0  0.95327  0.90993  0.21493  1.0000
  S   S1        1.0  0.10155  0.12270  0.67460  1.0000
  S   S2        1.0  0.89845  0.87732  0.32542  1.0000
  N   N1        1.0  0.00517  0.06584  0.86615  1.0000
  N   N2        1.0  0.99482  0.93416  0.13387  1.0000
  N   N3        1.0  0.05107  0.20768  0.11239  1.0000
  N   N4        1.0  0.94891  0.79232  0.88760  1.0000
  N   N5        1.0  0.73571  0.99632  0.95399  1.0000
  N   N6        1.0  0.26430  0.00367  0.04601  1.0000
  O   O1        1.0  0.25539  0.65817  0.69029  1.0000
  O   O2        1.0  0.74461  0.34183  0.30968  1.0000
  O   O3        1.0  0.36213  0.70283  0.38399  1.0000
  O   O4        1.0  0.63787  0.29717  0.61601  1.0000
