data_image0
_chemical_formula_structural       CoH22C22N4O6
_chemical_formula_sum              "Co1 H22 C22 N4 O6"
_cell_length_a       6.6116
_cell_length_b       8.52083
_cell_length_c       9.84009
_cell_angle_alpha    96.1218
_cell_angle_beta     94.5943
_cell_angle_gamma    94.5922

_space_group_name_H-M_alt    "P 1"
_space_group_IT_number       1

loop_
  _space_group_symop_operation_xyz
  'x, y, z'

loop_
  _atom_site_type_symbol
  _atom_site_label
  _atom_site_symmetry_multiplicity
  _atom_site_fract_x
  _atom_site_fract_y
  _atom_site_fract_z
  _atom_site_occupancy
  Co  Co1       1.0  0.50000  0.50000  0.50000  1.0000
  H   H1        1.0  0.20784  0.67403  0.86679  1.0000
  H   H2        1.0  0.79216  0.32597  0.13321  1.0000
  H   H3        1.0  0.51321  0.26016  0.25075  1.0000
  H   H4        1.0  0.48679  0.73984  0.74925  1.0000
  H   H5        1.0  0.80232  0.85782  0.38125  1.0000
  H   H6        1.0  0.19768  0.14218  0.61875  1.0000
  H   H7        1.0  0.82997  0.99333  0.61986  1.0000
  H   H8        1.0  0.17003  0.00667  0.38014  1.0000
  H   H9        1.0  0.69081  0.25755  0.66295  1.0000
  H   H10       1.0  0.30919  0.74244  0.33705  1.0000
  H   H11       1.0  0.34850  0.60996  0.09593  1.0000
  H   H12       1.0  0.65151  0.39004  0.90407  1.0000
  H   H13       1.0  0.73221  0.79878  0.00412  1.0000
  H   H14       1.0  0.26778  0.20122  0.99588  1.0000
  H   H15       1.0  0.73143  0.74331  0.17448  1.0000
  H   H16       1.0  0.26857  0.25668  0.82552  1.0000
  H   H17       1.0  0.92587  0.88081  0.13530  1.0000
  H   H18       1.0  0.07413  0.11919  0.86470  1.0000
  H   H19       1.0  0.16265  0.49926  0.62722  1.0000
  H   H20       1.0  0.83735  0.50074  0.37278  1.0000
  H   H21       1.0  0.14626  0.37757  0.49430  1.0000
  H   H22       1.0  0.85373  0.62243  0.50570  1.0000
  C   C1        1.0  0.65667  0.04902  0.29473  1.0000
  C   C2        1.0  0.34333  0.95098  0.70527  1.0000
  C   C3        1.0  0.07788  0.46540  0.12889  1.0000
  C   C4        1.0  0.92213  0.53460  0.87110  1.0000
  C   C5        1.0  0.11811  0.59744  0.92555  1.0000
  C   C6        1.0  0.88190  0.40256  0.07445  1.0000
  C   C7        1.0  0.58415  0.19710  0.32969  1.0000
  C   C8        1.0  0.41585  0.80290  0.67031  1.0000
  C   C9        1.0  0.74843  0.97485  0.40125  1.0000
  C   C10       1.0  0.25157  0.02515  0.59875  1.0000
  C   C11       1.0  0.15838  0.43117  0.26817  1.0000
  C   C12       1.0  0.84162  0.56884  0.73182  1.0000
  C   C13       1.0  0.63632  0.97533  0.15089  1.0000
  C   C14       1.0  0.36367  0.02467  0.84911  1.0000
  C   C15       1.0  0.76213  0.04945  0.53502  1.0000
  C   C16       1.0  0.23787  0.95055  0.46498  1.0000
  C   C17       1.0  0.68505  0.19548  0.55991  1.0000
  C   C18       1.0  0.31495  0.80452  0.44009  1.0000
  C   C19       1.0  0.19570  0.56284  0.05337  1.0000
  C   C20       1.0  0.80430  0.43716  0.94662  1.0000
  C   C21       1.0  0.76266  0.84169  0.11300  1.0000
  C   C22       1.0  0.23734  0.15831  0.88700  1.0000
  N   N1        1.0  0.59733  0.26913  0.45846  1.0000
  N   N2        1.0  0.40267  0.73087  0.54154  1.0000
  N   N3        1.0  0.50736  0.03462  0.06707  1.0000
  N   N4        1.0  0.49264  0.96538  0.93294  1.0000
  O   O1        1.0  0.03442  0.36537  0.34266  1.0000
  O   O2        1.0  0.96558  0.63463  0.65734  1.0000
  O   O3        1.0  0.34618  0.47311  0.30520  1.0000
  O   O4        1.0  0.65382  0.52689  0.69480  1.0000
  O   O5        1.0  0.23320  0.41075  0.58454  1.0000
  O   O6        1.0  0.76680  0.58926  0.41545  1.0000
