data_image0
_chemical_formula_structural       Zn2H28C40N8O8
_chemical_formula_sum              "Zn2 H28 C40 N8 O8"
_cell_length_a       6.6268
_cell_length_b       9.86721
_cell_length_c       15.6332
_cell_angle_alpha    70.7778
_cell_angle_beta     77.762
_cell_angle_gamma    70.4015

_space_group_name_H-M_alt    "P 1"
_space_group_IT_number       1

loop_
  _space_group_symop_operation_xyz
  'x, y, z'

loop_
  _atom_site_type_symbol
  _atom_site_label
  _atom_site_symmetry_multiplicity
  _atom_site_fract_x
  _atom_site_fract_y
  _atom_site_fract_z
  _atom_site_occupancy
  Zn  Zn1       1.0  0.38834  0.24988  0.74998  1.0000
  Zn  Zn2       1.0  0.61167  0.75012  0.25002  1.0000
  H   H1        1.0  0.85355  0.55438  0.95822  1.0000
  H   H2        1.0  0.36581  0.94580  0.54193  1.0000
  H   H3        1.0  0.14645  0.44563  0.04178  1.0000
  H   H4        1.0  0.63414  0.05419  0.45805  1.0000
  H   H5        1.0  0.73064  0.45353  0.85897  1.0000
  H   H6        1.0  0.04259  0.04650  0.64111  1.0000
  H   H7        1.0  0.26936  0.54646  0.14103  1.0000
  H   H8        1.0  0.95736  0.95350  0.35887  1.0000
  H   H9        1.0  0.08079  0.27598  0.62940  1.0000
  H   H10       1.0  0.98625  0.22377  0.87026  1.0000
  H   H11       1.0  0.91919  0.72402  0.37061  1.0000
  H   H12       1.0  0.01376  0.77623  0.12975  1.0000
  H   H13       1.0  0.63955  0.72296  0.58162  1.0000
  H   H14       1.0  0.94449  0.77639  0.91887  1.0000
  H   H15       1.0  0.36046  0.27705  0.41837  1.0000
  H   H16       1.0  0.05555  0.22359  0.08115  1.0000
  H   H17       1.0  0.18125  0.57607  0.73662  1.0000
  H   H18       1.0  0.49446  0.92327  0.76370  1.0000
  H   H19       1.0  0.81875  0.42394  0.26337  1.0000
  H   H20       1.0  0.50556  0.07673  0.23631  1.0000
  H   H21       1.0  0.80985  0.34774  0.52764  1.0000
  H   H22       1.0  0.68559  0.15223  0.97211  1.0000
  H   H23       1.0  0.19014  0.65227  0.47236  1.0000
  H   H24       1.0  0.31443  0.84776  0.02790  1.0000
  H   H25       1.0  0.86435  0.78008  0.67029  1.0000
  H   H26       1.0  0.31507  0.71916  0.83024  1.0000
  H   H27       1.0  0.13566  0.21993  0.32970  1.0000
  H   H28       1.0  0.68496  0.28083  0.16977  1.0000
  C   C1        1.0  0.69771  0.53209  0.97598  1.0000
  C   C2        1.0  0.20554  0.96803  0.52414  1.0000
  C   C3        1.0  0.30229  0.46790  0.02403  1.0000
  C   C4        1.0  0.79441  0.03198  0.47584  1.0000
  C   C5        1.0  0.83737  0.49321  0.60191  1.0000
  C   C6        1.0  0.93280  0.00633  0.89818  1.0000
  C   C7        1.0  0.16263  0.50680  0.39810  1.0000
  C   C8        1.0  0.06724  0.99366  0.10184  1.0000
  C   C9        1.0  0.63023  0.47375  0.92091  1.0000
  C   C10       1.0  0.02451  0.02628  0.57914  1.0000
  C   C11       1.0  0.36978  0.52625  0.07909  1.0000
  C   C12       1.0  0.97545  0.97372  0.42084  1.0000
  C   C13       1.0  0.02135  0.38766  0.63934  1.0000
  C   C14       1.0  0.04863  0.11192  0.86061  1.0000
  C   C15       1.0  0.97864  0.61234  0.36067  1.0000
  C   C16       1.0  0.95140  0.88807  0.13941  1.0000
  C   C17       1.0  0.35553  0.37892  0.88555  1.0000
  C   C18       1.0  0.61964  0.12095  0.61429  1.0000
  C   C19       1.0  0.64449  0.62108  0.11444  1.0000
  C   C20       1.0  0.38032  0.87905  0.38570  1.0000
  C   C21       1.0  0.43181  0.44094  0.94451  1.0000
  C   C22       1.0  0.81706  0.05895  0.55543  1.0000
  C   C23       1.0  0.56820  0.55906  0.05549  1.0000
  C   C24       1.0  0.18289  0.94106  0.44455  1.0000
  C   C25       1.0  0.77680  0.63745  0.61351  1.0000
  C   C26       1.0  0.02811  0.86194  0.88682  1.0000
  C   C27       1.0  0.22320  0.36255  0.38649  1.0000
  C   C28       1.0  0.97191  0.13805  0.11319  1.0000
  C   C29       1.0  0.07953  0.55646  0.69836  1.0000
  C   C30       1.0  0.33483  0.94288  0.80192  1.0000
  C   C31       1.0  0.92047  0.44354  0.30164  1.0000
  C   C32       1.0  0.66519  0.05712  0.19809  1.0000
  C   C33       1.0  0.72615  0.44995  0.54891  1.0000
  C   C34       1.0  0.72524  0.04984  0.95105  1.0000
  C   C35       1.0  0.27385  0.55006  0.45109  1.0000
  C   C36       1.0  0.27478  0.95015  0.04897  1.0000
  C   C37       1.0  0.90071  0.66859  0.66216  1.0000
  C   C38       1.0  0.23185  0.83074  0.83822  1.0000
  C   C39       1.0  0.09929  0.33141  0.33784  1.0000
  C   C40       1.0  0.76817  0.16926  0.16178  1.0000
  N   N1        1.0  0.13835  0.41820  0.68718  1.0000
  N   N2        1.0  0.24409  0.08130  0.81287  1.0000
  N   N3        1.0  0.86164  0.58181  0.31283  1.0000
  N   N4        1.0  0.75593  0.91870  0.18714  1.0000
  N   N5        1.0  0.53592  0.52967  0.52656  1.0000
  N   N6        1.0  0.59217  0.97018  0.97351  1.0000
  N   N7        1.0  0.46408  0.47034  0.47344  1.0000
  N   N8        1.0  0.40785  0.02981  0.02650  1.0000
  O   O1        1.0  0.16764  0.36807  0.90077  1.0000
  O   O2        1.0  0.43618  0.13194  0.59896  1.0000
  O   O3        1.0  0.83239  0.63192  0.09922  1.0000
  O   O4        1.0  0.56378  0.86805  0.40104  1.0000
  O   O5        1.0  0.49654  0.34036  0.81930  1.0000
  O   O6        1.0  0.65585  0.15932  0.68063  1.0000
  O   O7        1.0  0.50348  0.65965  0.18070  1.0000
  O   O8        1.0  0.34412  0.84068  0.31935  1.0000
