data_image0
_chemical_formula_structural       Zn2H50C58N12O8
_chemical_formula_sum              "Zn2 H50 C58 N12 O8"
_cell_length_a       10.0959
_cell_length_b       11.9054
_cell_length_c       11.9612
_cell_angle_alpha    84.6187
_cell_angle_beta     67.3249
_cell_angle_gamma    83.2144

_space_group_name_H-M_alt    "P 1"
_space_group_IT_number       1

loop_
  _space_group_symop_operation_xyz
  'x, y, z'

loop_
  _atom_site_type_symbol
  _atom_site_label
  _atom_site_symmetry_multiplicity
  _atom_site_fract_x
  _atom_site_fract_y
  _atom_site_fract_z
  _atom_site_occupancy
  Zn  Zn1       1.0  0.56091  0.31066  0.37991  1.0000
  Zn  Zn2       1.0  0.43909  0.68934  0.62009  1.0000
  H   H1        1.0  0.36001  0.18138  0.33089  1.0000
  H   H2        1.0  0.63999  0.81862  0.66912  1.0000
  H   H3        1.0  0.34662  0.98176  0.28601  1.0000
  H   H4        1.0  0.65338  0.01824  0.71399  1.0000
  H   H5        1.0  0.55865  0.84079  0.25741  1.0000
  H   H6        1.0  0.44135  0.15921  0.74259  1.0000
  H   H7        1.0  0.77488  0.10511  0.32097  1.0000
  H   H8        1.0  0.22512  0.89489  0.67903  1.0000
  H   H9        1.0  0.94202  0.73451  0.20246  1.0000
  H   H10       1.0  0.05798  0.26549  0.79754  1.0000
  H   H11       1.0  0.79780  0.77726  0.15096  1.0000
  H   H12       1.0  0.20220  0.22274  0.84904  1.0000
  H   H13       1.0  0.76259  0.70767  0.29689  1.0000
  H   H14       1.0  0.23741  0.29233  0.70311  1.0000
  H   H15       1.0  0.85846  0.91126  0.53399  1.0000
  H   H16       1.0  0.14154  0.08874  0.46601  1.0000
  H   H17       1.0  0.00891  0.90526  0.57888  1.0000
  H   H18       1.0  0.99109  0.09474  0.42112  1.0000
  H   H19       1.0  0.91573  0.78344  0.60040  1.0000
  H   H20       1.0  0.08427  0.21656  0.39960  1.0000
  H   H21       1.0  0.18073  0.78522  0.57548  1.0000
  H   H22       1.0  0.81927  0.21478  0.42452  1.0000
  H   H23       1.0  0.54806  0.59049  0.37463  1.0000
  H   H24       1.0  0.45194  0.40951  0.62537  1.0000
  H   H25       1.0  0.23291  0.70376  0.21621  1.0000
  H   H26       1.0  0.76709  0.29624  0.78379  1.0000
  H   H27       1.0  0.15123  0.46893  0.62417  1.0000
  H   H28       1.0  0.84877  0.53107  0.37583  1.0000
  H   H29       1.0  0.89906  0.56289  0.71159  1.0000
  H   H30       1.0  0.10094  0.43711  0.28841  1.0000
  H   H31       1.0  0.46551  0.59137  0.20263  1.0000
  H   H32       1.0  0.53449  0.40863  0.79737  1.0000
  H   H33       1.0  0.73877  0.56398  0.08951  1.0000
  H   H34       1.0  0.26123  0.43602  0.91050  1.0000
  H   H35       1.0  0.90530  0.66943  0.90619  1.0000
  H   H36       1.0  0.09470  0.33057  0.09381  1.0000
  H   H37       1.0  0.39805  0.32808  0.04043  1.0000
  H   H38       1.0  0.60195  0.67192  0.95957  1.0000
  H   H39       1.0  0.60287  0.37647  0.08861  1.0000
  H   H40       1.0  0.39713  0.62353  0.91139  1.0000
  H   H41       1.0  0.82137  0.23493  0.04761  1.0000
  H   H42       1.0  0.17863  0.76507  0.95238  1.0000
  H   H43       1.0  0.60908  0.01857  0.91475  1.0000
  H   H44       1.0  0.39092  0.98143  0.08525  1.0000
  H   H45       1.0  0.95600  0.86827  0.88092  1.0000
  H   H46       1.0  0.04400  0.13173  0.11907  1.0000
  H   H47       1.0  0.84994  0.94903  0.80669  1.0000
  H   H48       1.0  0.15006  0.05097  0.19331  1.0000
  H   H49       1.0  0.76210  0.87609  0.94720  1.0000
  H   H50       1.0  0.23790  0.12391  0.05280  1.0000
  C   C1        1.0  0.44764  0.11567  0.32138  1.0000
  C   C2        1.0  0.55236  0.88433  0.67861  1.0000
  C   C3        1.0  0.44271  0.00562  0.29500  1.0000
  C   C4        1.0  0.55729  0.99438  0.70501  1.0000
  C   C5        1.0  0.56125  0.92681  0.27988  1.0000
  C   C6        1.0  0.43875  0.07319  0.72012  1.0000
  C   C7        1.0  0.68269  0.96023  0.29318  1.0000
  C   C8        1.0  0.31731  0.03977  0.70682  1.0000
  C   C9        1.0  0.68003  0.07376  0.31713  1.0000
  C   C10       1.0  0.31997  0.92624  0.68286  1.0000
  C   C11       1.0  0.80946  0.88065  0.28427  1.0000
  C   C12       1.0  0.19054  0.11935  0.71573  1.0000
  C   C13       1.0  0.82903  0.76885  0.22984  1.0000
  C   C14       1.0  0.17097  0.23115  0.77016  1.0000
  C   C15       1.0  0.04937  0.82293  0.41387  1.0000
  C   C16       1.0  0.95063  0.17707  0.58613  1.0000
  C   C17       1.0  0.95240  0.85795  0.53882  1.0000
  C   C18       1.0  0.04760  0.14205  0.46118  1.0000
  C   C19       1.0  0.18908  0.75793  0.39560  1.0000
  C   C20       1.0  0.81092  0.24207  0.60440  1.0000
  C   C21       1.0  0.24219  0.74910  0.48833  1.0000
  C   C22       1.0  0.75781  0.25090  0.51167  1.0000
  C   C23       1.0  0.44764  0.63760  0.37726  1.0000
  C   C24       1.0  0.55236  0.36239  0.62274  1.0000
  C   C25       1.0  0.27190  0.70094  0.28965  1.0000
  C   C26       1.0  0.72810  0.29906  0.71035  1.0000
  C   C27       1.0  0.28979  0.39147  0.39747  1.0000
  C   C28       1.0  0.71021  0.60853  0.60253  1.0000
  C   C29       1.0  0.13984  0.44709  0.45162  1.0000
  C   C30       1.0  0.86016  0.55291  0.54838  1.0000
  C   C31       1.0  0.08385  0.48252  0.57083  1.0000
  C   C32       1.0  0.91615  0.51748  0.42917  1.0000
  C   C33       1.0  0.94470  0.53505  0.61901  1.0000
  C   C34       1.0  0.05530  0.46495  0.38099  1.0000
  C   C35       1.0  0.40120  0.63975  0.28143  1.0000
  C   C36       1.0  0.59880  0.36025  0.71857  1.0000
  C   C37       1.0  0.90777  0.44171  0.10191  1.0000
  C   C38       1.0  0.09223  0.55829  0.89809  1.0000
  C   C39       1.0  0.80975  0.37571  0.20805  1.0000
  C   C40       1.0  0.19025  0.62429  0.79195  1.0000
  C   C41       1.0  0.85340  0.53684  0.04933  1.0000
  C   C42       1.0  0.14660  0.46316  0.95067  1.0000
  C   C43       1.0  0.94505  0.59483  0.94801  1.0000
  C   C44       1.0  0.05495  0.40517  0.05199  1.0000
  C   C45       1.0  0.49531  0.26958  0.02062  1.0000
  C   C46       1.0  0.50470  0.73042  0.97939  1.0000
  C   C47       1.0  0.61031  0.29699  0.04750  1.0000
  C   C48       1.0  0.38969  0.70301  0.95250  1.0000
  C   C49       1.0  0.72999  0.21897  0.02628  1.0000
  C   C50       1.0  0.27001  0.78103  0.97373  1.0000
  C   C51       1.0  0.73235  0.11480  0.97870  1.0000
  C   C52       1.0  0.26765  0.88520  0.02130  1.0000
  C   C53       1.0  0.61287  0.09784  0.95160  1.0000
  C   C54       1.0  0.38713  0.90216  0.04840  1.0000
  C   C55       1.0  0.85242  0.02559  0.96067  1.0000
  C   C56       1.0  0.14758  0.97441  0.03933  1.0000
  C   C57       1.0  0.85676  0.92318  0.89513  1.0000
  C   C58       1.0  0.14324  0.07682  0.10486  1.0000
  N   N1        1.0  0.36898  0.69250  0.47883  1.0000
  N   N2        1.0  0.63102  0.30749  0.52117  1.0000
  N   N3        1.0  0.56568  0.14909  0.33188  1.0000
  N   N4        1.0  0.43432  0.85091  0.66812  1.0000
  N   N5        1.0  0.89563  0.91268  0.33013  1.0000
  N   N6        1.0  0.10437  0.08732  0.66987  1.0000
  N   N7        1.0  0.01758  0.84573  0.31834  1.0000
  N   N8        1.0  0.98242  0.15427  0.68166  1.0000
  N   N9        1.0  0.49629  0.17233  0.97190  1.0000
  N   N10       1.0  0.50371  0.82767  0.02810  1.0000
  N   N11       1.0  0.94512  0.04260  0.00773  1.0000
  N   N12       1.0  0.05488  0.95740  0.99227  1.0000
  O   O1        1.0  0.35920  0.37058  0.47029  1.0000
  O   O2        1.0  0.64080  0.62942  0.52971  1.0000
  O   O3        1.0  0.34207  0.36724  0.28835  1.0000
  O   O4        1.0  0.65793  0.63276  0.71165  1.0000
  O   O5        1.0  0.67648  0.41861  0.25456  1.0000
  O   O6        1.0  0.32351  0.58139  0.74544  1.0000
  O   O7        1.0  0.85716  0.28341  0.24429  1.0000
  O   O8        1.0  0.14284  0.71659  0.75571  1.0000
