data_image0
_chemical_formula_structural       Cd2H32C40N8O10
_chemical_formula_sum              "Cd2 H32 C40 N8 O10"
_cell_length_a       6.00854
_cell_length_b       8.22183
_cell_length_c       20.9633
_cell_angle_alpha    97.9523
_cell_angle_beta     89.4794
_cell_angle_gamma    109.925

_space_group_name_H-M_alt    "P 1"
_space_group_IT_number       1

loop_
  _space_group_symop_operation_xyz
  'x, y, z'

loop_
  _atom_site_type_symbol
  _atom_site_label
  _atom_site_symmetry_multiplicity
  _atom_site_fract_x
  _atom_site_fract_y
  _atom_site_fract_z
  _atom_site_occupancy
  Cd  Cd1       1.0  0.85344  0.00408  0.24832  1.0000
  Cd  Cd2       1.0  0.14655  0.99592  0.75168  1.0000
  H   H1        1.0  0.93522  0.74383  0.13221  1.0000
  H   H2        1.0  0.22704  0.26497  0.36358  1.0000
  H   H3        1.0  0.06479  0.25615  0.86780  1.0000
  H   H4        1.0  0.77295  0.73506  0.63640  1.0000
  H   H5        1.0  0.35567  0.67241  0.24773  1.0000
  H   H6        1.0  0.71017  0.33654  0.25234  1.0000
  H   H7        1.0  0.64432  0.32760  0.75228  1.0000
  H   H8        1.0  0.28980  0.66345  0.74764  1.0000
  H   H9        1.0  0.30399  0.29456  0.07901  1.0000
  H   H10       1.0  0.00363  0.70817  0.42271  1.0000
  H   H11       1.0  0.69598  0.70543  0.92101  1.0000
  H   H12       1.0  0.99640  0.29190  0.57725  1.0000
  H   H13       1.0  0.12222  0.39176  0.17734  1.0000
  H   H14       1.0  0.73169  0.61383  0.32532  1.0000
  H   H15       1.0  0.87773  0.60824  0.82267  1.0000
  H   H16       1.0  0.26831  0.38620  0.67464  1.0000
  H   H17       1.0  0.27128  0.04389  0.40939  1.0000
  H   H18       1.0  0.23651  0.96518  0.09315  1.0000
  H   H19       1.0  0.72877  0.95615  0.59062  1.0000
  H   H20       1.0  0.76350  0.03477  0.90686  1.0000
  H   H21       1.0  0.84708  0.90693  0.47703  1.0000
  H   H22       1.0  0.93570  0.10234  0.01889  1.0000
  H   H23       1.0  0.15295  0.09310  0.52298  1.0000
  H   H24       1.0  0.06431  0.89761  0.98111  1.0000
  H   H25       1.0  0.28290  0.94698  0.27807  1.0000
  H   H26       1.0  0.31445  0.99797  0.20864  1.0000
  H   H27       1.0  0.71711  0.05302  0.72194  1.0000
  H   H28       1.0  0.68555  0.00203  0.79136  1.0000
  H   H29       1.0  0.63149  0.35231  0.00386  1.0000
  H   H30       1.0  0.28006  0.65474  0.49420  1.0000
  H   H31       1.0  0.36850  0.64764  0.99616  1.0000
  H   H32       1.0  0.71995  0.34534  0.50577  1.0000
  C   C1        1.0  0.75468  0.66351  0.14064  1.0000
  C   C2        1.0  0.11953  0.34483  0.35656  1.0000
  C   C3        1.0  0.24528  0.33646  0.85937  1.0000
  C   C4        1.0  0.88046  0.65521  0.64342  1.0000
  C   C5        1.0  0.43037  0.62143  0.20521  1.0000
  C   C6        1.0  0.83160  0.38751  0.29458  1.0000
  C   C7        1.0  0.56961  0.37857  0.79480  1.0000
  C   C8        1.0  0.16837  0.61250  0.70540  1.0000
  C   C9        1.0  0.63554  0.51224  0.09724  1.0000
  C   C10       1.0  0.13743  0.49339  0.40144  1.0000
  C   C11       1.0  0.36442  0.48771  0.90278  1.0000
  C   C12       1.0  0.86254  0.50664  0.59854  1.0000
  C   C13       1.0  0.74463  0.45936  0.03926  1.0000
  C   C14       1.0  0.29178  0.54506  0.45947  1.0000
  C   C15       1.0  0.25537  0.54060  0.96077  1.0000
  C   C16       1.0  0.70822  0.45498  0.54050  1.0000
  C   C17       1.0  0.40306  0.41381  0.11077  1.0000
  C   C18       1.0  0.99409  0.59096  0.38975  1.0000
  C   C19       1.0  0.59692  0.58616  0.88925  1.0000
  C   C20       1.0  0.00590  0.40908  0.61022  1.0000
  C   C21       1.0  0.30069  0.46817  0.16570  1.0000
  C   C22       1.0  0.84129  0.53825  0.33549  1.0000
  C   C23       1.0  0.69930  0.53183  0.83431  1.0000
  C   C24       1.0  0.15869  0.46177  0.66449  1.0000
  C   C25       1.0  0.65541  0.95570  0.36971  1.0000
  C   C26       1.0  0.70548  0.06762  0.12959  1.0000
  C   C27       1.0  0.34463  0.04432  0.63030  1.0000
  C   C28       1.0  0.29454  0.93235  0.87042  1.0000
  C   C29       1.0  0.37176  0.02551  0.44904  1.0000
  C   C30       1.0  0.35195  0.97989  0.05246  1.0000
  C   C31       1.0  0.62829  0.97453  0.55097  1.0000
  C   C32       1.0  0.64806  0.02007  0.94755  1.0000
  C   C33       1.0  0.69621  0.94899  0.48786  1.0000
  C   C34       1.0  0.74482  0.05592  0.01008  1.0000
  C   C35       1.0  0.30383  0.05104  0.51215  1.0000
  C   C36       1.0  0.25519  0.94403  0.98993  1.0000
  C   C37       1.0  0.56999  0.97466  0.43659  1.0000
  C   C38       1.0  0.59840  0.03595  0.06293  1.0000
  C   C39       1.0  0.43010  0.02538  0.56342  1.0000
  C   C40       1.0  0.40161  0.96401  0.93707  1.0000
  N   N1        1.0  0.65389  0.71751  0.19272  1.0000
  N   N2        1.0  0.96938  0.29297  0.30497  1.0000
  N   N3        1.0  0.34607  0.28247  0.80729  1.0000
  N   N4        1.0  0.03057  0.70703  0.69501  1.0000
  N   N5        1.0  0.96704  0.53476  0.02923  1.0000
  N   N6        1.0  0.43706  0.46551  0.47066  1.0000
  N   N7        1.0  0.03296  0.46520  0.97079  1.0000
  N   N8        1.0  0.56293  0.53452  0.52931  1.0000
  O   O1        1.0  0.85568  0.93714  0.36157  1.0000
  O   O2        1.0  0.91781  0.07241  0.13645  1.0000
  O   O3        1.0  0.14437  0.06290  0.63844  1.0000
  O   O4        1.0  0.08220  0.92756  0.86355  1.0000
  O   O5        1.0  0.52817  0.96628  0.32276  1.0000
  O   O6        1.0  0.57808  0.08287  0.17792  1.0000
  O   O7        1.0  0.47184  0.03372  0.67725  1.0000
  O   O8        1.0  0.42194  0.91710  0.82208  1.0000
  O   O9        1.0  0.19074  0.94029  0.23823  1.0000
  O   O10       1.0  0.80927  0.05971  0.76178  1.0000
