data_image0
_chemical_formula_structural       Gd2H18C18N8O14
_chemical_formula_sum              "Gd2 H18 C18 N8 O14"
_cell_length_a       7.84334
_cell_length_b       7.59522
_cell_length_c       11.3441
_cell_angle_alpha    106.162
_cell_angle_beta     94.4998
_cell_angle_gamma    90.3507

_space_group_name_H-M_alt    "P 1"
_space_group_IT_number       1

loop_
  _space_group_symop_operation_xyz
  'x, y, z'

loop_
  _atom_site_type_symbol
  _atom_site_label
  _atom_site_symmetry_multiplicity
  _atom_site_fract_x
  _atom_site_fract_y
  _atom_site_fract_z
  _atom_site_occupancy
  Gd  Gd1       1.0  0.70953  0.24828  0.68023  1.0000
  Gd  Gd2       1.0  0.30971  0.76027  0.31959  1.0000
  H   H1        1.0  0.40736  0.45077  0.63204  1.0000
  H   H2        1.0  0.49085  0.52899  0.47158  1.0000
  H   H3        1.0  0.56680  0.59876  0.66768  1.0000
  H   H4        1.0  0.42297  0.40846  0.33717  1.0000
  H   H5        1.0  0.99429  0.04584  0.53587  1.0000
  H   H6        1.0  0.98667  0.79374  0.38527  1.0000
  H   H7        1.0  0.01025  0.00781  0.66560  1.0000
  H   H8        1.0  0.96332  0.95615  0.32084  1.0000
  H   H9        1.0  0.07663  0.70252  0.96931  1.0000
  H   H10       1.0  0.93345  0.30043  0.02386  1.0000
  H   H11       1.0  0.13150  0.68184  0.59118  1.0000
  H   H12       1.0  0.86648  0.33781  0.40342  1.0000
  H   H13       1.0  0.46790  0.44682  0.88061  1.0000
  H   H14       1.0  0.55728  0.54396  0.15219  1.0000
  H   H15       1.0  0.62702  0.58071  0.89399  1.0000
  H   H16       1.0  0.38789  0.42316  0.11231  1.0000
  H   H17       1.0  0.37543  0.12321  0.88305  1.0000
  H   H18       1.0  0.63653  0.88263  0.11518  1.0000
  C   C1        1.0  0.34689  0.98959  0.63742  1.0000
  C   C2        1.0  0.66137  0.02600  0.36079  1.0000
  C   C3        1.0  0.29639  0.99800  0.85390  1.0000
  C   C4        1.0  0.71413  0.00902  0.14302  1.0000
  C   C5        1.0  0.26593  0.90980  0.72819  1.0000
  C   C6        1.0  0.74215  0.10184  0.26838  1.0000
  C   C7        1.0  0.23011  0.92454  0.94153  1.0000
  C   C8        1.0  0.78036  0.07981  0.05398  1.0000
  C   C9        1.0  0.12955  0.76234  0.90265  1.0000
  C   C10       1.0  0.87989  0.24299  0.09145  1.0000
  C   C11       1.0  0.16105  0.74992  0.68907  1.0000
  C   C12       1.0  0.84206  0.26453  0.30601  1.0000
  C   C13       1.0  0.09165  0.67801  0.77678  1.0000
  C   C14       1.0  0.91275  0.33246  0.21723  1.0000
  C   C15       1.0  0.96658  0.51808  0.73908  1.0000
  C   C16       1.0  0.02928  0.49811  0.25770  1.0000
  C   C17       1.0  0.26618  0.01669  0.07224  1.0000
  C   C18       1.0  0.74182  0.98438  0.92380  1.0000
  N   N1        1.0  0.32776  0.19066  0.12002  1.0000
  N   N2        1.0  0.67512  0.81195  0.87964  1.0000
  N   N3        1.0  0.34371  0.21717  0.24210  1.0000
  N   N4        1.0  0.65385  0.78203  0.75729  1.0000
  N   N5        1.0  0.29329  0.06855  0.26846  1.0000
  N   N6        1.0  0.70640  0.92670  0.72699  1.0000
  N   N7        1.0  0.24385  0.93931  0.16377  1.0000
  N   N8        1.0  0.76238  0.05685  0.82959  1.0000
  O   O1        1.0  0.42357  0.14556  0.67857  1.0000
  O   O2        1.0  0.58641  0.86889  0.32026  1.0000
  O   O3        1.0  0.52297  0.47184  0.61190  1.0000
  O   O4        1.0  0.46183  0.53712  0.38669  1.0000
  O   O5        1.0  0.33477  0.89510  0.52576  1.0000
  O   O6        1.0  0.67384  0.12097  0.47201  1.0000
  O   O7        1.0  0.97274  0.09848  0.62355  1.0000
  O   O8        1.0  0.03165  0.91616  0.38415  1.0000
  O   O9        1.0  0.89415  0.46944  0.62954  1.0000
  O   O10       1.0  0.06502  0.57384  0.37351  1.0000
  O   O11       1.0  0.92872  0.43933  0.81992  1.0000
  O   O12       1.0  0.09453  0.56071  0.17759  1.0000
  O   O13       1.0  0.58926  0.44865  0.86844  1.0000
  O   O14       1.0  0.43421  0.55243  0.13607  1.0000
