data_image0
_chemical_formula_structural       Co2H8C12N8O8
_chemical_formula_sum              "Co2 H8 C12 N8 O8"
_cell_length_a       6.85424
_cell_length_b       7.46533
_cell_length_c       9.14178
_cell_angle_alpha    113.006
_cell_angle_beta     109.872
_cell_angle_gamma    90.2577

_space_group_name_H-M_alt    "P 1"
_space_group_IT_number       1

loop_
  _space_group_symop_operation_xyz
  'x, y, z'

loop_
  _atom_site_type_symbol
  _atom_site_label
  _atom_site_symmetry_multiplicity
  _atom_site_fract_x
  _atom_site_fract_y
  _atom_site_fract_z
  _atom_site_occupancy
  Co  Co1       1.0  0.25498  0.67758  0.35601  1.0000
  Co  Co2       1.0  0.74162  0.32515  0.63991  1.0000
  H   H1        1.0  0.63397  0.61428  0.44175  1.0000
  H   H2        1.0  0.63410  0.83603  0.44631  1.0000
  H   H3        1.0  0.34400  0.38915  0.54275  1.0000
  H   H4        1.0  0.34239  0.17209  0.54892  1.0000
  H   H5        1.0  0.87385  0.50793  0.23427  1.0000
  H   H6        1.0  0.87155  0.73290  0.23896  1.0000
  H   H7        1.0  0.14575  0.49484  0.76590  1.0000
  H   H8        1.0  0.14242  0.27579  0.77296  1.0000
  C   C1        1.0  0.25379  0.74779  0.67897  1.0000
  C   C2        1.0  0.25177  0.94706  0.68270  1.0000
  C   C3        1.0  0.74922  0.25908  0.31699  1.0000
  C   C4        1.0  0.74832  0.06156  0.32015  1.0000
  C   C5        1.0  0.25021  0.87395  0.95543  1.0000
  C   C6        1.0  0.24888  0.06372  0.95913  1.0000
  C   C7        1.0  0.75861  0.11573  0.04481  1.0000
  C   C8        1.0  0.75866  0.92984  0.04756  1.0000
  C   C9        1.0  0.25095  0.82805  0.09295  1.0000
  C   C10       1.0  0.24976  0.23612  0.10078  1.0000
  C   C11       1.0  0.75183  0.14931  0.90154  1.0000
  C   C12       1.0  0.75293  0.75561  0.90646  1.0000
  N   N1        1.0  0.25173  0.71772  0.81305  1.0000
  N   N2        1.0  0.24851  0.09743  0.82285  1.0000
  N   N3        1.0  0.75919  0.27964  0.18077  1.0000
  N   N4        1.0  0.75847  0.90517  0.18734  1.0000
  N   N5        1.0  0.25088  0.76945  0.19487  1.0000
  N   N6        1.0  0.25042  0.38919  0.20606  1.0000
  N   N7        1.0  0.74366  0.19987  0.79428  1.0000
  N   N8        1.0  0.74631  0.60373  0.79769  1.0000
  O   O1        1.0  0.25868  0.60471  0.54356  1.0000
  O   O2        1.0  0.25378  0.96953  0.55193  1.0000
  O   O3        1.0  0.73977  0.40677  0.44537  1.0000
  O   O4        1.0  0.73667  0.04511  0.45119  1.0000
  O   O5        1.0  0.56216  0.73296  0.46357  1.0000
  O   O6        1.0  0.41941  0.27459  0.53473  1.0000
  O   O7        1.0  0.95360  0.64682  0.29244  1.0000
  O   O8        1.0  0.05719  0.36373  0.72508  1.0000
