data_image0
_chemical_formula_structural       CuH12C6O6
_chemical_formula_sum              "Cu1 H12 C6 O6"
_cell_length_a       3.7563
_cell_length_b       4.91422
_cell_length_c       11.2268
_cell_angle_alpha    88.379
_cell_angle_beta     90.2519
_cell_angle_gamma    82.5429

_space_group_name_H-M_alt    "P 1"
_space_group_IT_number       1

loop_
  _space_group_symop_operation_xyz
  'x, y, z'

loop_
  _atom_site_type_symbol
  _atom_site_label
  _atom_site_symmetry_multiplicity
  _atom_site_fract_x
  _atom_site_fract_y
  _atom_site_fract_z
  _atom_site_occupancy
  Cu  Cu1       1.0  0.50000  0.99999  0.50000  1.0000
  H   H1        1.0  0.40411  0.35907  0.80493  1.0000
  H   H2        1.0  0.59589  0.64095  0.19507  1.0000
  H   H3        1.0  0.82049  0.47660  0.81855  1.0000
  H   H4        1.0  0.17951  0.52340  0.18145  1.0000
  H   H5        1.0  0.58079  0.79578  0.97905  1.0000
  H   H6        1.0  0.41922  0.20423  0.02095  1.0000
  H   H7        1.0  0.15571  0.69026  0.96403  1.0000
  H   H8        1.0  0.84430  0.30975  0.03598  1.0000
  H   H9        1.0  0.25775  0.59145  0.40167  1.0000
  H   H10       1.0  0.74225  0.40854  0.59833  1.0000
  H   H11       1.0  0.03574  0.87888  0.34675  1.0000
  H   H12       1.0  0.96426  0.12111  0.65325  1.0000
  C   C1        1.0  0.41335  0.76210  0.73487  1.0000
  C   C2        1.0  0.58666  0.23789  0.26512  1.0000
  C   C3        1.0  0.53130  0.54080  0.82829  1.0000
  C   C4        1.0  0.46869  0.45921  0.17172  1.0000
  C   C5        1.0  0.44394  0.61946  0.95607  1.0000
  C   C6        1.0  0.55607  0.38056  0.04393  1.0000
  O   O1        1.0  0.55374  0.71967  0.62992  1.0000
  O   O2        1.0  0.44625  0.28030  0.37007  1.0000
  O   O3        1.0  0.19148  0.96635  0.75893  1.0000
  O   O4        1.0  0.80853  0.03367  0.24106  1.0000
  O   O5        1.0  0.15822  0.78517  0.42113  1.0000
  O   O6        1.0  0.84177  0.21481  0.57886  1.0000
