data_image0
_chemical_formula_structural       Cd2H24C12O12
_chemical_formula_sum              "Cd2 H24 C12 O12"
_cell_length_a       5.51513
_cell_length_b       8.7919
_cell_length_c       10.998
_cell_angle_alpha    94.1498
_cell_angle_beta     90.0199
_cell_angle_gamma    108.295

_space_group_name_H-M_alt    "P 1"
_space_group_IT_number       1

loop_
  _space_group_symop_operation_xyz
  'x, y, z'

loop_
  _atom_site_type_symbol
  _atom_site_label
  _atom_site_symmetry_multiplicity
  _atom_site_fract_x
  _atom_site_fract_y
  _atom_site_fract_z
  _atom_site_occupancy
  Cd  Cd1       1.0  0.35590  0.00008  0.75001  1.0000
  Cd  Cd2       1.0  0.64410  0.99991  0.24999  1.0000
  H   H1        1.0  0.94894  0.23478  0.05071  1.0000
  H   H2        1.0  0.28594  0.23474  0.55082  1.0000
  H   H3        1.0  0.05107  0.76522  0.94930  1.0000
  H   H4        1.0  0.71406  0.76527  0.44917  1.0000
  H   H5        1.0  0.26452  0.36188  0.07025  1.0000
  H   H6        1.0  0.09758  0.36184  0.57030  1.0000
  H   H7        1.0  0.73548  0.63812  0.92975  1.0000
  H   H8        1.0  0.90242  0.63816  0.42970  1.0000
  H   H9        1.0  0.86882  0.39613  0.88540  1.0000
  H   H10       1.0  0.52743  0.39601  0.38553  1.0000
  H   H11       1.0  0.13118  0.60386  0.11460  1.0000
  H   H12       1.0  0.47257  0.60400  0.61447  1.0000
  H   H13       1.0  0.19005  0.51974  0.89549  1.0000
  H   H14       1.0  0.32960  0.51946  0.39535  1.0000
  H   H15       1.0  0.80995  0.48025  0.10451  1.0000
  H   H16       1.0  0.67039  0.48054  0.60465  1.0000
  H   H17       1.0  0.66711  0.80765  0.77297  1.0000
  H   H18       1.0  0.14086  0.80731  0.27304  1.0000
  H   H19       1.0  0.33289  0.19235  0.22702  1.0000
  H   H20       1.0  0.85914  0.19269  0.72696  1.0000
  H   H21       1.0  0.57700  0.84427  0.90829  1.0000
  H   H22       1.0  0.26767  0.84417  0.40836  1.0000
  H   H23       1.0  0.42300  0.15573  0.09171  1.0000
  H   H24       1.0  0.73233  0.15583  0.59164  1.0000
  C   C1        1.0  0.19230  0.20288  0.91035  1.0000
  C   C2        1.0  0.01035  0.20266  0.41050  1.0000
  C   C3        1.0  0.80770  0.79712  0.08965  1.0000
  C   C4        1.0  0.98965  0.79734  0.58949  1.0000
  C   C5        1.0  0.10972  0.31213  0.00144  1.0000
  C   C6        1.0  0.20242  0.31202  0.50149  1.0000
  C   C7        1.0  0.89028  0.68787  0.99857  1.0000
  C   C8        1.0  0.79757  0.68799  0.49851  1.0000
  C   C9        1.0  0.03327  0.44662  0.94908  1.0000
  C   C10       1.0  0.41336  0.44651  0.44908  1.0000
  C   C11       1.0  0.96673  0.55338  0.05092  1.0000
  C   C12       1.0  0.58664  0.55350  0.55092  1.0000
  O   O1        1.0  0.33118  0.12170  0.94824  1.0000
  O   O2        1.0  0.79033  0.12140  0.44838  1.0000
  O   O3        1.0  0.66884  0.87830  0.05176  1.0000
  O   O4        1.0  0.20967  0.87860  0.55162  1.0000
  O   O5        1.0  0.12603  0.18884  0.79802  1.0000
  O   O6        1.0  0.06232  0.18866  0.29815  1.0000
  O   O7        1.0  0.87397  0.81116  0.20198  1.0000
  O   O8        1.0  0.93768  0.81134  0.70185  1.0000
  O   O9        1.0  0.51691  0.81673  0.82040  1.0000
  O   O10       1.0  0.30015  0.81638  0.32051  1.0000
  O   O11       1.0  0.48309  0.18326  0.17960  1.0000
  O   O12       1.0  0.69986  0.18361  0.67949  1.0000
