data_image0
_chemical_formula_structural       La2H28C66N4Cl6O12F12
_chemical_formula_sum              "La2 H28 C66 N4 Cl6 O12 F12"
_cell_length_a       10.0954
_cell_length_b       13.0475
_cell_length_c       13.2086
_cell_angle_alpha    72.9523
_cell_angle_beta     83.5353
_cell_angle_gamma    86.2321

_space_group_name_H-M_alt    "P 1"
_space_group_IT_number       1

loop_
  _space_group_symop_operation_xyz
  'x, y, z'

loop_
  _atom_site_type_symbol
  _atom_site_label
  _atom_site_symmetry_multiplicity
  _atom_site_fract_x
  _atom_site_fract_y
  _atom_site_fract_z
  _atom_site_occupancy
  La  La1       1.0  0.28995  0.55408  0.48891  1.0000
  La  La2       1.0  0.71005  0.44592  0.51109  1.0000
  H   H1        1.0  0.04431  0.64967  0.97289  1.0000
  H   H2        1.0  0.95569  0.35033  0.02710  1.0000
  H   H3        1.0  0.92470  0.74456  0.31167  1.0000
  H   H4        1.0  0.07529  0.25544  0.68832  1.0000
  H   H5        1.0  0.67763  0.39978  0.97347  1.0000
  H   H6        1.0  0.32237  0.60022  0.02653  1.0000
  H   H7        1.0  0.31052  0.35214  0.26604  1.0000
  H   H8        1.0  0.68948  0.64786  0.73396  1.0000
  H   H9        1.0  0.45373  0.94783  0.65933  1.0000
  H   H10       1.0  0.54627  0.05217  0.34067  1.0000
  H   H11       1.0  0.37299  0.26114  0.80447  1.0000
  H   H12       1.0  0.62701  0.73886  0.19553  1.0000
  H   H13       1.0  0.21732  0.67777  0.69018  1.0000
  H   H14       1.0  0.78268  0.32223  0.30982  1.0000
  H   H15       1.0  0.16028  0.84970  0.73775  1.0000
  H   H16       1.0  0.83972  0.15030  0.26225  1.0000
  H   H17       1.0  0.14195  0.02116  0.59038  1.0000
  H   H18       1.0  0.85805  0.97884  0.40962  1.0000
  H   H19       1.0  0.14999  0.11295  0.39466  1.0000
  H   H20       1.0  0.85000  0.88705  0.60534  1.0000
  H   H21       1.0  0.17947  0.10133  0.20932  1.0000
  H   H22       1.0  0.82053  0.89867  0.79068  1.0000
  H   H23       1.0  0.22774  0.99143  0.08292  1.0000
  H   H24       1.0  0.77226  0.00857  0.91708  1.0000
  H   H25       1.0  0.29027  0.81211  0.05459  1.0000
  H   H26       1.0  0.70973  0.18789  0.94541  1.0000
  H   H27       1.0  0.31410  0.65236  0.21469  1.0000
  H   H28       1.0  0.68590  0.34764  0.78531  1.0000
  C   C1        1.0  0.99337  0.61776  0.24164  1.0000
  C   C2        1.0  0.00663  0.38224  0.75836  1.0000
  C   C3        1.0  0.02745  0.59295  0.14561  1.0000
  C   C4        1.0  0.97255  0.40705  0.85439  1.0000
  C   C5        1.0  0.01964  0.67017  0.04717  1.0000
  C   C6        1.0  0.98036  0.32984  0.95283  1.0000
  C   C7        1.0  0.97802  0.77392  0.04599  1.0000
  C   C8        1.0  0.02198  0.22609  0.95401  1.0000
  C   C9        1.0  0.94557  0.80046  0.14091  1.0000
  C   C10       1.0  0.05443  0.19954  0.85909  1.0000
  C   C11       1.0  0.95268  0.72328  0.23815  1.0000
  C   C12       1.0  0.04732  0.27672  0.76185  1.0000
  C   C13       1.0  0.00227  0.53285  0.34752  1.0000
  C   C14       1.0  0.99772  0.46715  0.65248  1.0000
  C   C15       1.0  0.50578  0.41445  0.20847  1.0000
  C   C16       1.0  0.49422  0.58555  0.79153  1.0000
  C   C17       1.0  0.60919  0.42667  0.12562  1.0000
  C   C18       1.0  0.39081  0.57333  0.87438  1.0000
  C   C19       1.0  0.59987  0.38618  0.03968  1.0000
  C   C20       1.0  0.40014  0.61383  0.96032  1.0000
  C   C21       1.0  0.48710  0.33218  0.03755  1.0000
  C   C22       1.0  0.51290  0.66782  0.96245  1.0000
  C   C23       1.0  0.38411  0.31828  0.11963  1.0000
  C   C24       1.0  0.61590  0.68172  0.88037  1.0000
  C   C25       1.0  0.39268  0.35969  0.20364  1.0000
  C   C26       1.0  0.60732  0.64031  0.79636  1.0000
  C   C27       1.0  0.50649  0.45814  0.30242  1.0000
  C   C28       1.0  0.49351  0.54185  0.69758  1.0000
  C   C29       1.0  0.39901  0.20911  0.66154  1.0000
  C   C30       1.0  0.60099  0.79089  0.33846  1.0000
  C   C31       1.0  0.42235  0.12067  0.62197  1.0000
  C   C32       1.0  0.57765  0.87933  0.37803  1.0000
  C   C33       1.0  0.43678  0.01690  0.68983  1.0000
  C   C34       1.0  0.56322  0.98310  0.31018  1.0000
  C   C35       1.0  0.42746  0.00329  0.79849  1.0000
  C   C36       1.0  0.57254  0.99670  0.20151  1.0000
  C   C37       1.0  0.40536  0.09101  0.83911  1.0000
  C   C38       1.0  0.59464  0.90899  0.16089  1.0000
  C   C39       1.0  0.39127  0.19372  0.77127  1.0000
  C   C40       1.0  0.60873  0.80628  0.22873  1.0000
  C   C41       1.0  0.37748  0.31988  0.58843  1.0000
  C   C42       1.0  0.62251  0.68013  0.41157  1.0000
  C   C43       1.0  0.20836  0.75400  0.62860  1.0000
  C   C44       1.0  0.79164  0.24600  0.37140  1.0000
  C   C45       1.0  0.17661  0.85046  0.65455  1.0000
  C   C46       1.0  0.82339  0.14954  0.34545  1.0000
  C   C47       1.0  0.16613  0.94477  0.57333  1.0000
  C   C48       1.0  0.83387  0.05523  0.42667  1.0000
  C   C49       1.0  0.18612  0.94222  0.46652  1.0000
  C   C50       1.0  0.81387  0.05778  0.53348  1.0000
  C   C51       1.0  0.17383  0.03623  0.37832  1.0000
  C   C52       1.0  0.82616  0.96377  0.62168  1.0000
  C   C53       1.0  0.19000  0.02995  0.27627  1.0000
  C   C54       1.0  0.81000  0.97005  0.72373  1.0000
  C   C55       1.0  0.22209  0.92950  0.25448  1.0000
  C   C56       1.0  0.77791  0.07050  0.74552  1.0000
  C   C57       1.0  0.24009  0.92032  0.14987  1.0000
  C   C58       1.0  0.75991  0.07968  0.85013  1.0000
  C   C59       1.0  0.27372  0.82141  0.13429  1.0000
  C   C60       1.0  0.72628  0.17859  0.86571  1.0000
  C   C61       1.0  0.28774  0.73199  0.22343  1.0000
  C   C62       1.0  0.71226  0.26801  0.77657  1.0000
  C   C63       1.0  0.23794  0.83460  0.33977  1.0000
  C   C64       1.0  0.76206  0.16540  0.66023  1.0000
  C   C65       1.0  0.21810  0.84085  0.44796  1.0000
  C   C66       1.0  0.78190  0.15915  0.55204  1.0000
  N   N1        1.0  0.22942  0.74902  0.52864  1.0000
  N   N2        1.0  0.77058  0.25098  0.47136  1.0000
  N   N3        1.0  0.27020  0.73768  0.32315  1.0000
  N   N4        1.0  0.72980  0.26232  0.67685  1.0000
  Cl  Cl1       1.0  0.08290  0.46395  0.14753  1.0000
  Cl  Cl2       1.0  0.91710  0.53605  0.85247  1.0000
  Cl  Cl3       1.0  0.74840  0.49823  0.12150  1.0000
  Cl  Cl4       1.0  0.25160  0.50177  0.87850  1.0000
  Cl  Cl5       1.0  0.43054  0.14125  0.48565  1.0000
  Cl  Cl6       1.0  0.56946  0.85875  0.51436  1.0000
  O   O1        1.0  0.10354  0.53395  0.39502  1.0000
  O   O2        1.0  0.89646  0.46606  0.60498  1.0000
  O   O3        1.0  0.90862  0.46769  0.37894  1.0000
  O   O4        1.0  0.09139  0.53230  0.62105  1.0000
  O   O5        1.0  0.39423  0.49305  0.33522  1.0000
  O   O6        1.0  0.60577  0.50695  0.66478  1.0000
  O   O7        1.0  0.61614  0.45495  0.34137  1.0000
  O   O8        1.0  0.38387  0.54504  0.65863  1.0000
  O   O9        1.0  0.25957  0.35057  0.56819  1.0000
  O   O10       1.0  0.74042  0.64943  0.43181  1.0000
  O   O11       1.0  0.47784  0.37864  0.55269  1.0000
  O   O12       1.0  0.52215  0.62136  0.44732  1.0000
  F   F1        1.0  0.97044  0.85109  0.95144  1.0000
  F   F2        1.0  0.02956  0.14891  0.04856  1.0000
  F   F3        1.0  0.90830  0.90361  0.13691  1.0000
  F   F4        1.0  0.09170  0.09639  0.86309  1.0000
  F   F5        1.0  0.47514  0.29405  0.95415  1.0000
  F   F6        1.0  0.52486  0.70595  0.04585  1.0000
  F   F7        1.0  0.27403  0.26596  0.11440  1.0000
  F   F8        1.0  0.72597  0.73404  0.88560  1.0000
  F   F9        1.0  0.43883  0.90320  0.86680  1.0000
  F   F10       1.0  0.56118  0.09680  0.13320  1.0000
  F   F11       1.0  0.39590  0.07475  0.94572  1.0000
  F   F12       1.0  0.60410  0.92525  0.05428  1.0000
