data_image0
_chemical_formula_structural       Co2H12C16N8Cl4
_chemical_formula_sum              "Co2 H12 C16 N8 Cl4"
_cell_length_a       9.05682
_cell_length_b       7.87753
_cell_length_c       13.1573
_cell_angle_alpha    74.821
_cell_angle_beta     57.8356
_cell_angle_gamma    69.3389

_space_group_name_H-M_alt    "P 1"
_space_group_IT_number       1

loop_
  _space_group_symop_operation_xyz
  'x, y, z'

loop_
  _atom_site_type_symbol
  _atom_site_label
  _atom_site_symmetry_multiplicity
  _atom_site_fract_x
  _atom_site_fract_y
  _atom_site_fract_z
  _atom_site_occupancy
  Co  Co1       1.0  0.15419  0.95834  0.22436  1.0000
  Co  Co2       1.0  0.84582  0.04165  0.77563  1.0000
  H   H1        1.0  0.23729  0.93749  0.43081  1.0000
  H   H2        1.0  0.76271  0.06250  0.56918  1.0000
  H   H3        1.0  0.97953  0.41418  0.70789  1.0000
  H   H4        1.0  0.02040  0.58584  0.29213  1.0000
  H   H5        1.0  0.12232  0.01816  0.99029  1.0000
  H   H6        1.0  0.87768  0.98182  0.00971  1.0000
  H   H7        1.0  0.46558  0.57503  0.19082  1.0000
  H   H8        1.0  0.53447  0.42498  0.80918  1.0000
  H   H9        1.0  0.26784  0.78417  0.84383  1.0000
  H   H10       1.0  0.73221  0.21582  0.15615  1.0000
  H   H11       1.0  0.13436  0.73072  0.62211  1.0000
  H   H12       1.0  0.86562  0.26929  0.37789  1.0000
  C   C1        1.0  0.17926  0.82770  0.44650  1.0000
  C   C2        1.0  0.82074  0.17228  0.55349  1.0000
  C   C3        1.0  0.06932  0.64260  0.42387  1.0000
  C   C4        1.0  0.93067  0.35737  0.57614  1.0000
  C   C5        1.0  0.05970  0.59219  0.53952  1.0000
  C   C6        1.0  0.94026  0.40782  0.46050  1.0000
  C   C7        1.0  0.98984  0.44967  0.61905  1.0000
  C   C8        1.0  0.01015  0.55031  0.38094  1.0000
  C   C9        1.0  0.21289  0.88685  0.99591  1.0000
  C   C10       1.0  0.78711  0.11314  0.00409  1.0000
  C   C11       1.0  0.40404  0.61574  0.94587  1.0000
  C   C12       1.0  0.59597  0.38428  0.05414  1.0000
  C   C13       1.0  0.38448  0.65888  0.05222  1.0000
  C   C14       1.0  0.61553  0.34112  0.94778  1.0000
  C   C15       1.0  0.48095  0.54319  0.10948  1.0000
  C   C16       1.0  0.51906  0.45682  0.89053  1.0000
  N   N1        1.0  0.26121  0.82896  0.08123  1.0000
  N   N2        1.0  0.73880  0.17105  0.91877  1.0000
  N   N3        1.0  0.29191  0.76423  0.91483  1.0000
  N   N4        1.0  0.70811  0.23578  0.08516  1.0000
  N   N5        1.0  0.14449  0.79130  0.36902  1.0000
  N   N6        1.0  0.85548  0.20870  0.63099  1.0000
  N   N7        1.0  0.13224  0.71263  0.54832  1.0000
  N   N8        1.0  0.86776  0.28737  0.45168  1.0000
  Cl  Cl1       1.0  0.29208  0.15338  0.20421  1.0000
  Cl  Cl2       1.0  0.70793  0.84659  0.79580  1.0000
  Cl  Cl3       1.0  0.86078  0.09542  0.26956  1.0000
  Cl  Cl4       1.0  0.13923  0.90458  0.73043  1.0000
