data_image0
_chemical_formula_structural       Co2H20C12N28
_chemical_formula_sum              "Co2 H20 C12 N28"
_cell_length_a       6.19651
_cell_length_b       9.53572
_cell_length_c       10.6454
_cell_angle_alpha    94.1432
_cell_angle_beta     88.8572
_cell_angle_gamma    90.9594

_space_group_name_H-M_alt    "P 1"
_space_group_IT_number       1

loop_
  _space_group_symop_operation_xyz
  'x, y, z'

loop_
  _atom_site_type_symbol
  _atom_site_label
  _atom_site_symmetry_multiplicity
  _atom_site_fract_x
  _atom_site_fract_y
  _atom_site_fract_z
  _atom_site_occupancy
  Co  Co1       1.0  0.00000  0.50000  0.50000  1.0000
  Co  Co2       1.0  0.50000  0.00000  0.50000  1.0000
  H   H1        1.0  0.47722  0.49398  0.64052  1.0000
  H   H2        1.0  0.97980  0.00388  0.36787  1.0000
  H   H3        1.0  0.52278  0.50601  0.35949  1.0000
  H   H4        1.0  0.02021  0.99612  0.63213  1.0000
  H   H5        1.0  0.56932  0.73440  0.94458  1.0000
  H   H6        1.0  0.06150  0.76833  0.06166  1.0000
  H   H7        1.0  0.43068  0.26559  0.05543  1.0000
  H   H8        1.0  0.93848  0.23168  0.93834  1.0000
  H   H9        1.0  0.72656  0.65051  0.81975  1.0000
  H   H10       1.0  0.21755  0.85834  0.18216  1.0000
  H   H11       1.0  0.27344  0.34948  0.18026  1.0000
  H   H12       1.0  0.78244  0.14166  0.81782  1.0000
  H   H13       1.0  0.74730  0.51795  0.00695  1.0000
  H   H14       1.0  0.24706  0.98347  0.99083  1.0000
  H   H15       1.0  0.25270  0.48204  0.99306  1.0000
  H   H16       1.0  0.75293  0.01653  0.00916  1.0000
  H   H17       1.0  0.61011  0.41477  0.88836  1.0000
  H   H18       1.0  0.10852  0.08941  0.10859  1.0000
  H   H19       1.0  0.38989  0.58523  0.11164  1.0000
  H   H20       1.0  0.89147  0.91059  0.89141  1.0000
  C   C1        1.0  0.35893  0.55997  0.69170  1.0000
  C   C2        1.0  0.85575  0.94272  0.31706  1.0000
  C   C3        1.0  0.64108  0.44003  0.30830  1.0000
  C   C4        1.0  0.14425  0.05728  0.68294  1.0000
  C   C5        1.0  0.58330  0.63939  0.88079  1.0000
  C   C6        1.0  0.07627  0.86563  0.12250  1.0000
  C   C7        1.0  0.41670  0.36060  0.11922  1.0000
  C   C8        1.0  0.92374  0.13437  0.87749  1.0000
  C   C9        1.0  0.59570  0.50844  0.95464  1.0000
  C   C10       1.0  0.09397  0.99390  0.04462  1.0000
  C   C11       1.0  0.40430  0.49156  0.04537  1.0000
  C   C12       1.0  0.90603  0.00610  0.95538  1.0000
  N   N1        1.0  0.76346  0.64445  0.52147  1.0000
  N   N2        1.0  0.26314  0.86401  0.48076  1.0000
  N   N3        1.0  0.23654  0.35555  0.47853  1.0000
  N   N4        1.0  0.73686  0.13599  0.51924  1.0000
  N   N5        1.0  0.72914  0.75682  0.57223  1.0000
  N   N6        1.0  0.23961  0.74892  0.43166  1.0000
  N   N7        1.0  0.27086  0.24318  0.42777  1.0000
  N   N8        1.0  0.76039  0.25108  0.56833  1.0000
  N   N9        1.0  0.68361  0.86834  0.62220  1.0000
  N   N10       1.0  0.19519  0.63579  0.38526  1.0000
  N   N11       1.0  0.31639  0.13166  0.37780  1.0000
  N   N12       1.0  0.80481  0.36421  0.61474  1.0000
  N   N13       1.0  0.15734  0.58354  0.65869  1.0000
  N   N14       1.0  0.64969  0.92310  0.35158  1.0000
  N   N15       1.0  0.84267  0.41646  0.34131  1.0000
  N   N16       1.0  0.35031  0.07690  0.64842  1.0000
  N   N17       1.0  0.07086  0.67345  0.75014  1.0000
  N   N18       1.0  0.55601  0.83913  0.25862  1.0000
  N   N19       1.0  0.92914  0.32654  0.24986  1.0000
  N   N20       1.0  0.44398  0.16088  0.74138  1.0000
  N   N21       1.0  0.21193  0.70464  0.83710  1.0000
  N   N22       1.0  0.69701  0.80774  0.16964  1.0000
  N   N23       1.0  0.78807  0.29535  0.16290  1.0000
  N   N24       1.0  0.30298  0.19227  0.83036  1.0000
  N   N25       1.0  0.39386  0.63484  0.80126  1.0000
  N   N26       1.0  0.88528  0.87120  0.20519  1.0000
  N   N27       1.0  0.60614  0.36516  0.19875  1.0000
  N   N28       1.0  0.11472  0.12881  0.79481  1.0000
