data_image0
_chemical_formula_structural       Zn2H20C16O8
_chemical_formula_sum              "Zn2 H20 C16 O8"
_cell_length_a       4.90794
_cell_length_b       6.77041
_cell_length_c       13.6591
_cell_angle_alpha    93.4139
_cell_angle_beta     101.431
_cell_angle_gamma    98.1738

_space_group_name_H-M_alt    "P 1"
_space_group_IT_number       1

loop_
  _space_group_symop_operation_xyz
  'x, y, z'

loop_
  _atom_site_type_symbol
  _atom_site_label
  _atom_site_symmetry_multiplicity
  _atom_site_fract_x
  _atom_site_fract_y
  _atom_site_fract_z
  _atom_site_occupancy
  Zn  Zn1       1.0  0.27409  0.18303  0.57056  1.0000
  Zn  Zn2       1.0  0.72591  0.81697  0.42943  1.0000
  H   H1        1.0  0.57254  0.54424  0.68963  1.0000
  H   H2        1.0  0.42746  0.45576  0.31037  1.0000
  H   H3        1.0  0.64034  0.27969  0.80601  1.0000
  H   H4        1.0  0.35965  0.72031  0.19398  1.0000
  H   H5        1.0  0.99748  0.38734  0.85034  1.0000
  H   H6        1.0  0.00252  0.61266  0.14966  1.0000
  H   H7        1.0  0.47860  0.57632  0.87222  1.0000
  H   H8        1.0  0.52140  0.42368  0.12778  1.0000
  H   H9        1.0  0.71706  0.49377  0.96946  1.0000
  H   H10       1.0  0.28294  0.50622  0.03054  1.0000
  H   H11       1.0  0.09867  0.75827  0.95037  1.0000
  H   H12       1.0  0.90133  0.24173  0.04963  1.0000
  H   H13       1.0  0.80273  0.86855  0.96508  1.0000
  H   H14       1.0  0.19727  0.13145  0.03492  1.0000
  H   H15       1.0  0.02584  0.00827  0.82719  1.0000
  H   H16       1.0  0.97416  0.99173  0.17281  1.0000
  H   H17       1.0  0.67282  0.89348  0.78035  1.0000
  H   H18       1.0  0.32718  0.10652  0.21965  1.0000
  H   H19       1.0  0.19748  0.70041  0.77368  1.0000
  H   H20       1.0  0.80252  0.29959  0.22633  1.0000
  C   C1        1.0  0.87270  0.37471  0.64849  1.0000
  C   C2        1.0  0.12728  0.62529  0.35151  1.0000
  C   C3        1.0  0.78750  0.52003  0.72139  1.0000
  C   C4        1.0  0.21250  0.47997  0.27860  1.0000
  C   C5        1.0  0.78567  0.42266  0.82066  1.0000
  C   C6        1.0  0.21433  0.57734  0.17934  1.0000
  C   C7        1.0  0.70163  0.56178  0.89785  1.0000
  C   C8        1.0  0.29837  0.43822  0.10216  1.0000
  C   C9        1.0  0.88064  0.76986  0.91361  1.0000
  C   C10       1.0  0.11936  0.23014  0.08639  1.0000
  C   C11       1.0  0.88432  0.86370  0.81464  1.0000
  C   C12       1.0  0.11568  0.13630  0.18537  1.0000
  C   C13       1.0  0.98189  0.72240  0.74056  1.0000
  C   C14       1.0  0.01811  0.27760  0.25944  1.0000
  C   C15       1.0  0.99982  0.82251  0.64499  1.0000
  C   C16       1.0  0.00014  0.17747  0.35501  1.0000
  O   O1        1.0  0.13461  0.39254  0.64697  1.0000
  O   O2        1.0  0.86540  0.60746  0.35303  1.0000
  O   O3        1.0  0.69349  0.23503  0.59552  1.0000
  O   O4        1.0  0.30651  0.76498  0.40449  1.0000
  O   O5        1.0  0.21509  0.95476  0.64909  1.0000
  O   O6        1.0  0.78496  0.04525  0.35091  1.0000
  O   O7        1.0  0.79721  0.77013  0.57020  1.0000
  O   O8        1.0  0.20281  0.22989  0.42981  1.0000
