data_image0
_chemical_formula_structural       Cu2H8C12S2N4Cl2
_chemical_formula_sum              "Cu2 H8 C12 S2 N4 Cl2"
_cell_length_a       3.73048
_cell_length_b       10.103
_cell_length_c       10.103
_cell_angle_alpha    73.9374
_cell_angle_beta     79.2189
_cell_angle_gamma    79.2198

_space_group_name_H-M_alt    "P 1"
_space_group_IT_number       1

loop_
  _space_group_symop_operation_xyz
  'x, y, z'

loop_
  _atom_site_type_symbol
  _atom_site_label
  _atom_site_symmetry_multiplicity
  _atom_site_fract_x
  _atom_site_fract_y
  _atom_site_fract_z
  _atom_site_occupancy
  Cu  Cu1       1.0  0.31069  0.19130  0.19152  1.0000
  Cu  Cu2       1.0  0.31076  0.69152  0.69129  1.0000
  H   H1        1.0  0.86252  0.42720  0.34157  1.0000
  H   H2        1.0  0.36560  0.34246  0.42808  1.0000
  H   H3        1.0  0.36567  0.92807  0.84246  1.0000
  H   H4        1.0  0.86261  0.84157  0.92719  1.0000
  H   H5        1.0  0.50117  0.65472  0.36058  1.0000
  H   H6        1.0  0.47678  0.36140  0.65554  1.0000
  H   H7        1.0  0.47683  0.15554  0.86142  1.0000
  H   H8        1.0  0.50120  0.86058  0.15471  1.0000
  C   C1        1.0  0.06335  0.50408  0.12245  1.0000
  C   C2        1.0  0.31066  0.12312  0.50471  1.0000
  C   C3        1.0  0.31066  0.00471  0.62314  1.0000
  C   C4        1.0  0.06339  0.62246  0.00408  1.0000
  C   C5        1.0  0.85865  0.51648  0.25193  1.0000
  C   C6        1.0  0.37079  0.25268  0.51721  1.0000
  C   C7        1.0  0.37081  0.01722  0.75267  1.0000
  C   C8        1.0  0.85873  0.75191  0.01648  1.0000
  C   C9        1.0  0.65934  0.64392  0.26095  1.0000
  C   C10       1.0  0.43159  0.26170  0.64469  1.0000
  C   C11       1.0  0.43161  0.14468  0.76168  1.0000
  C   C12       1.0  0.65938  0.76094  0.14392  1.0000
  S   S1        1.0  0.46299  0.42898  0.92899  1.0000
  S   S2        1.0  0.18379  0.92958  0.42957  1.0000
  N   N1        1.0  0.27740  0.38803  0.09331  1.0000
  N   N2        1.0  0.24398  0.09389  0.38867  1.0000
  N   N3        1.0  0.24401  0.88868  0.59389  1.0000
  N   N4        1.0  0.27744  0.59330  0.88802  1.0000
  Cl  Cl1       1.0  0.90547  0.09682  0.09904  1.0000
  Cl  Cl2       1.0  0.90554  0.59904  0.59680  1.0000
