data_image0
_chemical_formula_structural       Cu2H8C12S2N4Cl4
_chemical_formula_sum              "Cu2 H8 C12 S2 N4 Cl4"
_cell_length_a       3.72539
_cell_length_b       8.75605
_cell_length_c       12.3877
_cell_angle_alpha    89.9967
_cell_angle_beta     89.9993
_cell_angle_gamma    99.9041

_space_group_name_H-M_alt    "P 1"
_space_group_IT_number       1

loop_
  _space_group_symop_operation_xyz
  'x, y, z'

loop_
  _atom_site_type_symbol
  _atom_site_label
  _atom_site_symmetry_multiplicity
  _atom_site_fract_x
  _atom_site_fract_y
  _atom_site_fract_z
  _atom_site_occupancy
  Cu  Cu1       1.0  0.49998  0.50000  0.00000  1.0000
  Cu  Cu2       1.0  0.50000  0.50000  0.50000  1.0000
  H   H1        1.0  0.60839  0.90647  0.84939  1.0000
  H   H2        1.0  0.39163  0.09353  0.34941  1.0000
  H   H3        1.0  0.39162  0.09352  0.15061  1.0000
  H   H4        1.0  0.60838  0.90647  0.65059  1.0000
  H   H5        1.0  0.50404  0.13931  0.95390  1.0000
  H   H6        1.0  0.49599  0.86070  0.45391  1.0000
  H   H7        1.0  0.49594  0.86068  0.04610  1.0000
  H   H8        1.0  0.50400  0.13931  0.54609  1.0000
  C   C1        1.0  0.56151  0.01076  0.80744  1.0000
  C   C2        1.0  0.43852  0.98928  0.30743  1.0000
  C   C3        1.0  0.43850  0.98925  0.19256  1.0000
  C   C4        1.0  0.56151  0.01073  0.69257  1.0000
  C   C5        1.0  0.50631  0.13816  0.86629  1.0000
  C   C6        1.0  0.49367  0.86187  0.36630  1.0000
  C   C7        1.0  0.49371  0.86184  0.13371  1.0000
  C   C8        1.0  0.50634  0.13814  0.63370  1.0000
  C   C9        1.0  0.45877  0.27206  0.80821  1.0000
  C   C10       1.0  0.54127  0.72796  0.30821  1.0000
  C   C11       1.0  0.54121  0.72794  0.19179  1.0000
  C   C12       1.0  0.45872  0.27203  0.69178  1.0000
  S   S1        1.0  0.36976  0.53083  0.75001  1.0000
  S   S2        1.0  0.63023  0.46917  0.25000  1.0000
  N   N1        1.0  0.41375  0.41198  0.84858  1.0000
  N   N2        1.0  0.58625  0.58802  0.34856  1.0000
  N   N3        1.0  0.58623  0.58802  0.15142  1.0000
  N   N4        1.0  0.41375  0.41198  0.65145  1.0000
  Cl  Cl1       1.0  0.95371  0.68498  0.93428  1.0000
  Cl  Cl2       1.0  0.04629  0.31501  0.43427  1.0000
  Cl  Cl3       1.0  0.04629  0.31500  0.06573  1.0000
  Cl  Cl4       1.0  0.95371  0.68500  0.56573  1.0000
