data_image0
_chemical_formula_structural       Cd2H34C44N10O12
_chemical_formula_sum              "Cd2 H34 C44 N10 O12"
_cell_length_a       8.36883
_cell_length_b       10.5427
_cell_length_c       13.5951
_cell_angle_alpha    76.3168
_cell_angle_beta     72.75
_cell_angle_gamma    74.0034

_space_group_name_H-M_alt    "P 1"
_space_group_IT_number       1

loop_
  _space_group_symop_operation_xyz
  'x, y, z'

loop_
  _atom_site_type_symbol
  _atom_site_label
  _atom_site_symmetry_multiplicity
  _atom_site_fract_x
  _atom_site_fract_y
  _atom_site_fract_z
  _atom_site_occupancy
  Cd  Cd1       1.0  0.31460  0.17914  0.56609  1.0000
  Cd  Cd2       1.0  0.68540  0.82086  0.43391  1.0000
  H   H1        1.0  0.20198  0.83247  0.82180  1.0000
  H   H2        1.0  0.79802  0.16753  0.17820  1.0000
  H   H3        1.0  0.35987  0.30091  0.99664  1.0000
  H   H4        1.0  0.64013  0.69909  0.00336  1.0000
  H   H5        1.0  0.36816  0.64017  0.55074  1.0000
  H   H6        1.0  0.63184  0.35983  0.44926  1.0000
  H   H7        1.0  0.60387  0.23913  0.69053  1.0000
  H   H8        1.0  0.39613  0.76087  0.30947  1.0000
  H   H9        1.0  0.89066  0.09688  0.91532  1.0000
  H   H10       1.0  0.10934  0.90312  0.08468  1.0000
  H   H11       1.0  0.21025  0.41159  0.85576  1.0000
  H   H12       1.0  0.78975  0.58841  0.14424  1.0000
  H   H13       1.0  0.90998  0.17168  0.54056  1.0000
  H   H14       1.0  0.09002  0.82832  0.45943  1.0000
  H   H15       1.0  0.53601  0.38186  0.83836  1.0000
  H   H16       1.0  0.46399  0.61813  0.16164  1.0000
  H   H17       1.0  0.71150  0.39757  0.87803  1.0000
  H   H18       1.0  0.28850  0.60243  0.12197  1.0000
  H   H19       1.0  0.54567  0.93176  0.18774  1.0000
  H   H20       1.0  0.45433  0.06824  0.81226  1.0000
  H   H21       1.0  0.83469  0.91896  0.06953  1.0000
  H   H22       1.0  0.16530  0.08104  0.93047  1.0000
  H   H23       1.0  0.01610  0.30171  0.78023  1.0000
  H   H24       1.0  0.98390  0.69829  0.21977  1.0000
  H   H25       1.0  0.15639  0.18176  0.12833  1.0000
  H   H26       1.0  0.84361  0.81824  0.87167  1.0000
  H   H27       1.0  0.22905  0.02685  0.20509  1.0000
  H   H28       1.0  0.77095  0.97315  0.79491  1.0000
  H   H29       1.0  0.15255  0.40213  0.19128  1.0000
  H   H30       1.0  0.84745  0.59787  0.80873  1.0000
  H   H31       1.0  0.31411  0.02627  0.37187  1.0000
  H   H32       1.0  0.68589  0.97373  0.62813  1.0000
  H   H33       1.0  0.18505  0.43970  0.38112  1.0000
  H   H34       1.0  0.81495  0.56030  0.61888  1.0000
  C   C1        1.0  0.22591  0.74388  0.78701  1.0000
  C   C2        1.0  0.77409  0.25612  0.21299  1.0000
  C   C3        1.0  0.46482  0.21767  0.01312  1.0000
  C   C4        1.0  0.53518  0.78233  0.98689  1.0000
  C   C5        1.0  0.32056  0.63538  0.63492  1.0000
  C   C6        1.0  0.67944  0.36462  0.36508  1.0000
  C   C7        1.0  0.62894  0.21228  0.94689  1.0000
  C   C8        1.0  0.37106  0.78772  0.05311  1.0000
  C   C9        1.0  0.43270  0.11749  0.09974  1.0000
  C   C10       1.0  0.56730  0.88251  0.90026  1.0000
  C   C11       1.0  0.73536  0.23991  0.68596  1.0000
  C   C12       1.0  0.26464  0.76009  0.31404  1.0000
  C   C13       1.0  0.19816  0.62192  0.84820  1.0000
  C   C14       1.0  0.80184  0.37808  0.15180  1.0000
  C   C15       1.0  0.76240  0.10380  0.96740  1.0000
  C   C16       1.0  0.23760  0.89620  0.03260  1.0000
  C   C17       1.0  0.29180  0.74915  0.67914  1.0000
  C   C18       1.0  0.70820  0.25085  0.32086  1.0000
  C   C19       1.0  0.23363  0.50549  0.80614  1.0000
  C   C20       1.0  0.76637  0.49451  0.19386  1.0000
  C   C21       1.0  0.29193  0.51376  0.69785  1.0000
  C   C22       1.0  0.70807  0.48624  0.30215  1.0000
  C   C23       1.0  0.88769  0.20737  0.61311  1.0000
  C   C24       1.0  0.11231  0.79263  0.38689  1.0000
  C   C25       1.0  0.31892  0.39354  0.64865  1.0000
  C   C26       1.0  0.68108  0.60646  0.35135  1.0000
  C   C27       1.0  0.65815  0.32630  0.85688  1.0000
  C   C28       1.0  0.34185  0.67370  0.14312  1.0000
  C   C29       1.0  0.56724  0.01085  0.12051  1.0000
  C   C30       1.0  0.43276  0.98915  0.87949  1.0000
  C   C31       1.0  0.33087  0.87789  0.61118  1.0000
  C   C32       1.0  0.66913  0.12211  0.38882  1.0000
  C   C33       1.0  0.73136  0.00395  0.05402  1.0000
  C   C34       1.0  0.26864  0.99605  0.94597  1.0000
  C   C35       1.0  0.94826  0.27559  0.73384  1.0000
  C   C36       1.0  0.05174  0.72440  0.26616  1.0000
  C   C37       1.0  0.25432  0.12687  0.17094  1.0000
  C   C38       1.0  0.74568  0.87313  0.82906  1.0000
  C   C39       1.0  0.19071  0.33175  0.25683  1.0000
  C   C40       1.0  0.80929  0.66825  0.74317  1.0000
  C   C41       1.0  0.27419  0.13367  0.34921  1.0000
  C   C42       1.0  0.72581  0.86633  0.65079  1.0000
  C   C43       1.0  0.20764  0.34869  0.35020  1.0000
  C   C44       1.0  0.79236  0.65131  0.64980  1.0000
  N   N1        1.0  0.12857  0.61553  0.96063  1.0000
  N   N2        1.0  0.87143  0.38447  0.03937  1.0000
  N   N3        1.0  0.01885  0.22992  0.64401  1.0000
  N   N4        1.0  0.98115  0.77008  0.35598  1.0000
  N   N5        1.0  0.77614  0.28404  0.76163  1.0000
  N   N6        1.0  0.22386  0.71596  0.23837  1.0000
  N   N7        1.0  0.23237  0.19500  0.25794  1.0000
  N   N8        1.0  0.76763  0.80500  0.74206  1.0000
  N   N9        1.0  0.26008  0.22419  0.40664  1.0000
  N   N10       1.0  0.73992  0.77581  0.59336  1.0000
  O   O1        1.0  0.33155  0.27849  0.70759  1.0000
  O   O2        1.0  0.66845  0.72151  0.29241  1.0000
  O   O3        1.0  0.03471  0.71815  0.99382  1.0000
  O   O4        1.0  0.96529  0.28185  0.00618  1.0000
  O   O5        1.0  0.38098  0.88276  0.51270  1.0000
  O   O6        1.0  0.61901  0.11724  0.48730  1.0000
  O   O7        1.0  0.32443  0.41182  0.55231  1.0000
  O   O8        1.0  0.67557  0.58818  0.44770  1.0000
  O   O9        1.0  0.16684  0.50660  0.01853  1.0000
  O   O10       1.0  0.83317  0.49340  0.98147  1.0000
  O   O11       1.0  0.30916  0.97315  0.65984  1.0000
  O   O12       1.0  0.69084  0.02685  0.34016  1.0000
