data_image0
_chemical_formula_structural       CoH18C14Br4N2O8
_chemical_formula_sum              "Co1 H18 C14 Br4 N2 O8"
_cell_length_a       8.38693
_cell_length_b       9.15979
_cell_length_c       9.78795
_cell_angle_alpha    78.4127
_cell_angle_beta     75.3064
_cell_angle_gamma    91.5651

_space_group_name_H-M_alt    "P 1"
_space_group_IT_number       1

loop_
  _space_group_symop_operation_xyz
  'x, y, z'

loop_
  _atom_site_type_symbol
  _atom_site_label
  _atom_site_symmetry_multiplicity
  _atom_site_fract_x
  _atom_site_fract_y
  _atom_site_fract_z
  _atom_site_occupancy
  Co  Co1       1.0  1.00000  0.50000  0.50001  1.0000
  H   H1        1.0  0.72055  0.40492  0.41710  1.0000
  H   H2        1.0  0.27945  0.59508  0.58290  1.0000
  H   H3        1.0  0.89663  0.40613  0.30850  1.0000
  H   H4        1.0  0.10337  0.59387  0.69150  1.0000
  H   H5        1.0  0.13746  0.75814  0.25374  1.0000
  H   H6        1.0  0.86255  0.24186  0.74626  1.0000
  H   H7        1.0  0.82091  0.92357  0.48714  1.0000
  H   H8        1.0  0.17910  0.07643  0.51287  1.0000
  H   H9        1.0  0.77249  0.02902  0.32923  1.0000
  H   H10       1.0  0.22752  0.97098  0.67078  1.0000
  H   H11       1.0  0.92050  0.10804  0.40188  1.0000
  H   H12       1.0  0.07951  0.89196  0.59812  1.0000
  H   H13       1.0  0.18591  0.96503  0.09825  1.0000
  H   H14       1.0  0.81409  0.03496  0.90174  1.0000
  H   H15       1.0  0.14667  0.13240  0.16794  1.0000
  H   H16       1.0  0.85333  0.86759  0.83206  1.0000
  H   H17       1.0  0.00403  0.05880  0.08750  1.0000
  H   H18       1.0  0.99597  0.94120  0.91250  1.0000
  C   C1        1.0  0.80693  0.55668  0.76631  1.0000
  C   C2        1.0  0.19308  0.44331  0.23368  1.0000
  C   C3        1.0  0.64651  0.52612  0.88579  1.0000
  C   C4        1.0  0.35349  0.47388  0.11421  1.0000
  C   C5        1.0  0.50763  0.60301  0.87221  1.0000
  C   C6        1.0  0.49237  0.39699  0.12778  1.0000
  C   C7        1.0  0.36202  0.57707  0.98503  1.0000
  C   C8        1.0  0.63797  0.42294  0.01495  1.0000
  C   C9        1.0  0.03931  0.79636  0.33336  1.0000
  C   C10       1.0  0.96069  0.20364  0.66665  1.0000
  C   C11       1.0  0.87110  0.00314  0.38410  1.0000
  C   C12       1.0  0.12890  0.99687  0.61591  1.0000
  C   C13       1.0  0.09092  0.02845  0.15400  1.0000
  C   C14       1.0  0.90908  0.97155  0.84600  1.0000
  Br  Br1       1.0  0.52309  0.74529  0.69717  1.0000
  Br  Br2       1.0  0.47689  0.25469  0.30283  1.0000
  Br  Br3       1.0  0.17107  0.67576  0.96516  1.0000
  Br  Br4       1.0  0.82891  0.32424  0.03483  1.0000
  N   N1        1.0  0.00251  0.93687  0.29376  1.0000
  N   N2        1.0  0.99749  0.06313  0.70624  1.0000
  O   O1        1.0  0.81514  0.48070  0.66839  1.0000
  O   O2        1.0  0.18485  0.51930  0.33162  1.0000
  O   O3        1.0  0.91478  0.64813  0.77679  1.0000
  O   O4        1.0  0.08521  0.35187  0.22321  1.0000
  O   O5        1.0  0.82183  0.46776  0.36569  1.0000
  O   O6        1.0  0.17818  0.53225  0.63430  1.0000
  O   O7        1.0  0.96918  0.71163  0.45356  1.0000
  O   O8        1.0  0.03083  0.28837  0.54644  1.0000
