data_image0
_chemical_formula_structural       Ca2H24C8O20
_chemical_formula_sum              "Ca2 H24 C8 O20"
_cell_length_a       5.63786
_cell_length_b       7.17925
_cell_length_c       12.4987
_cell_angle_alpha    89.9997
_cell_angle_beta     90.0005
_cell_angle_gamma    90.0002

_space_group_name_H-M_alt    "P 1"
_space_group_IT_number       1

loop_
  _space_group_symop_operation_xyz
  'x, y, z'

loop_
  _atom_site_type_symbol
  _atom_site_label
  _atom_site_symmetry_multiplicity
  _atom_site_fract_x
  _atom_site_fract_y
  _atom_site_fract_z
  _atom_site_occupancy
  Ca  Ca1       1.0  0.25993  0.00001  0.50000  1.0000
  Ca  Ca2       1.0  0.74007  0.49999  0.00000  1.0000
  H   H1        1.0  0.84855  0.17705  0.41065  1.0000
  H   H2        1.0  0.84854  0.82298  0.58935  1.0000
  H   H3        1.0  0.15146  0.67702  0.08935  1.0000
  H   H4        1.0  0.15145  0.32296  0.91065  1.0000
  H   H5        1.0  0.80267  0.96223  0.40276  1.0000
  H   H6        1.0  0.80268  0.03779  0.59724  1.0000
  H   H7        1.0  0.19732  0.46221  0.09724  1.0000
  H   H8        1.0  0.19733  0.53777  0.90276  1.0000
  H   H9        1.0  0.56125  0.10985  0.30919  1.0000
  H   H10       1.0  0.56126  0.89019  0.69081  1.0000
  H   H11       1.0  0.43874  0.60981  0.19081  1.0000
  H   H12       1.0  0.43875  0.39017  0.80919  1.0000
  H   H13       1.0  0.30539  0.08411  0.26286  1.0000
  H   H14       1.0  0.30540  0.91591  0.73714  1.0000
  H   H15       1.0  0.69460  0.58409  0.23714  1.0000
  H   H16       1.0  0.69461  0.41591  0.76287  1.0000
  H   H17       1.0  0.31838  0.56012  0.61636  1.0000
  H   H18       1.0  0.31837  0.43991  0.38365  1.0000
  H   H19       1.0  0.68162  0.06009  0.88364  1.0000
  H   H20       1.0  0.68163  0.93988  0.11636  1.0000
  H   H21       1.0  0.00916  0.37121  0.58579  1.0000
  H   H22       1.0  0.00915  0.62881  0.41421  1.0000
  H   H23       1.0  0.99084  0.87118  0.91420  1.0000
  H   H24       1.0  0.99085  0.12879  0.08579  1.0000
  C   C1        1.0  0.58556  0.35770  0.57594  1.0000
  C   C2        1.0  0.58556  0.64232  0.42406  1.0000
  C   C3        1.0  0.41444  0.85768  0.92406  1.0000
  C   C4        1.0  0.41443  0.14227  0.07594  1.0000
  C   C5        1.0  0.34619  0.45098  0.55576  1.0000
  C   C6        1.0  0.34618  0.54904  0.44425  1.0000
  C   C7        1.0  0.65381  0.95096  0.94424  1.0000
  C   C8        1.0  0.65382  0.04902  0.05576  1.0000
  O   O1        1.0  0.91174  0.06366  0.37782  1.0000
  O   O2        1.0  0.91175  0.93637  0.62218  1.0000
  O   O3        1.0  0.08826  0.56363  0.12218  1.0000
  O   O4        1.0  0.08826  0.43635  0.87782  1.0000
  O   O5        1.0  0.60429  0.18764  0.54822  1.0000
  O   O6        1.0  0.60429  0.81240  0.45179  1.0000
  O   O7        1.0  0.39571  0.68760  0.95179  1.0000
  O   O8        1.0  0.39571  0.31237  0.04822  1.0000
  O   O9        1.0  0.75111  0.45489  0.61656  1.0000
  O   O10       1.0  0.75109  0.54513  0.38344  1.0000
  O   O11       1.0  0.24891  0.95487  0.88343  1.0000
  O   O12       1.0  0.24891  0.04510  0.11656  1.0000
  O   O13       1.0  0.16343  0.31416  0.55997  1.0000
  O   O14       1.0  0.16342  0.68587  0.44003  1.0000
  O   O15       1.0  0.83658  0.81412  0.94003  1.0000
  O   O16       1.0  0.83657  0.18585  0.05997  1.0000
  O   O17       1.0  0.39339  0.12323  0.32717  1.0000
  O   O18       1.0  0.39340  0.87681  0.67283  1.0000
  O   O19       1.0  0.60660  0.62318  0.17283  1.0000
  O   O20       1.0  0.60661  0.37678  0.82717  1.0000
