data_image0
_chemical_formula_structural       NiH22C24N2O14
_chemical_formula_sum              "Ni1 H22 C24 N2 O14"
_cell_length_a       7.20127
_cell_length_b       8.30783
_cell_length_c       10.7584
_cell_angle_alpha    68.4359
_cell_angle_beta     79.4337
_cell_angle_gamma    77.2522

_space_group_name_H-M_alt    "P 1"
_space_group_IT_number       1

loop_
  _space_group_symop_operation_xyz
  'x, y, z'

loop_
  _atom_site_type_symbol
  _atom_site_label
  _atom_site_symmetry_multiplicity
  _atom_site_fract_x
  _atom_site_fract_y
  _atom_site_fract_z
  _atom_site_occupancy
  Ni  Ni1       1.0  0.50001  0.49999  0.50000  1.0000
  H   H1        1.0  0.02483  0.89996  0.23999  1.0000
  H   H2        1.0  0.97517  0.10006  0.76001  1.0000
  H   H3        1.0  0.77944  0.49095  0.17784  1.0000
  H   H4        1.0  0.22053  0.50905  0.82217  1.0000
  H   H5        1.0  0.48178  0.01579  0.89748  1.0000
  H   H6        1.0  0.51822  0.98423  0.10252  1.0000
  H   H7        1.0  0.62186  0.68695  0.77420  1.0000
  H   H8        1.0  0.37815  0.31306  0.22580  1.0000
  H   H9        1.0  0.87257  0.14457  0.94938  1.0000
  H   H10       1.0  0.12744  0.85544  0.05062  1.0000
  H   H11       1.0  0.89164  0.35931  0.50123  1.0000
  H   H12       1.0  0.10837  0.64069  0.49876  1.0000
  H   H13       1.0  0.93154  0.34391  0.35800  1.0000
  H   H14       1.0  0.06846  0.65610  0.64200  1.0000
  H   H15       1.0  0.41939  0.24981  0.69555  1.0000
  H   H16       1.0  0.58061  0.75017  0.30445  1.0000
  H   H17       1.0  0.24711  0.33624  0.59732  1.0000
  H   H18       1.0  0.75290  0.66375  0.40267  1.0000
  H   H19       1.0  0.18341  0.19113  0.46207  1.0000
  H   H20       1.0  0.81659  0.80886  0.53792  1.0000
  H   H21       1.0  0.72567  0.05918  0.62080  1.0000
  H   H22       1.0  0.27432  0.94080  0.37919  1.0000
  C   C1        1.0  0.91850  0.15418  0.18970  1.0000
  C   C2        1.0  0.08150  0.84583  0.81031  1.0000
  C   C3        1.0  0.83529  0.30219  0.07470  1.0000
  C   C4        1.0  0.16471  0.69782  0.92530  1.0000
  C   C5        1.0  0.77278  0.46854  0.08529  1.0000
  C   C6        1.0  0.22719  0.53147  0.91472  1.0000
  C   C7        1.0  0.69719  0.60673  0.97614  1.0000
  C   C8        1.0  0.30280  0.39328  0.02386  1.0000
  C   C9        1.0  0.61994  0.78072  0.98881  1.0000
  C   C10       1.0  0.38005  0.21928  0.01119  1.0000
  C   C11       1.0  0.68310  0.57924  0.85770  1.0000
  C   C12       1.0  0.31689  0.42077  0.14231  1.0000
  C   C13       1.0  0.74627  0.41296  0.84662  1.0000
  C   C14       1.0  0.25373  0.58704  0.15338  1.0000
  C   C15       1.0  0.72171  0.38421  0.72110  1.0000
  C   C16       1.0  0.27831  0.61577  0.27890  1.0000
  C   C17       1.0  0.82306  0.27528  0.95520  1.0000
  C   C18       1.0  0.17694  0.72473  0.04480  1.0000
  C   C19       1.0  0.44715  0.14079  0.54818  1.0000
  C   C20       1.0  0.55285  0.85920  0.45181  1.0000
  C   C21       1.0  0.32223  0.10708  0.47894  1.0000
  C   C22       1.0  0.67776  0.89290  0.52105  1.0000
  C   C23       1.0  0.62593  0.03349  0.56850  1.0000
  C   C24       1.0  0.37407  0.96649  0.43150  1.0000
  N   N1        1.0  0.39144  0.28575  0.59804  1.0000
  N   N2        1.0  0.60857  0.71423  0.40196  1.0000
  O   O1        1.0  0.96509  0.17382  0.28731  1.0000
  O   O2        1.0  0.03490  0.82619  0.71270  1.0000
  O   O3        1.0  0.94095  0.99898  0.17409  1.0000
  O   O4        1.0  0.05906  0.00103  0.82592  1.0000
  O   O5        1.0  0.61957  0.81007  0.09530  1.0000
  O   O6        1.0  0.38044  0.18994  0.90469  1.0000
  O   O7        1.0  0.54948  0.89952  0.88131  1.0000
  O   O8        1.0  0.45052  0.10050  0.11869  1.0000
  O   O9        1.0  0.82476  0.25984  0.68608  1.0000
  O   O10       1.0  0.17525  0.74016  0.31393  1.0000
  O   O11       1.0  0.58641  0.49419  0.65625  1.0000
  O   O12       1.0  0.41359  0.50580  0.34375  1.0000
  O   O13       1.0  0.93091  0.42459  0.40634  1.0000
  O   O14       1.0  0.06909  0.57542  0.59366  1.0000
