data_image0
_chemical_formula_structural       Ca4P4H36C12O28
_chemical_formula_sum              "Ca4 P4 H36 C12 O28"
_cell_length_a       5.47238
_cell_length_b       7.88236
_cell_length_c       18.1759
_cell_angle_alpha    90.0008
_cell_angle_beta     89.9995
_cell_angle_gamma    95.2665

_space_group_name_H-M_alt    "P 1"
_space_group_IT_number       1

loop_
  _space_group_symop_operation_xyz
  'x, y, z'

loop_
  _atom_site_type_symbol
  _atom_site_label
  _atom_site_symmetry_multiplicity
  _atom_site_fract_x
  _atom_site_fract_y
  _atom_site_fract_z
  _atom_site_occupancy
  Ca  Ca1       1.0  0.88494  0.16620  0.56174  1.0000
  Ca  Ca2       1.0  0.11506  0.33380  0.06175  1.0000
  Ca  Ca3       1.0  0.11506  0.83380  0.43825  1.0000
  Ca  Ca4       1.0  0.88495  0.66620  0.93826  1.0000
  P   P1        1.0  0.64265  0.14812  0.40912  1.0000
  P   P2        1.0  0.35735  0.35188  0.90912  1.0000
  P   P3        1.0  0.35735  0.85188  0.59088  1.0000
  P   P4        1.0  0.64266  0.64812  0.09088  1.0000
  H   H1        1.0  0.75978  0.12639  0.28451  1.0000
  H   H2        1.0  0.24022  0.37360  0.78452  1.0000
  H   H3        1.0  0.24021  0.87361  0.71548  1.0000
  H   H4        1.0  0.75978  0.62639  0.21549  1.0000
  H   H5        1.0  0.60823  0.31037  0.30005  1.0000
  H   H6        1.0  0.39177  0.18961  0.80005  1.0000
  H   H7        1.0  0.39177  0.68962  0.69994  1.0000
  H   H8        1.0  0.60822  0.81037  0.19995  1.0000
  H   H9        1.0  0.99055  0.46155  0.35278  1.0000
  H   H10       1.0  0.00945  0.03844  0.85278  1.0000
  H   H11       1.0  0.00945  0.53844  0.64722  1.0000
  H   H12       1.0  0.99052  0.96156  0.14722  1.0000
  H   H13       1.0  0.13999  0.27467  0.35011  1.0000
  H   H14       1.0  0.86002  0.22533  0.85011  1.0000
  H   H15       1.0  0.86001  0.72532  0.64989  1.0000
  H   H16       1.0  0.13997  0.77468  0.14989  1.0000
  H   H17       1.0  0.33672  0.51910  0.18405  1.0000
  H   H18       1.0  0.66328  0.98090  0.68405  1.0000
  H   H19       1.0  0.66328  0.48090  0.81595  1.0000
  H   H20       1.0  0.33671  0.01910  0.31595  1.0000
  H   H21       1.0  0.35431  0.33539  0.50167  1.0000
  H   H22       1.0  0.64570  0.16461  0.00167  1.0000
  H   H23       1.0  0.64570  0.66462  0.49833  1.0000
  H   H24       1.0  0.35431  0.83539  0.99833  1.0000
  H   H25       1.0  0.25133  0.50072  0.53411  1.0000
  H   H26       1.0  0.74868  0.99929  0.03411  1.0000
  H   H27       1.0  0.74868  0.49929  0.46589  1.0000
  H   H28       1.0  0.25133  0.00071  0.96589  1.0000
  H   H29       1.0  0.45281  0.35001  0.60534  1.0000
  H   H30       1.0  0.54720  0.15000  0.10534  1.0000
  H   H31       1.0  0.54719  0.64999  0.39466  1.0000
  H   H32       1.0  0.45282  0.85000  0.89467  1.0000
  H   H33       1.0  0.62356  0.38834  0.67583  1.0000
  H   H34       1.0  0.37644  0.11167  0.17583  1.0000
  H   H35       1.0  0.37643  0.61167  0.32417  1.0000
  H   H36       1.0  0.62357  0.88832  0.82418  1.0000
  C   C1        1.0  0.75207  0.23541  0.32181  1.0000
  C   C2        1.0  0.24794  0.26458  0.82181  1.0000
  C   C3        1.0  0.24793  0.76458  0.67818  1.0000
  C   C4        1.0  0.75205  0.73542  0.17819  1.0000
  C   C5        1.0  0.99791  0.34184  0.32229  1.0000
  C   C6        1.0  0.00210  0.15816  0.82229  1.0000
  C   C7        1.0  0.00209  0.65816  0.67771  1.0000
  C   C8        1.0  0.99789  0.84185  0.17771  1.0000
  C   C9        1.0  0.08615  0.38392  0.24528  1.0000
  C   C10       1.0  0.91385  0.11608  0.74528  1.0000
  C   C11       1.0  0.91386  0.61608  0.75472  1.0000
  C   C12       1.0  0.08615  0.88393  0.25472  1.0000
  O   O1        1.0  0.82226  0.02985  0.44184  1.0000
  O   O2        1.0  0.17774  0.47015  0.94184  1.0000
  O   O3        1.0  0.17774  0.97016  0.55816  1.0000
  O   O4        1.0  0.82226  0.52985  0.05817  1.0000
  O   O5        1.0  0.62043  0.29306  0.46566  1.0000
  O   O6        1.0  0.37958  0.20694  0.96566  1.0000
  O   O7        1.0  0.37957  0.70695  0.53433  1.0000
  O   O8        1.0  0.62043  0.79306  0.03434  1.0000
  O   O9        1.0  0.38820  0.05604  0.38950  1.0000
  O   O10       1.0  0.61180  0.44395  0.88950  1.0000
  O   O11       1.0  0.61180  0.94396  0.61050  1.0000
  O   O12       1.0  0.38820  0.55605  0.11050  1.0000
  O   O13       1.0  0.98152  0.32083  0.18987  1.0000
  O   O14       1.0  0.01847  0.17917  0.68987  1.0000
  O   O15       1.0  0.01847  0.67916  0.81013  1.0000
  O   O16       1.0  0.98152  0.82083  0.31014  1.0000
  O   O17       1.0  0.28563  0.49299  0.24128  1.0000
  O   O18       1.0  0.71436  0.00700  0.74128  1.0000
  O   O19       1.0  0.71436  0.50700  0.75872  1.0000
  O   O20       1.0  0.28564  0.99301  0.25872  1.0000
  O   O21       1.0  0.22071  0.37371  0.53427  1.0000
  O   O22       1.0  0.77930  0.12629  0.03427  1.0000
  O   O23       1.0  0.77929  0.62630  0.46573  1.0000
  O   O24       1.0  0.22072  0.87371  0.96573  1.0000
  O   O25       1.0  0.61612  0.33719  0.62656  1.0000
  O   O26       1.0  0.38388  0.16282  0.12656  1.0000
  O   O27       1.0  0.38387  0.66281  0.37344  1.0000
  O   O28       1.0  0.61613  0.83718  0.87344  1.0000
