data_image0
_chemical_formula_structural       Cd2H56C40N20O12
_chemical_formula_sum              "Cd2 H56 C40 N20 O12"
_cell_length_a       10.2521
_cell_length_b       10.252
_cell_length_c       15.3343
_cell_angle_alpha    102.049
_cell_angle_beta     102.049
_cell_angle_gamma    107.183

_space_group_name_H-M_alt    "P 1"
_space_group_IT_number       1

loop_
  _space_group_symop_operation_xyz
  'x, y, z'

loop_
  _atom_site_type_symbol
  _atom_site_label
  _atom_site_symmetry_multiplicity
  _atom_site_fract_x
  _atom_site_fract_y
  _atom_site_fract_z
  _atom_site_occupancy
  Cd  Cd1       1.0  0.79106  0.20893  0.75000  1.0000
  Cd  Cd2       1.0  0.20893  0.79107  0.25000  1.0000
  H   H1        1.0  0.56649  0.31259  0.90937  1.0000
  H   H2        1.0  0.31258  0.56648  0.40936  1.0000
  H   H3        1.0  0.43351  0.68742  0.09063  1.0000
  H   H4        1.0  0.68742  0.43351  0.59064  1.0000
  H   H5        1.0  0.56566  0.13648  0.87111  1.0000
  H   H6        1.0  0.13647  0.56566  0.37111  1.0000
  H   H7        1.0  0.43434  0.86353  0.12889  1.0000
  H   H8        1.0  0.86352  0.43433  0.62889  1.0000
  H   H9        1.0  0.40509  0.16528  0.87955  1.0000
  H   H10       1.0  0.16527  0.40509  0.37955  1.0000
  H   H11       1.0  0.59491  0.83473  0.12045  1.0000
  H   H12       1.0  0.83472  0.59491  0.62045  1.0000
  H   H13       1.0  0.22891  0.31481  0.55639  1.0000
  H   H14       1.0  0.31482  0.22891  0.05639  1.0000
  H   H15       1.0  0.77109  0.68518  0.44360  1.0000
  H   H16       1.0  0.68519  0.77109  0.94361  1.0000
  H   H17       1.0  0.19953  0.13624  0.49605  1.0000
  H   H18       1.0  0.13625  0.19954  0.99605  1.0000
  H   H19       1.0  0.80047  0.86376  0.50395  1.0000
  H   H20       1.0  0.86376  0.80046  0.00395  1.0000
  H   H21       1.0  0.34534  0.27648  0.49111  1.0000
  H   H22       1.0  0.27648  0.34535  0.99110  1.0000
  H   H23       1.0  0.65466  0.72352  0.50889  1.0000
  H   H24       1.0  0.72352  0.65466  0.00890  1.0000
  H   H25       1.0  0.01019  0.06559  0.84010  1.0000
  H   H26       1.0  0.06559  0.01018  0.34010  1.0000
  H   H27       1.0  0.98981  0.93441  0.15990  1.0000
  H   H28       1.0  0.93441  0.98982  0.65990  1.0000
  H   H29       1.0  0.00422  0.89602  0.85603  1.0000
  H   H30       1.0  0.89602  0.00422  0.35603  1.0000
  H   H31       1.0  0.99578  0.10398  0.14397  1.0000
  H   H32       1.0  0.10398  0.99578  0.64397  1.0000
  H   H33       1.0  0.93891  0.00752  0.92649  1.0000
  H   H34       1.0  0.00752  0.93891  0.42649  1.0000
  H   H35       1.0  0.06108  0.99248  0.07351  1.0000
  H   H36       1.0  0.99248  0.06109  0.57351  1.0000
  H   H37       1.0  0.44300  0.59592  0.56541  1.0000
  H   H38       1.0  0.59593  0.44300  0.06541  1.0000
  H   H39       1.0  0.55700  0.40407  0.43458  1.0000
  H   H40       1.0  0.40407  0.55701  0.93459  1.0000
  H   H41       1.0  0.36733  0.62602  0.65761  1.0000
  H   H42       1.0  0.62603  0.36732  0.15761  1.0000
  H   H43       1.0  0.63267  0.37397  0.34239  1.0000
  H   H44       1.0  0.37398  0.63268  0.84239  1.0000
  H   H45       1.0  0.47768  0.52035  0.65872  1.0000
  H   H46       1.0  0.52035  0.47767  0.15871  1.0000
  H   H47       1.0  0.52232  0.47964  0.34128  1.0000
  H   H48       1.0  0.47965  0.52233  0.84128  1.0000
  H   H49       1.0  0.53323  0.90230  0.64624  1.0000
  H   H50       1.0  0.90231  0.53324  0.14624  1.0000
  H   H51       1.0  0.46676  0.09769  0.35375  1.0000
  H   H52       1.0  0.09770  0.46677  0.85376  1.0000
  H   H53       1.0  0.52950  0.16629  0.56622  1.0000
  H   H54       1.0  0.16629  0.52951  0.06622  1.0000
  H   H55       1.0  0.47049  0.83371  0.43378  1.0000
  H   H56       1.0  0.83371  0.47049  0.93378  1.0000
  C   C1        1.0  0.47023  0.20968  0.76205  1.0000
  C   C2        1.0  0.20967  0.47023  0.26204  1.0000
  C   C3        1.0  0.52977  0.79033  0.23796  1.0000
  C   C4        1.0  0.79033  0.52977  0.73796  1.0000
  C   C5        1.0  0.35804  0.24298  0.71177  1.0000
  C   C6        1.0  0.24297  0.35804  0.21177  1.0000
  C   C7        1.0  0.64195  0.75703  0.28823  1.0000
  C   C8        1.0  0.75703  0.64195  0.78823  1.0000
  C   C9        1.0  0.37255  0.22623  0.62157  1.0000
  C   C10       1.0  0.22623  0.37256  0.12157  1.0000
  C   C11       1.0  0.62744  0.77377  0.37843  1.0000
  C   C12       1.0  0.77377  0.62744  0.87843  1.0000
  C   C13       1.0  0.50385  0.20591  0.86067  1.0000
  C   C14       1.0  0.20591  0.50384  0.36067  1.0000
  C   C15       1.0  0.49615  0.79409  0.13933  1.0000
  C   C16       1.0  0.79409  0.49615  0.63933  1.0000
  C   C17       1.0  0.28235  0.23971  0.53680  1.0000
  C   C18       1.0  0.23971  0.28235  0.03680  1.0000
  C   C19       1.0  0.71765  0.76029  0.46320  1.0000
  C   C20       1.0  0.76030  0.71765  0.96320  1.0000
  C   C21       1.0  0.80306  0.90174  0.78785  1.0000
  C   C22       1.0  0.90174  0.80306  0.28784  1.0000
  C   C23       1.0  0.19693  0.09825  0.21215  1.0000
  C   C24       1.0  0.09826  0.19694  0.71216  1.0000
  C   C25       1.0  0.24555  0.28092  0.74302  1.0000
  C   C26       1.0  0.28091  0.24554  0.24301  1.0000
  C   C27       1.0  0.75445  0.71908  0.25698  1.0000
  C   C28       1.0  0.71909  0.75444  0.75699  1.0000
  C   C29       1.0  0.59246  0.74227  0.69416  1.0000
  C   C30       1.0  0.74227  0.59246  0.19416  1.0000
  C   C31       1.0  0.40754  0.25773  0.30583  1.0000
  C   C32       1.0  0.25773  0.40754  0.80584  1.0000
  C   C33       1.0  0.94743  0.97139  0.85587  1.0000
  C   C34       1.0  0.97139  0.94744  0.35587  1.0000
  C   C35       1.0  0.05256  0.02861  0.14413  1.0000
  C   C36       1.0  0.02861  0.05257  0.64413  1.0000
  C   C37       1.0  0.46333  0.61442  0.64103  1.0000
  C   C38       1.0  0.61443  0.46333  0.14103  1.0000
  C   C39       1.0  0.53667  0.38557  0.35896  1.0000
  C   C40       1.0  0.38558  0.53667  0.85897  1.0000
  N   N1        1.0  0.54821  0.17621  0.70610  1.0000
  N   N2        1.0  0.17621  0.54821  0.20610  1.0000
  N   N3        1.0  0.45179  0.82379  0.29390  1.0000
  N   N4        1.0  0.82379  0.45179  0.79390  1.0000
  N   N5        1.0  0.48755  0.18771  0.62188  1.0000
  N   N6        1.0  0.18771  0.48755  0.12188  1.0000
  N   N7        1.0  0.51246  0.81229  0.37812  1.0000
  N   N8        1.0  0.81229  0.51245  0.87812  1.0000
  N   N9        1.0  0.73182  0.97395  0.74615  1.0000
  N   N10       1.0  0.97396  0.73182  0.24615  1.0000
  N   N11       1.0  0.26817  0.02604  0.25385  1.0000
  N   N12       1.0  0.02604  0.26818  0.75386  1.0000
  N   N13       1.0  0.60488  0.87581  0.69034  1.0000
  N   N14       1.0  0.87581  0.60488  0.19034  1.0000
  N   N15       1.0  0.39513  0.12418  0.30966  1.0000
  N   N16       1.0  0.12419  0.39513  0.80967  1.0000
  N   N17       1.0  0.71561  0.14015  0.49750  1.0000
  N   N18       1.0  0.14016  0.71562  0.99750  1.0000
  N   N19       1.0  0.28439  0.85985  0.50250  1.0000
  N   N20       1.0  0.85985  0.28439  0.00250  1.0000
  O   O1        1.0  0.75095  0.11550  0.57547  1.0000
  O   O2        1.0  0.11550  0.75095  0.07547  1.0000
  O   O3        1.0  0.24906  0.88452  0.42454  1.0000
  O   O4        1.0  0.88450  0.24904  0.92453  1.0000
  O   O5        1.0  0.79395  0.14717  0.44549  1.0000
  O   O6        1.0  0.14718  0.79396  0.94550  1.0000
  O   O7        1.0  0.20604  0.85282  0.55451  1.0000
  O   O8        1.0  0.85282  0.20604  0.05451  1.0000
  O   O9        1.0  0.59446  0.15643  0.47308  1.0000
  O   O10       1.0  0.15643  0.59446  0.97307  1.0000
  O   O11       1.0  0.40554  0.84357  0.52693  1.0000
  O   O12       1.0  0.84358  0.40554  0.02693  1.0000
