data_image0
_chemical_formula_structural       Cu2H44C36N4O12
_chemical_formula_sum              "Cu2 H44 C36 N4 O12"
_cell_length_a       9.9153
_cell_length_b       9.91531
_cell_length_c       11.2007
_cell_angle_alpha    68.8176
_cell_angle_beta     68.8176
_cell_angle_gamma    67.847

_space_group_name_H-M_alt    "P 1"
_space_group_IT_number       1

loop_
  _space_group_symop_operation_xyz
  'x, y, z'

loop_
  _atom_site_type_symbol
  _atom_site_label
  _atom_site_symmetry_multiplicity
  _atom_site_fract_x
  _atom_site_fract_y
  _atom_site_fract_z
  _atom_site_occupancy
  Cu  Cu1       1.0  0.05050  0.94950  0.25000  1.0000
  Cu  Cu2       1.0  0.94950  0.05050  0.75000  1.0000
  H   H1        1.0  0.13817  0.66085  0.18657  1.0000
  H   H2        1.0  0.66085  0.13817  0.68657  1.0000
  H   H3        1.0  0.86183  0.33915  0.81343  1.0000
  H   H4        1.0  0.33915  0.86183  0.31343  1.0000
  H   H5        1.0  0.35981  0.43030  0.18298  1.0000
  H   H6        1.0  0.43030  0.35981  0.68298  1.0000
  H   H7        1.0  0.64019  0.56970  0.81702  1.0000
  H   H8        1.0  0.56970  0.64019  0.31702  1.0000
  H   H9        1.0  0.84060  0.11530  0.08082  1.0000
  H   H10       1.0  0.11530  0.84060  0.58082  1.0000
  H   H11       1.0  0.15940  0.88470  0.91918  1.0000
  H   H12       1.0  0.88470  0.15940  0.41918  1.0000
  H   H13       1.0  0.61744  0.34266  0.07127  1.0000
  H   H14       1.0  0.34266  0.61744  0.57127  1.0000
  H   H15       1.0  0.38256  0.65734  0.92873  1.0000
  H   H16       1.0  0.65733  0.38256  0.42873  1.0000
  H   H17       1.0  0.02395  0.36959  0.11107  1.0000
  H   H18       1.0  0.36959  0.02395  0.61107  1.0000
  H   H19       1.0  0.97605  0.63041  0.88893  1.0000
  H   H20       1.0  0.63041  0.97605  0.38893  1.0000
  H   H21       1.0  0.18445  0.42229  0.99245  1.0000
  H   H22       1.0  0.42229  0.18445  0.49245  1.0000
  H   H23       1.0  0.81555  0.57771  0.00755  1.0000
  H   H24       1.0  0.57771  0.81555  0.50755  1.0000
  H   H25       1.0  0.15410  0.40059  0.16576  1.0000
  H   H26       1.0  0.40059  0.15410  0.66576  1.0000
  H   H27       1.0  0.84590  0.59941  0.83424  1.0000
  H   H28       1.0  0.59941  0.84590  0.33424  1.0000
  H   H29       1.0  0.42208  0.20266  0.15680  1.0000
  H   H30       1.0  0.20266  0.42208  0.65680  1.0000
  H   H31       1.0  0.57791  0.79734  0.84320  1.0000
  H   H32       1.0  0.79734  0.57791  0.34320  1.0000
  H   H33       1.0  0.44792  0.23456  0.98266  1.0000
  H   H34       1.0  0.23456  0.44793  0.48266  1.0000
  H   H35       1.0  0.55208  0.76544  0.01734  1.0000
  H   H36       1.0  0.76544  0.55208  0.51734  1.0000
  H   H37       1.0  0.46781  0.04897  0.09064  1.0000
  H   H38       1.0  0.04897  0.46781  0.59064  1.0000
  H   H39       1.0  0.53219  0.95103  0.90936  1.0000
  H   H40       1.0  0.95103  0.53219  0.40936  1.0000
  H   H41       1.0  0.17732  0.16020  0.30626  1.0000
  H   H42       1.0  0.16021  0.17732  0.80626  1.0000
  H   H43       1.0  0.82268  0.83979  0.69374  1.0000
  H   H44       1.0  0.83980  0.82268  0.19374  1.0000
  C   C1        1.0  0.20730  0.13211  0.01326  1.0000
  C   C2        1.0  0.13211  0.20730  0.51326  1.0000
  C   C3        1.0  0.79270  0.86789  0.98674  1.0000
  C   C4        1.0  0.86789  0.79270  0.48674  1.0000
  C   C5        1.0  0.23497  0.18934  0.11121  1.0000
  C   C6        1.0  0.18934  0.23497  0.61121  1.0000
  C   C7        1.0  0.76503  0.81066  0.88879  1.0000
  C   C8        1.0  0.81066  0.76503  0.38879  1.0000
  C   C9        1.0  0.23818  0.65105  0.21230  1.0000
  C   C10       1.0  0.65105  0.23818  0.71230  1.0000
  C   C11       1.0  0.76182  0.34895  0.78770  1.0000
  C   C12       1.0  0.34895  0.76182  0.28770  1.0000
  C   C13       1.0  0.36219  0.52414  0.21006  1.0000
  C   C14       1.0  0.52414  0.36220  0.71006  1.0000
  C   C15       1.0  0.63781  0.47586  0.78994  1.0000
  C   C16       1.0  0.47586  0.63781  0.28994  1.0000
  C   C17       1.0  0.48461  0.51539  0.25000  1.0000
  C   C18       1.0  0.51539  0.48461  0.75000  1.0000
  C   C19       1.0  0.79682  0.17943  0.15487  1.0000
  C   C20       1.0  0.17943  0.79682  0.65486  1.0000
  C   C21       1.0  0.20318  0.82057  0.84513  1.0000
  C   C22       1.0  0.82057  0.20318  0.34514  1.0000
  C   C23       1.0  0.67124  0.30484  0.15161  1.0000
  C   C24       1.0  0.30484  0.67124  0.65161  1.0000
  C   C25       1.0  0.32876  0.69516  0.84839  1.0000
  C   C26       1.0  0.69516  0.32876  0.34839  1.0000
  C   C27       1.0  0.61769  0.38230  0.25000  1.0000
  C   C28       1.0  0.38230  0.61769  0.75000  1.0000
  C   C29       1.0  0.14400  0.35654  0.09346  1.0000
  C   C30       1.0  0.35654  0.14400  0.59346  1.0000
  C   C31       1.0  0.85600  0.64346  0.90654  1.0000
  C   C32       1.0  0.64346  0.85600  0.40654  1.0000
  C   C33       1.0  0.40406  0.16815  0.08226  1.0000
  C   C34       1.0  0.16815  0.40407  0.58226  1.0000
  C   C35       1.0  0.59594  0.83185  0.91774  1.0000
  C   C36       1.0  0.83185  0.59594  0.41774  1.0000
  N   N1        1.0  0.86968  0.13032  0.25000  1.0000
  N   N2        1.0  0.13032  0.86968  0.75000  1.0000
  N   N3        1.0  0.23193  0.76807  0.25000  1.0000
  N   N4        1.0  0.76807  0.23193  0.75000  1.0000
  O   O1        1.0  0.13704  0.03153  0.05617  1.0000
  O   O2        1.0  0.03153  0.13704  0.55617  1.0000
  O   O3        1.0  0.86296  0.96847  0.94383  1.0000
  O   O4        1.0  0.96847  0.86296  0.44383  1.0000
  O   O5        1.0  0.18346  0.10420  0.24366  1.0000
  O   O6        1.0  0.10420  0.18346  0.74366  1.0000
  O   O7        1.0  0.81654  0.89580  0.75634  1.0000
  O   O8        1.0  0.89580  0.81654  0.25634  1.0000
  O   O9        1.0  0.25297  0.19185  0.89130  1.0000
  O   O10       1.0  0.19185  0.25296  0.39130  1.0000
  O   O11       1.0  0.74704  0.80815  0.10870  1.0000
  O   O12       1.0  0.80815  0.74703  0.60870  1.0000
