data_image0
_chemical_formula_structural       Cd4H12C20N20O8
_chemical_formula_sum              "Cd4 H12 C20 N20 O8"
_cell_length_a       6.64201
_cell_length_b       9.96156
_cell_length_c       11.8883
_cell_angle_alpha    90.0004
_cell_angle_beta     100.931
_cell_angle_gamma    90.0005

_space_group_name_H-M_alt    "P 1"
_space_group_IT_number       1

loop_
  _space_group_symop_operation_xyz
  'x, y, z'

loop_
  _atom_site_type_symbol
  _atom_site_label
  _atom_site_symmetry_multiplicity
  _atom_site_fract_x
  _atom_site_fract_y
  _atom_site_fract_z
  _atom_site_occupancy
  Cd  Cd1       1.0  0.66321  0.63847  0.57831  1.0000
  Cd  Cd2       1.0  0.83679  0.13847  0.42169  1.0000
  Cd  Cd3       1.0  0.33679  0.36152  0.42169  1.0000
  Cd  Cd4       1.0  0.16321  0.86153  0.57832  1.0000
  H   H1        1.0  0.84278  0.18784  0.81463  1.0000
  H   H2        1.0  0.65722  0.68783  0.18537  1.0000
  H   H3        1.0  0.15721  0.81216  0.18538  1.0000
  H   H4        1.0  0.34278  0.31217  0.81463  1.0000
  H   H5        1.0  0.74727  0.49660  0.03382  1.0000
  H   H6        1.0  0.75272  0.99660  0.96617  1.0000
  H   H7        1.0  0.25273  0.50340  0.96617  1.0000
  H   H8        1.0  0.24728  0.00341  0.03383  1.0000
  H   H9        1.0  0.64538  0.65152  0.86416  1.0000
  H   H10       1.0  0.85461  0.15152  0.13583  1.0000
  H   H11       1.0  0.35462  0.34848  0.13583  1.0000
  H   H12       1.0  0.14540  0.84848  0.86417  1.0000
  C   C1        1.0  0.75214  0.33046  0.61263  1.0000
  C   C2        1.0  0.74786  0.83047  0.38737  1.0000
  C   C3        1.0  0.24786  0.66953  0.38737  1.0000
  C   C4        1.0  0.25213  0.16953  0.61263  1.0000
  C   C5        1.0  0.75060  0.37754  0.73301  1.0000
  C   C6        1.0  0.74940  0.87754  0.26699  1.0000
  C   C7        1.0  0.24940  0.62246  0.26699  1.0000
  C   C8        1.0  0.25060  0.12246  0.73301  1.0000
  C   C9        1.0  0.80331  0.29212  0.82759  1.0000
  C   C10       1.0  0.69669  0.79212  0.17241  1.0000
  C   C11       1.0  0.19669  0.70787  0.17241  1.0000
  C   C12       1.0  0.30331  0.20788  0.82759  1.0000
  C   C13       1.0  0.74685  0.46195  0.94673  1.0000
  C   C14       1.0  0.75314  0.96195  0.05327  1.0000
  C   C15       1.0  0.25315  0.53806  0.05327  1.0000
  C   C16       1.0  0.24686  0.03806  0.94673  1.0000
  C   C17       1.0  0.69124  0.54794  0.85303  1.0000
  C   C18       1.0  0.80876  0.04794  0.14697  1.0000
  C   C19       1.0  0.30877  0.45206  0.14697  1.0000
  C   C20       1.0  0.19124  0.95206  0.85303  1.0000
  N   N1        1.0  0.50729  0.81101  0.65198  1.0000
  N   N2        1.0  0.99272  0.31101  0.34802  1.0000
  N   N3        1.0  0.49271  0.18899  0.34803  1.0000
  N   N4        1.0  0.00728  0.68899  0.65197  1.0000
  N   N5        1.0  0.61198  0.89106  0.71386  1.0000
  N   N6        1.0  0.88803  0.39105  0.28614  1.0000
  N   N7        1.0  0.38803  0.10894  0.28614  1.0000
  N   N8        1.0  0.11197  0.60895  0.71386  1.0000
  N   N9        1.0  0.70930  0.96840  0.77411  1.0000
  N   N10       1.0  0.79071  0.46839  0.22589  1.0000
  N   N11       1.0  0.29070  0.03160  0.22589  1.0000
  N   N12       1.0  0.20929  0.53161  0.77411  1.0000
  N   N13       1.0  0.69334  0.50476  0.74677  1.0000
  N   N14       1.0  0.80665  0.00476  0.25323  1.0000
  N   N15       1.0  0.30665  0.49524  0.25323  1.0000
  N   N16       1.0  0.19335  0.99524  0.74678  1.0000
  N   N17       1.0  0.80188  0.33390  0.93464  1.0000
  N   N18       1.0  0.69812  0.83390  0.06536  1.0000
  N   N19       1.0  0.19812  0.66610  0.06536  1.0000
  N   N20       1.0  0.30188  0.16611  0.93464  1.0000
  O   O1        1.0  0.69025  0.41159  0.52960  1.0000
  O   O2        1.0  0.80975  0.91159  0.47039  1.0000
  O   O3        1.0  0.30975  0.58841  0.47039  1.0000
  O   O4        1.0  0.19024  0.08841  0.52961  1.0000
  O   O5        1.0  0.81332  0.21194  0.60167  1.0000
  O   O6        1.0  0.68666  0.71194  0.39832  1.0000
  O   O7        1.0  0.18668  0.78806  0.39833  1.0000
  O   O8        1.0  0.31332  0.28806  0.60167  1.0000
