data_image0
_chemical_formula_structural       Zn2H24C28N4O12
_chemical_formula_sum              "Zn2 H24 C28 N4 O12"
_cell_length_a       4.88463
_cell_length_b       11.4136
_cell_length_c       12.1619
_cell_angle_alpha    91.9332
_cell_angle_beta     90.0543
_cell_angle_gamma    102.391

_space_group_name_H-M_alt    "P 1"
_space_group_IT_number       1

loop_
  _space_group_symop_operation_xyz
  'x, y, z'

loop_
  _atom_site_type_symbol
  _atom_site_label
  _atom_site_symmetry_multiplicity
  _atom_site_fract_x
  _atom_site_fract_y
  _atom_site_fract_z
  _atom_site_occupancy
  Zn  Zn1       1.0  0.93908  0.00004  0.24988  1.0000
  Zn  Zn2       1.0  0.06092  0.99996  0.75012  1.0000
  H   H1        1.0  0.43813  0.10393  0.31447  1.0000
  H   H2        1.0  0.33393  0.89603  0.18549  1.0000
  H   H3        1.0  0.56187  0.89608  0.68553  1.0000
  H   H4        1.0  0.66608  0.10398  0.81451  1.0000
  H   H5        1.0  0.84362  0.66868  0.60363  1.0000
  H   H6        1.0  0.17383  0.33126  0.89633  1.0000
  H   H7        1.0  0.15639  0.33132  0.39637  1.0000
  H   H8        1.0  0.82617  0.66874  0.10367  1.0000
  H   H9        1.0  0.27044  0.81957  0.56067  1.0000
  H   H10       1.0  0.45028  0.18063  0.93915  1.0000
  H   H11       1.0  0.72956  0.18044  0.43933  1.0000
  H   H12       1.0  0.54972  0.81937  0.06085  1.0000
  H   H13       1.0  0.24297  0.67929  0.22642  1.0000
  H   H14       1.0  0.56355  0.32032  0.27363  1.0000
  H   H15       1.0  0.75704  0.32071  0.77358  1.0000
  H   H16       1.0  0.43645  0.67968  0.72637  1.0000
  H   H17       1.0  0.81093  0.52952  0.26869  1.0000
  H   H18       1.0  0.28106  0.46995  0.23141  1.0000
  H   H19       1.0  0.18909  0.47048  0.73131  1.0000
  H   H20       1.0  0.71894  0.53005  0.76858  1.0000
  H   H21       1.0  0.27116  0.08089  0.43196  1.0000
  H   H22       1.0  0.18983  0.91897  0.06796  1.0000
  H   H23       1.0  0.72884  0.91911  0.56804  1.0000
  H   H24       1.0  0.81016  0.08103  0.93203  1.0000
  C   C1        1.0  0.54235  0.85134  0.36494  1.0000
  C   C2        1.0  0.69126  0.14882  0.13507  1.0000
  C   C3        1.0  0.45765  0.14866  0.63506  1.0000
  C   C4        1.0  0.30873  0.85118  0.86493  1.0000
  C   C5        1.0  0.28712  0.75944  0.39113  1.0000
  C   C6        1.0  0.52725  0.24045  0.10881  1.0000
  C   C7        1.0  0.71288  0.24056  0.60887  1.0000
  C   C8        1.0  0.47274  0.75954  0.89119  1.0000
  C   C9        1.0  0.93226  0.67080  0.52152  1.0000
  C   C10       1.0  0.26054  0.32904  0.97845  1.0000
  C   C11       1.0  0.06774  0.32920  0.47848  1.0000
  C   C12       1.0  0.73945  0.67096  0.02155  1.0000
  C   C13       1.0  0.79952  0.58935  0.43847  1.0000
  C   C14       1.0  0.20949  0.41038  0.06155  1.0000
  C   C15       1.0  0.20049  0.41065  0.56153  1.0000
  C   C16       1.0  0.79050  0.58962  0.93845  1.0000
  C   C17       1.0  0.17302  0.75471  0.49734  1.0000
  C   C18       1.0  0.41760  0.24529  0.00261  1.0000
  C   C19       1.0  0.82698  0.24529  0.50266  1.0000
  C   C20       1.0  0.58240  0.75471  0.99739  1.0000
  C   C21       1.0  0.15530  0.67742  0.30884  1.0000
  C   C22       1.0  0.47742  0.32221  0.19119  1.0000
  C   C23       1.0  0.84470  0.32258  0.69116  1.0000
  C   C24       1.0  0.52257  0.67778  0.80881  1.0000
  C   C25       1.0  0.91394  0.59325  0.33240  1.0000
  C   C26       1.0  0.32010  0.40631  0.16770  1.0000
  C   C27       1.0  0.08607  0.40675  0.66760  1.0000
  C   C28       1.0  0.67990  0.59369  0.83230  1.0000
  N   N1        1.0  0.55249  0.50049  0.45230  1.0000
  N   N2        1.0  0.05235  0.49952  0.04769  1.0000
  N   N3        1.0  0.44752  0.49951  0.54770  1.0000
  N   N4        1.0  0.94764  0.50047  0.95231  1.0000
  O   O1        1.0  0.60042  0.86489  0.26079  1.0000
  O   O2        1.0  0.73574  0.13522  0.23925  1.0000
  O   O3        1.0  0.39958  0.13511  0.73920  1.0000
  O   O4        1.0  0.26426  0.86478  0.76075  1.0000
  O   O5        1.0  0.69620  0.91474  0.43705  1.0000
  O   O6        1.0  0.78243  0.08567  0.06307  1.0000
  O   O7        1.0  0.30381  0.08526  0.56295  1.0000
  O   O8        1.0  0.21756  0.91433  0.93693  1.0000
  O   O9        1.0  0.25182  0.07810  0.34930  1.0000
  O   O10       1.0  0.17337  0.92181  0.15062  1.0000
  O   O11       1.0  0.74818  0.92190  0.65070  1.0000
  O   O12       1.0  0.82663  0.07819  0.84938  1.0000
