data_image0
_chemical_formula_structural       Zn4H40C32O16
_chemical_formula_sum              "Zn4 H40 C32 O16"
_cell_length_a       4.84544
_cell_length_b       6.62226
_cell_length_c       26.004
_cell_angle_alpha    90.0001
_cell_angle_beta     90.0005
_cell_angle_gamma    89.9996

_space_group_name_H-M_alt    "P 1"
_space_group_IT_number       1

loop_
  _space_group_symop_operation_xyz
  'x, y, z'

loop_
  _atom_site_type_symbol
  _atom_site_label
  _atom_site_symmetry_multiplicity
  _atom_site_fract_x
  _atom_site_fract_y
  _atom_site_fract_z
  _atom_site_occupancy
  Zn  Zn1       1.0  0.05064  0.91215  0.03968  1.0000
  Zn  Zn2       1.0  0.44936  0.08786  0.53968  1.0000
  Zn  Zn3       1.0  0.94936  0.41214  0.46032  1.0000
  Zn  Zn4       1.0  0.55065  0.58786  0.96032  1.0000
  H   H1        1.0  0.77548  0.09532  0.86228  1.0000
  H   H2        1.0  0.72451  0.90468  0.36228  1.0000
  H   H3        1.0  0.22453  0.59532  0.63773  1.0000
  H   H4        1.0  0.27547  0.40469  0.13773  1.0000
  H   H5        1.0  0.29712  0.83677  0.85638  1.0000
  H   H6        1.0  0.20287  0.16323  0.35637  1.0000
  H   H7        1.0  0.70289  0.33678  0.64362  1.0000
  H   H8        1.0  0.79712  0.66322  0.14363  1.0000
  H   H9        1.0  0.96120  0.76021  0.83753  1.0000
  H   H10       1.0  0.53880  0.23978  0.33753  1.0000
  H   H11       1.0  0.03881  0.26022  0.66247  1.0000
  H   H12       1.0  0.46120  0.73979  0.16247  1.0000
  H   H13       1.0  0.23440  0.88169  0.76140  1.0000
  H   H14       1.0  0.26559  0.11829  0.26140  1.0000
  H   H15       1.0  0.76559  0.38170  0.73859  1.0000
  H   H16       1.0  0.73441  0.61830  0.23860  1.0000
  H   H17       1.0  0.94133  0.03389  0.77216  1.0000
  H   H18       1.0  0.55866  0.96610  0.27216  1.0000
  H   H19       1.0  0.05866  0.53389  0.72784  1.0000
  H   H20       1.0  0.44134  0.46611  0.22785  1.0000
  H   H21       1.0  0.34167  0.25322  0.75512  1.0000
  H   H22       1.0  0.15832  0.74677  0.25512  1.0000
  H   H23       1.0  0.65834  0.75323  0.74488  1.0000
  H   H24       1.0  0.84167  0.24677  0.24488  1.0000
  H   H25       1.0  0.53574  0.13106  0.80328  1.0000
  H   H26       1.0  0.96426  0.86893  0.30328  1.0000
  H   H27       1.0  0.46427  0.63109  0.69671  1.0000
  H   H28       1.0  0.03574  0.36892  0.19672  1.0000
  H   H29       1.0  0.02272  0.39480  0.81836  1.0000
  H   H30       1.0  0.47729  0.60520  0.31836  1.0000
  H   H31       1.0  0.97731  0.89480  0.68164  1.0000
  H   H32       1.0  0.52271  0.10520  0.18164  1.0000
  H   H33       1.0  0.36364  0.45357  0.83762  1.0000
  H   H34       1.0  0.13637  0.54642  0.33762  1.0000
  H   H35       1.0  0.63639  0.95359  0.66238  1.0000
  H   H36       1.0  0.86362  0.04642  0.16238  1.0000
  H   H37       1.0  0.35674  0.18343  0.90289  1.0000
  H   H38       1.0  0.14326  0.81656  0.40288  1.0000
  H   H39       1.0  0.64328  0.68344  0.59711  1.0000
  H   H40       1.0  0.85673  0.31657  0.09712  1.0000
  C   C1        1.0  0.97283  0.04463  0.87856  1.0000
  C   C2        1.0  0.52716  0.95536  0.37856  1.0000
  C   C3        1.0  0.02719  0.54464  0.62144  1.0000
  C   C4        1.0  0.47282  0.45537  0.12145  1.0000
  C   C5        1.0  0.09921  0.89140  0.84083  1.0000
  C   C6        1.0  0.40078  0.10860  0.34083  1.0000
  C   C7        1.0  0.90079  0.39140  0.65917  1.0000
  C   C8        1.0  0.59921  0.60860  0.15917  1.0000
  C   C9        1.0  0.14305  0.99053  0.78842  1.0000
  C   C10       1.0  0.35694  0.00946  0.28842  1.0000
  C   C11       1.0  0.85695  0.49053  0.71158  1.0000
  C   C12       1.0  0.64306  0.50947  0.21158  1.0000
  C   C13       1.0  0.32524  0.17798  0.79274  1.0000
  C   C14       1.0  0.17475  0.82201  0.29274  1.0000
  C   C15       1.0  0.67477  0.67799  0.70726  1.0000
  C   C16       1.0  0.82524  0.32201  0.20726  1.0000
  C   C17       1.0  0.21691  0.32844  0.83260  1.0000
  C   C18       1.0  0.28309  0.67155  0.33260  1.0000
  C   C19       1.0  0.78311  0.82845  0.66740  1.0000
  C   C20       1.0  0.71690  0.17155  0.16740  1.0000
  C   C21       1.0  0.16006  0.22903  0.88535  1.0000
  C   C22       1.0  0.33993  0.77096  0.38535  1.0000
  C   C23       1.0  0.83996  0.72904  0.61465  1.0000
  C   C24       1.0  0.66005  0.27096  0.11465  1.0000
  C   C25       1.0  0.89864  0.94153  0.92884  1.0000
  C   C26       1.0  0.60134  0.05848  0.42884  1.0000
  C   C27       1.0  0.10138  0.44152  0.57116  1.0000
  C   C28       1.0  0.39862  0.55848  0.07116  1.0000
  C   C29       1.0  0.02608  0.38608  0.91997  1.0000
  C   C30       1.0  0.47392  0.61391  0.41997  1.0000
  C   C31       1.0  0.97393  0.88609  0.58003  1.0000
  C   C32       1.0  0.52607  0.11392  0.08003  1.0000
  O   O1        1.0  0.67658  0.83826  0.92845  1.0000
  O   O2        1.0  0.82339  0.16174  0.42845  1.0000
  O   O3        1.0  0.32344  0.33827  0.57155  1.0000
  O   O4        1.0  0.17658  0.66173  0.07155  1.0000
  O   O5        1.0  0.06445  0.96484  0.96624  1.0000
  O   O6        1.0  0.43552  0.03516  0.46624  1.0000
  O   O7        1.0  0.93557  0.46485  0.53375  1.0000
  O   O8        1.0  0.56445  0.53516  0.03376  1.0000
  O   O9        1.0  0.76368  0.37576  0.92442  1.0000
  O   O10       1.0  0.73632  0.62424  0.42442  1.0000
  O   O11       1.0  0.23633  0.87577  0.57558  1.0000
  O   O12       1.0  0.26367  0.12424  0.07558  1.0000
  O   O13       1.0  0.16373  0.52713  0.94108  1.0000
  O   O14       1.0  0.33628  0.47286  0.44108  1.0000
  O   O15       1.0  0.83629  0.02713  0.55892  1.0000
  O   O16       1.0  0.66371  0.97287  0.05892  1.0000
