data_image0
_chemical_formula_structural       Ag2H20C18N2O6
_chemical_formula_sum              "Ag2 H20 C18 N2 O6"
_cell_length_a       6.9924
_cell_length_b       7.36222
_cell_length_c       9.14997
_cell_angle_alpha    101.599
_cell_angle_beta     90.0003
_cell_angle_gamma    89.9999

_space_group_name_H-M_alt    "P 1"
_space_group_IT_number       1

loop_
  _space_group_symop_operation_xyz
  'x, y, z'

loop_
  _atom_site_type_symbol
  _atom_site_label
  _atom_site_symmetry_multiplicity
  _atom_site_fract_x
  _atom_site_fract_y
  _atom_site_fract_z
  _atom_site_occupancy
  Ag  Ag1       1.0  0.42780  0.04526  0.11639  1.0000
  Ag  Ag2       1.0  0.92780  0.95474  0.88361  1.0000
  H   H1        1.0  0.05855  0.41152  0.29016  1.0000
  H   H2        1.0  0.55854  0.58847  0.70984  1.0000
  H   H3        1.0  0.24157  0.77683  0.21730  1.0000
  H   H4        1.0  0.74157  0.22317  0.78270  1.0000
  H   H5        1.0  0.25363  0.71789  0.03582  1.0000
  H   H6        1.0  0.75363  0.28211  0.96418  1.0000
  H   H7        1.0  0.59096  0.63732  0.05420  1.0000
  H   H8        1.0  0.09096  0.36268  0.94580  1.0000
  H   H9        1.0  0.49152  0.70678  0.38793  1.0000
  H   H10       1.0  0.99152  0.29322  0.61207  1.0000
  H   H11       1.0  0.70357  0.60052  0.30700  1.0000
  H   H12       1.0  0.20357  0.39948  0.69301  1.0000
  H   H13       1.0  0.91801  0.79419  0.16161  1.0000
  H   H14       1.0  0.41801  0.20581  0.83839  1.0000
  H   H15       1.0  0.07315  0.10348  0.18486  1.0000
  H   H16       1.0  0.57315  0.89651  0.81514  1.0000
  H   H17       1.0  0.63397  0.34715  0.49226  1.0000
  H   H18       1.0  0.13396  0.65285  0.50774  1.0000
  H   H19       1.0  0.48276  0.03820  0.47231  1.0000
  H   H20       1.0  0.98275  0.96181  0.52769  1.0000
  C   C1        1.0  0.41488  0.44494  0.14110  1.0000
  C   C2        1.0  0.91488  0.55506  0.85889  1.0000
  C   C3        1.0  0.49052  0.64156  0.14721  1.0000
  C   C4        1.0  0.99052  0.35844  0.85279  1.0000
  C   C5        1.0  0.59511  0.70548  0.29741  1.0000
  C   C6        1.0  0.09511  0.29452  0.70260  1.0000
  C   C7        1.0  0.68844  0.89280  0.31443  1.0000
  C   C8        1.0  0.18844  0.10720  0.68557  1.0000
  C   C9        1.0  0.85561  0.91490  0.23503  1.0000
  C   C10       1.0  0.35560  0.08509  0.76497  1.0000
  C   C11       1.0  0.94258  0.08773  0.24691  1.0000
  C   C12       1.0  0.44258  0.91227  0.75309  1.0000
  C   C13       1.0  0.86391  0.24448  0.34024  1.0000
  C   C14       1.0  0.36391  0.75552  0.65976  1.0000
  C   C15       1.0  0.69781  0.22519  0.42181  1.0000
  C   C16       1.0  0.19780  0.77481  0.57819  1.0000
  C   C17       1.0  0.61171  0.05134  0.40799  1.0000
  C   C18       1.0  0.11171  0.94866  0.59201  1.0000
  N   N1        1.0  0.33405  0.77045  0.12950  1.0000
  N   N2        1.0  0.83405  0.22955  0.87050  1.0000
  O   O1        1.0  0.53572  0.31327  0.09802  1.0000
  O   O2        1.0  0.03573  0.68673  0.90198  1.0000
  O   O3        1.0  0.24481  0.42180  0.17793  1.0000
  O   O4        1.0  0.74481  0.57820  0.82207  1.0000
  O   O5        1.0  0.94387  0.41571  0.35527  1.0000
  O   O6        1.0  0.44387  0.58428  0.64473  1.0000
