data_image0
_chemical_formula_structural       Sn4H60C44N4O16
_chemical_formula_sum              "Sn4 H60 C44 N4 O16"
_cell_length_a       7.949
_cell_length_b       7.9489
_cell_length_c       21.9206
_cell_angle_alpha    83.2861
_cell_angle_beta     83.2851
_cell_angle_gamma    78.4783

_space_group_name_H-M_alt    "P 1"
_space_group_IT_number       1

loop_
  _space_group_symop_operation_xyz
  'x, y, z'

loop_
  _atom_site_type_symbol
  _atom_site_label
  _atom_site_symmetry_multiplicity
  _atom_site_fract_x
  _atom_site_fract_y
  _atom_site_fract_z
  _atom_site_occupancy
  Sn  Sn1       1.0  0.14386  0.24093  0.76748  1.0000
  Sn  Sn2       1.0  0.75908  0.85615  0.73252  1.0000
  Sn  Sn3       1.0  0.85615  0.75907  0.23252  1.0000
  Sn  Sn4       1.0  0.24092  0.14386  0.26748  1.0000
  H   H1        1.0  0.89059  0.26842  0.69109  1.0000
  H   H2        1.0  0.73156  0.10942  0.80891  1.0000
  H   H3        1.0  0.10941  0.73157  0.30891  1.0000
  H   H4        1.0  0.26844  0.89057  0.19109  1.0000
  H   H5        1.0  0.09443  0.20365  0.64894  1.0000
  H   H6        1.0  0.79634  0.90558  0.85106  1.0000
  H   H7        1.0  0.90556  0.79634  0.35106  1.0000
  H   H8        1.0  0.20367  0.09441  0.14894  1.0000
  H   H9        1.0  0.02234  0.42457  0.66459  1.0000
  H   H10       1.0  0.57541  0.97767  0.83541  1.0000
  H   H11       1.0  0.97765  0.57542  0.33541  1.0000
  H   H12       1.0  0.42459  0.02233  0.16459  1.0000
  H   H13       1.0  0.10041  0.90770  0.80325  1.0000
  H   H14       1.0  0.09231  0.89958  0.69675  1.0000
  H   H15       1.0  0.89959  0.09230  0.19675  1.0000
  H   H16       1.0  0.90769  0.10041  0.30325  1.0000
  H   H17       1.0  0.10968  0.01925  0.86855  1.0000
  H   H18       1.0  0.98076  0.89032  0.63145  1.0000
  H   H19       1.0  0.89032  0.98074  0.13145  1.0000
  H   H20       1.0  0.01924  0.10968  0.36855  1.0000
  H   H21       1.0  0.30419  0.93690  0.82219  1.0000
  H   H22       1.0  0.06310  0.69580  0.67781  1.0000
  H   H23       1.0  0.69581  0.06309  0.17781  1.0000
  H   H24       1.0  0.93690  0.30419  0.32220  1.0000
  H   H25       1.0  0.28007  0.53118  0.75844  1.0000
  H   H26       1.0  0.46883  0.71993  0.74156  1.0000
  H   H27       1.0  0.71994  0.46881  0.24156  1.0000
  H   H28       1.0  0.53118  0.28005  0.25844  1.0000
  H   H29       1.0  0.40403  0.36221  0.80529  1.0000
  H   H30       1.0  0.63779  0.59597  0.69471  1.0000
  H   H31       1.0  0.59598  0.63777  0.19471  1.0000
  H   H32       1.0  0.36223  0.40402  0.30529  1.0000
  H   H33       1.0  0.20240  0.48242  0.83701  1.0000
  H   H34       1.0  0.51758  0.79759  0.66300  1.0000
  H   H35       1.0  0.79761  0.51756  0.16300  1.0000
  H   H36       1.0  0.48244  0.20239  0.33700  1.0000
  H   H37       1.0  0.69236  0.65890  0.88604  1.0000
  H   H38       1.0  0.34110  0.30764  0.61396  1.0000
  H   H39       1.0  0.30764  0.34110  0.11396  1.0000
  H   H40       1.0  0.65888  0.69236  0.38604  1.0000
  H   H41       1.0  0.55647  0.56197  0.84896  1.0000
  H   H42       1.0  0.43802  0.44353  0.65104  1.0000
  H   H43       1.0  0.44353  0.43803  0.15104  1.0000
  H   H44       1.0  0.56196  0.55647  0.34897  1.0000
  H   H45       1.0  0.39049  0.41148  0.91814  1.0000
  H   H46       1.0  0.58852  0.60951  0.58185  1.0000
  H   H47       1.0  0.60952  0.58852  0.08185  1.0000
  H   H48       1.0  0.41147  0.39050  0.41815  1.0000
  H   H49       1.0  0.34987  0.20036  0.00680  1.0000
  H   H50       1.0  0.79965  0.65012  0.49320  1.0000
  H   H51       1.0  0.65011  0.79964  0.99319  1.0000
  H   H52       1.0  0.20034  0.34991  0.50682  1.0000
  H   H53       1.0  0.59732  0.06412  0.06848  1.0000
  H   H54       1.0  0.93590  0.40266  0.43151  1.0000
  H   H55       1.0  0.40264  0.93587  0.93151  1.0000
  H   H56       1.0  0.06411  0.59739  0.56849  1.0000
  H   H57       1.0  0.88574  0.14517  0.03747  1.0000
  H   H58       1.0  0.85484  0.11425  0.46253  1.0000
  H   H59       1.0  0.11423  0.85481  0.96253  1.0000
  H   H60       1.0  0.14518  0.88580  0.53747  1.0000
  C   C1        1.0  0.02348  0.28987  0.68264  1.0000
  C   C2        1.0  0.71012  0.97653  0.81736  1.0000
  C   C3        1.0  0.97650  0.71013  0.31736  1.0000
  C   C4        1.0  0.28988  0.02348  0.18264  1.0000
  C   C5        1.0  0.16738  0.99543  0.82174  1.0000
  C   C6        1.0  0.00458  0.83262  0.67826  1.0000
  C   C7        1.0  0.83263  0.00457  0.17826  1.0000
  C   C8        1.0  0.99542  0.16737  0.32174  1.0000
  C   C9        1.0  0.27336  0.42762  0.79577  1.0000
  C   C10       1.0  0.57239  0.72664  0.70423  1.0000
  C   C11       1.0  0.72664  0.57237  0.20423  1.0000
  C   C12       1.0  0.42763  0.27335  0.29577  1.0000
  C   C13       1.0  0.82538  0.47967  0.82386  1.0000
  C   C14       1.0  0.52033  0.17462  0.67614  1.0000
  C   C15       1.0  0.17462  0.52034  0.17614  1.0000
  C   C16       1.0  0.47966  0.82538  0.32386  1.0000
  C   C17       1.0  0.67616  0.53546  0.87206  1.0000
  C   C18       1.0  0.46455  0.32385  0.62793  1.0000
  C   C19       1.0  0.32386  0.46454  0.12794  1.0000
  C   C20       1.0  0.53545  0.67614  0.37206  1.0000
  C   C21       1.0  0.65797  0.40663  0.92724  1.0000
  C   C22       1.0  0.59338  0.34204  0.57275  1.0000
  C   C23       1.0  0.34204  0.59337  0.07276  1.0000
  C   C24       1.0  0.40662  0.65798  0.42724  1.0000
  C   C25       1.0  0.49933  0.35524  0.94463  1.0000
  C   C26       1.0  0.64475  0.50068  0.55537  1.0000
  C   C27       1.0  0.50067  0.64476  0.05536  1.0000
  C   C28       1.0  0.35523  0.49934  0.44464  1.0000
  C   C29       1.0  0.47638  0.23486  0.99505  1.0000
  C   C30       1.0  0.76515  0.52362  0.50495  1.0000
  C   C31       1.0  0.52361  0.76514  0.00494  1.0000
  C   C32       1.0  0.23485  0.47641  0.49506  1.0000
  C   C33       1.0  0.61406  0.15894  0.02931  1.0000
  C   C34       1.0  0.84106  0.38593  0.47069  1.0000
  C   C35       1.0  0.38592  0.84105  0.97068  1.0000
  C   C36       1.0  0.15894  0.61411  0.52932  1.0000
  C   C37       1.0  0.77469  0.20344  0.01253  1.0000
  C   C38       1.0  0.79658  0.22530  0.48746  1.0000
  C   C39       1.0  0.22530  0.79654  0.98747  1.0000
  C   C40       1.0  0.20344  0.77473  0.51254  1.0000
  C   C41       1.0  0.79401  0.32675  0.96270  1.0000
  C   C42       1.0  0.67325  0.20599  0.53730  1.0000
  C   C43       1.0  0.20597  0.67324  0.03730  1.0000
  C   C44       1.0  0.32675  0.79404  0.46270  1.0000
  N   N1        1.0  0.96645  0.36755  0.94821  1.0000
  N   N2        1.0  0.63247  0.03354  0.55179  1.0000
  N   N3        1.0  0.03356  0.63242  0.05180  1.0000
  N   N4        1.0  0.36758  0.96646  0.44820  1.0000
  O   O1        1.0  0.89765  0.32035  0.82794  1.0000
  O   O2        1.0  0.67965  0.10236  0.67206  1.0000
  O   O3        1.0  0.10236  0.67965  0.17206  1.0000
  O   O4        1.0  0.32034  0.89765  0.32794  1.0000
  O   O5        1.0  0.87343  0.58846  0.78205  1.0000
  O   O6        1.0  0.41154  0.12657  0.71794  1.0000
  O   O7        1.0  0.12659  0.41154  0.21795  1.0000
  O   O8        1.0  0.58844  0.87341  0.28205  1.0000
  O   O9        1.0  0.09218  0.24928  0.95656  1.0000
  O   O10       1.0  0.75071  0.90783  0.54344  1.0000
  O   O11       1.0  0.90781  0.75071  0.04345  1.0000
  O   O12       1.0  0.24930  0.09221  0.45656  1.0000
  O   O13       1.0  0.97943  0.51839  0.92862  1.0000
  O   O14       1.0  0.48159  0.02057  0.57138  1.0000
  O   O15       1.0  0.02057  0.48160  0.07138  1.0000
  O   O16       1.0  0.51841  0.97944  0.42862  1.0000
