data_image0
_chemical_formula_structural       Zn2H40C52N8O8
_chemical_formula_sum              "Zn2 H40 C52 N8 O8"
_cell_length_a       9.62211
_cell_length_b       10.4548
_cell_length_c       13.5573
_cell_angle_alpha    70.7802
_cell_angle_beta     81.2678
_cell_angle_gamma    71.3301

_space_group_name_H-M_alt    "P 1"
_space_group_IT_number       1

loop_
  _space_group_symop_operation_xyz
  'x, y, z'

loop_
  _atom_site_type_symbol
  _atom_site_label
  _atom_site_symmetry_multiplicity
  _atom_site_fract_x
  _atom_site_fract_y
  _atom_site_fract_z
  _atom_site_occupancy
  Zn  Zn1       1.0  0.49193  0.16260  0.71718  1.0000
  Zn  Zn2       1.0  0.50807  0.83740  0.28282  1.0000
  H   H1        1.0  0.47910  0.69483  0.07244  1.0000
  H   H2        1.0  0.52090  0.30518  0.92756  1.0000
  H   H3        1.0  0.81203  0.59247  0.33685  1.0000
  H   H4        1.0  0.18797  0.40753  0.66315  1.0000
  H   H5        1.0  0.16236  0.82891  0.74060  1.0000
  H   H6        1.0  0.83764  0.17109  0.25940  1.0000
  H   H7        1.0  0.31318  0.81736  0.64779  1.0000
  H   H8        1.0  0.68682  0.18264  0.35221  1.0000
  H   H9        1.0  0.20453  0.69891  0.67474  1.0000
  H   H10       1.0  0.79547  0.30109  0.32525  1.0000
  H   H11       1.0  0.67146  0.43563  0.45657  1.0000
  H   H12       1.0  0.32854  0.56437  0.54343  1.0000
  H   H13       1.0  0.30604  0.16733  0.37222  1.0000
  H   H14       1.0  0.69398  0.83267  0.62778  1.0000
  H   H15       1.0  0.80949  0.93162  0.75837  1.0000
  H   H16       1.0  0.19051  0.06838  0.24163  1.0000
  H   H17       1.0  0.24782  0.48000  0.86271  1.0000
  H   H18       1.0  0.75218  0.52000  0.13729  1.0000
  H   H19       1.0  0.01414  0.16792  0.96508  1.0000
  H   H20       1.0  0.98586  0.83208  0.03492  1.0000
  H   H21       1.0  0.83407  0.30878  0.07198  1.0000
  H   H22       1.0  0.16593  0.69121  0.92802  1.0000
  H   H23       1.0  0.82562  0.64568  0.85675  1.0000
  H   H24       1.0  0.17438  0.35432  0.14325  1.0000
  H   H25       1.0  0.02787  0.23492  0.39764  1.0000
  H   H26       1.0  0.97214  0.76508  0.60236  1.0000
  H   H27       1.0  0.38469  0.90270  0.87144  1.0000
  H   H28       1.0  0.61531  0.09730  0.12856  1.0000
  H   H29       1.0  0.74383  0.47178  0.78224  1.0000
  H   H30       1.0  0.25617  0.52821  0.21776  1.0000
  H   H31       1.0  0.59336  0.62102  0.73358  1.0000
  H   H32       1.0  0.40664  0.37897  0.26641  1.0000
  H   H33       1.0  0.58156  0.44685  0.75631  1.0000
  H   H34       1.0  0.41844  0.55315  0.24370  1.0000
  H   H35       1.0  0.49159  0.24399  0.46963  1.0000
  H   H36       1.0  0.50842  0.75600  0.53037  1.0000
  H   H37       1.0  0.97959  0.30080  0.69466  1.0000
  H   H38       1.0  0.02041  0.69921  0.30533  1.0000
  H   H39       1.0  0.21194  0.05624  0.70049  1.0000
  H   H40       1.0  0.78806  0.94376  0.29950  1.0000
  C   C1        1.0  0.48482  0.60980  0.04073  1.0000
  C   C2        1.0  0.51518  0.39020  0.95927  1.0000
  C   C3        1.0  0.84927  0.52918  0.41485  1.0000
  C   C4        1.0  0.15072  0.47082  0.58515  1.0000
  C   C5        1.0  0.20098  0.80827  0.66505  1.0000
  C   C6        1.0  0.79903  0.19173  0.33495  1.0000
  C   C7        1.0  0.09950  0.90875  0.58041  1.0000
  C   C8        1.0  0.90050  0.09125  0.41959  1.0000
  C   C9        1.0  0.77177  0.44132  0.48060  1.0000
  C   C10       1.0  0.22822  0.55869  0.51940  1.0000
  C   C11       1.0  0.25102  0.22818  0.84884  1.0000
  C   C12       1.0  0.74897  0.77182  0.15116  1.0000
  C   C13       1.0  0.31597  0.15632  0.45334  1.0000
  C   C14       1.0  0.68404  0.84368  0.54666  1.0000
  C   C15       1.0  0.14200  0.31641  0.90950  1.0000
  C   C16       1.0  0.85799  0.68358  0.09050  1.0000
  C   C17       1.0  0.72468  0.88050  0.79425  1.0000
  C   C18       1.0  0.27532  0.11950  0.20575  1.0000
  C   C19       1.0  0.15711  0.44387  0.90910  1.0000
  C   C20       1.0  0.84288  0.55612  0.09091  1.0000
  C   C21       1.0  0.82025  0.35705  0.58194  1.0000
  C   C22       1.0  0.17975  0.64295  0.41806  1.0000
  C   C23       1.0  0.02388  0.26756  0.96817  1.0000
  C   C24       1.0  0.97611  0.73244  0.03184  1.0000
  C   C25       1.0  0.92580  0.34508  0.02713  1.0000
  C   C26       1.0  0.07419  0.65491  0.97287  1.0000
  C   C27       1.0  0.73361  0.74062  0.84259  1.0000
  C   C28       1.0  0.26639  0.25938  0.15741  1.0000
  C   C29       1.0  0.01620  0.13024  0.44062  1.0000
  C   C30       1.0  0.98381  0.86976  0.55937  1.0000
  C   C31       1.0  0.73747  0.25892  0.65282  1.0000
  C   C32       1.0  0.26254  0.74108  0.34719  1.0000
  C   C33       1.0  0.50217  0.87172  0.85287  1.0000
  C   C34       1.0  0.49783  0.12829  0.14713  1.0000
  C   C35       1.0  0.62320  0.51225  0.78628  1.0000
  C   C36       1.0  0.37679  0.48775  0.21372  1.0000
  C   C37       1.0  0.54619  0.61475  0.93987  1.0000
  C   C38       1.0  0.45381  0.38525  0.06013  1.0000
  C   C39       1.0  0.97629  0.54129  0.44821  1.0000
  C   C40       1.0  0.02371  0.45872  0.55178  1.0000
  C   C41       1.0  0.11345  0.04203  0.51848  1.0000
  C   C42       1.0  0.88656  0.95797  0.48152  1.0000
  C   C43       1.0  0.40703  0.19157  0.50185  1.0000
  C   C44       1.0  0.59298  0.80843  0.49815  1.0000
  C   C45       1.0  0.94393  0.36633  0.61642  1.0000
  C   C46       1.0  0.05607  0.63368  0.38357  1.0000
  C   C47       1.0  0.26722  0.09153  0.62519  1.0000
  C   C48       1.0  0.73278  0.90847  0.37481  1.0000
  C   C49       1.0  0.05886  0.52557  0.96938  1.0000
  C   C50       1.0  0.94113  0.47443  0.03062  1.0000
  C   C51       1.0  0.56270  0.50585  0.89605  1.0000
  C   C52       1.0  0.43729  0.49416  0.10395  1.0000
  N   N1        1.0  0.57983  0.96038  0.80035  1.0000
  N   N2        1.0  0.42017  0.03963  0.19965  1.0000
  N   N3        1.0  0.59199  0.73671  0.87994  1.0000
  N   N4        1.0  0.40801  0.26329  0.12006  1.0000
  N   N5        1.0  0.22832  0.09184  0.53265  1.0000
  N   N6        1.0  0.77168  0.90816  0.46735  1.0000
  N   N7        1.0  0.37558  0.15032  0.60849  1.0000
  N   N8        1.0  0.62442  0.84968  0.39151  1.0000
  O   O1        1.0  0.78583  0.17565  0.73831  1.0000
  O   O2        1.0  0.21418  0.82435  0.26169  1.0000
  O   O3        1.0  0.36236  0.27517  0.80477  1.0000
  O   O4        1.0  0.63763  0.72483  0.19523  1.0000
  O   O5        1.0  0.23064  0.11855  0.84279  1.0000
  O   O6        1.0  0.76935  0.88144  0.15722  1.0000
  O   O7        1.0  0.61318  0.27095  0.61781  1.0000
  O   O8        1.0  0.38682  0.72905  0.38220  1.0000
