data_image0
_chemical_formula_structural       Cd2H30C40N4O8
_chemical_formula_sum              "Cd2 H30 C40 N4 O8"
_cell_length_a       8.24171
_cell_length_b       10.4419
_cell_length_c       13.5121
_cell_angle_alpha    104.399
_cell_angle_beta     106.625
_cell_angle_gamma    92.2652

_space_group_name_H-M_alt    "P 1"
_space_group_IT_number       1

loop_
  _space_group_symop_operation_xyz
  'x, y, z'

loop_
  _atom_site_type_symbol
  _atom_site_label
  _atom_site_symmetry_multiplicity
  _atom_site_fract_x
  _atom_site_fract_y
  _atom_site_fract_z
  _atom_site_occupancy
  Cd  Cd1       1.0  0.16754  0.59284  0.05891  1.0000
  Cd  Cd2       1.0  0.83246  0.40716  0.94108  1.0000
  H   H1        1.0  0.62833  0.06597  0.33176  1.0000
  H   H2        1.0  0.37166  0.93403  0.66825  1.0000
  H   H3        1.0  0.77039  0.04023  0.25425  1.0000
  H   H4        1.0  0.22962  0.95978  0.74576  1.0000
  H   H5        1.0  0.05914  0.07638  0.35240  1.0000
  H   H6        1.0  0.94086  0.92362  0.64761  1.0000
  H   H7        1.0  0.14218  0.63360  0.38393  1.0000
  H   H8        1.0  0.85782  0.36638  0.61606  1.0000
  H   H9        1.0  0.51810  0.27732  0.05929  1.0000
  H   H10       1.0  0.48190  0.72267  0.94071  1.0000
  H   H11       1.0  0.79361  0.18271  0.08075  1.0000
  H   H12       1.0  0.20639  0.81730  0.91926  1.0000
  H   H13       1.0  0.33808  0.97426  0.30973  1.0000
  H   H14       1.0  0.66193  0.02574  0.69028  1.0000
  H   H15       1.0  0.20176  0.88442  0.18051  1.0000
  H   H16       1.0  0.79824  0.11558  0.81949  1.0000
  H   H17       1.0  0.35055  0.01914  0.19278  1.0000
  H   H18       1.0  0.64945  0.98086  0.80722  1.0000
  H   H19       1.0  0.04744  0.01641  0.93187  1.0000
  H   H20       1.0  0.95257  0.98360  0.06813  1.0000
  H   H21       1.0  0.26304  0.70911  0.58319  1.0000
  H   H22       1.0  0.73695  0.29089  0.41680  1.0000
  H   H23       1.0  0.73424  0.31342  0.23655  1.0000
  H   H24       1.0  0.26574  0.68657  0.76344  1.0000
  H   H25       1.0  0.84119  0.75342  0.24978  1.0000
  H   H26       1.0  0.15882  0.24659  0.75023  1.0000
  H   H27       1.0  0.70272  0.92297  0.48557  1.0000
  H   H28       1.0  0.29728  0.07703  0.51444  1.0000
  H   H29       1.0  0.57674  0.55081  0.13274  1.0000
  H   H30       1.0  0.42326  0.44920  0.86725  1.0000
  C   C1        1.0  0.72157  0.00115  0.30998  1.0000
  C   C2        1.0  0.27843  0.99885  0.69002  1.0000
  C   C3        1.0  0.03336  0.04279  0.41725  1.0000
  C   C4        1.0  0.96664  0.95722  0.58276  1.0000
  C   C5        1.0  0.05820  0.54974  0.49562  1.0000
  C   C6        1.0  0.94180  0.45024  0.50437  1.0000
  C   C7        1.0  0.05416  0.55931  0.39250  1.0000
  C   C8        1.0  0.94583  0.44068  0.60749  1.0000
  C   C9        1.0  0.45098  0.17669  0.02906  1.0000
  C   C10       1.0  0.54902  0.82330  0.97094  1.0000
  C   C11       1.0  0.93999  0.47519  0.30085  1.0000
  C   C12       1.0  0.06001  0.52479  0.69913  1.0000
  C   C13       1.0  0.86527  0.00054  0.40843  1.0000
  C   C14       1.0  0.13472  0.99946  0.59158  1.0000
  C   C15       1.0  0.72620  0.08210  0.05189  1.0000
  C   C16       1.0  0.27381  0.91791  0.94812  1.0000
  C   C17       1.0  0.33087  0.93475  0.22482  1.0000
  C   C18       1.0  0.66913  0.06525  0.77518  1.0000
  C   C19       1.0  0.27455  0.15843  0.99665  1.0000
  C   C20       1.0  0.72546  0.84157  0.00336  1.0000
  C   C21       1.0  0.18614  0.02762  0.95569  1.0000
  C   C22       1.0  0.81386  0.97240  0.04433  1.0000
  C   C23       1.0  0.17427  0.63457  0.59090  1.0000
  C   C24       1.0  0.82572  0.36543  0.40909  1.0000
  C   C25       1.0  0.54504  0.06608  0.02068  1.0000
  C   C26       1.0  0.45497  0.93392  0.97933  1.0000
  C   C27       1.0  0.82393  0.37759  0.30969  1.0000
  C   C28       1.0  0.17605  0.62240  0.69030  1.0000
  C   C29       1.0  0.17585  0.27643  0.00236  1.0000
  C   C30       1.0  0.82417  0.72358  0.99764  1.0000
  C   C31       1.0  0.45630  0.83837  0.21205  1.0000
  C   C32       1.0  0.54370  0.16163  0.78795  1.0000
  C   C33       1.0  0.94201  0.48712  0.19266  1.0000
  C   C34       1.0  0.05798  0.51285  0.80733  1.0000
  C   C35       1.0  0.70408  0.75379  0.22658  1.0000
  C   C36       1.0  0.29594  0.24622  0.77342  1.0000
  C   C37       1.0  0.83320  0.95762  0.49205  1.0000
  C   C38       1.0  0.16680  0.04239  0.50796  1.0000
  C   C39       1.0  0.57243  0.65508  0.16894  1.0000
  C   C40       1.0  0.42758  0.34493  0.83106  1.0000
  N   N1        1.0  0.62916  0.86858  0.25359  1.0000
  N   N2        1.0  0.37083  0.13143  0.74642  1.0000
  N   N3        1.0  0.41986  0.70876  0.16029  1.0000
  N   N4        1.0  0.58015  0.29125  0.83970  1.0000
  O   O1        1.0  0.26098  0.39083  0.04690  1.0000
  O   O2        1.0  0.73903  0.60918  0.95310  1.0000
  O   O3        1.0  0.01433  0.25109  0.96126  1.0000
  O   O4        1.0  0.98568  0.74892  0.03875  1.0000
  O   O5        1.0  0.82770  0.41307  0.11075  1.0000
  O   O6        1.0  0.17229  0.58693  0.88923  1.0000
  O   O7        1.0  0.05755  0.57067  0.19178  1.0000
  O   O8        1.0  0.94243  0.42932  0.80822  1.0000
