data_image0
_chemical_formula_structural       Zn3H36C46N6O20
_chemical_formula_sum              "Zn3 H36 C46 N6 O20"
_cell_length_a       8.67792
_cell_length_b       10.975
_cell_length_c       12.8528
_cell_angle_alpha    75.842
_cell_angle_beta     70.8582
_cell_angle_gamma    77.9616

_space_group_name_H-M_alt    "P 1"
_space_group_IT_number       1

loop_
  _space_group_symop_operation_xyz
  'x, y, z'

loop_
  _atom_site_type_symbol
  _atom_site_label
  _atom_site_symmetry_multiplicity
  _atom_site_fract_x
  _atom_site_fract_y
  _atom_site_fract_z
  _atom_site_occupancy
  Zn  Zn1       1.0  0.00000  1.00000  0.50000  1.0000
  Zn  Zn2       1.0  0.79293  0.85677  0.19522  1.0000
  Zn  Zn3       1.0  0.20707  0.14323  0.80478  1.0000
  H   H1        1.0  0.01358  0.56694  0.34436  1.0000
  H   H2        1.0  0.98642  0.43306  0.65564  1.0000
  H   H3        1.0  0.16995  0.19272  0.40145  1.0000
  H   H4        1.0  0.83005  0.80728  0.59855  1.0000
  H   H5        1.0  0.28596  0.05162  0.41427  1.0000
  H   H6        1.0  0.71404  0.94838  0.58573  1.0000
  H   H7        1.0  0.79510  0.93981  0.36045  1.0000
  H   H8        1.0  0.20490  0.06019  0.63954  1.0000
  H   H9        1.0  0.59835  0.93472  0.38465  1.0000
  H   H10       1.0  0.40165  0.06528  0.61534  1.0000
  H   H11       1.0  0.36329  0.22486  0.46851  1.0000
  H   H12       1.0  0.63671  0.77514  0.53149  1.0000
  H   H13       1.0  0.38733  0.61975  0.32358  1.0000
  H   H14       1.0  0.61267  0.38025  0.67642  1.0000
  H   H15       1.0  0.80965  0.37942  0.40338  1.0000
  H   H16       1.0  0.19035  0.62058  0.59662  1.0000
  H   H17       1.0  0.93884  0.36786  0.89669  1.0000
  H   H18       1.0  0.06115  0.63214  0.10331  1.0000
  H   H19       1.0  0.82111  0.44925  0.07871  1.0000
  H   H20       1.0  0.17889  0.55075  0.92129  1.0000
  H   H21       1.0  0.12891  0.14094  0.22299  1.0000
  H   H22       1.0  0.87108  0.85906  0.77701  1.0000
  H   H23       1.0  0.50189  0.68880  0.14762  1.0000
  H   H24       1.0  0.49810  0.31120  0.85239  1.0000
  H   H25       1.0  0.59940  0.63507  0.80851  1.0000
  H   H26       1.0  0.40060  0.36493  0.19149  1.0000
  H   H27       1.0  0.44589  0.85044  0.75649  1.0000
  H   H28       1.0  0.55411  0.14956  0.24351  1.0000
  H   H29       1.0  0.28268  0.99373  0.24772  1.0000
  H   H30       1.0  0.71732  0.00627  0.75228  1.0000
  H   H31       1.0  0.34058  0.83064  0.24906  1.0000
  H   H32       1.0  0.65942  0.16937  0.75094  1.0000
  H   H33       1.0  0.62341  0.55614  0.00021  1.0000
  H   H34       1.0  0.37659  0.44385  0.99979  1.0000
  H   H35       1.0  0.92765  0.33181  0.24187  1.0000
  H   H36       1.0  0.07234  0.66819  0.75813  1.0000
  C   C1        1.0  0.43248  0.30495  0.43686  1.0000
  C   C2        1.0  0.56752  0.69505  0.56314  1.0000
  C   C3        1.0  0.35786  0.42404  0.39394  1.0000
  C   C4        1.0  0.64214  0.57596  0.60606  1.0000
  C   C5        1.0  0.44662  0.52710  0.35493  1.0000
  C   C6        1.0  0.55338  0.47290  0.64507  1.0000
  C   C7        1.0  0.61018  0.51165  0.35585  1.0000
  C   C8        1.0  0.38981  0.48835  0.64415  1.0000
  C   C9        1.0  0.68333  0.39252  0.39945  1.0000
  C   C10       1.0  0.31667  0.60748  0.60055  1.0000
  C   C11       1.0  0.59508  0.28885  0.43963  1.0000
  C   C12       1.0  0.40493  0.71115  0.56037  1.0000
  C   C13       1.0  0.18733  0.43945  0.38562  1.0000
  C   C14       1.0  0.81268  0.56054  0.61438  1.0000
  C   C15       1.0  0.70762  0.62077  0.30715  1.0000
  C   C16       1.0  0.29238  0.37923  0.69286  1.0000
  C   C17       1.0  0.68007  0.16152  0.48218  1.0000
  C   C18       1.0  0.31993  0.83848  0.51782  1.0000
  C   C19       1.0  0.97618  0.32002  0.97145  1.0000
  C   C20       1.0  0.02382  0.67998  0.02855  1.0000
  C   C21       1.0  0.91249  0.36466  0.07214  1.0000
  C   C22       1.0  0.08750  0.63534  0.92785  1.0000
  C   C23       1.0  0.08494  0.18991  0.15159  1.0000
  C   C24       1.0  0.91506  0.81009  0.84841  1.0000
  C   C25       1.0  0.13944  0.14875  0.04911  1.0000
  C   C26       1.0  0.86056  0.85125  0.95089  1.0000
  C   C27       1.0  0.25099  0.03224  0.02429  1.0000
  C   C28       1.0  0.74902  0.96776  0.97571  1.0000
  C   C29       1.0  0.40122  0.84162  0.03402  1.0000
  C   C30       1.0  0.59877  0.15838  0.96598  1.0000
  C   C31       1.0  0.48659  0.72236  0.06416  1.0000
  C   C32       1.0  0.51341  0.27764  0.93584  1.0000
  C   C33       1.0  0.54294  0.69540  0.87077  1.0000
  C   C34       1.0  0.45706  0.30460  0.12923  1.0000
  C   C35       1.0  0.45944  0.81482  0.84032  1.0000
  C   C36       1.0  0.54057  0.18518  0.15968  1.0000
  C   C37       1.0  0.38805  0.88821  0.92384  1.0000
  C   C38       1.0  0.61195  0.11179  0.07616  1.0000
  C   C39       1.0  0.26308  0.91477  0.21758  1.0000
  C   C40       1.0  0.73692  0.08523  0.78242  1.0000
  C   C41       1.0  0.08049  0.89409  0.26348  1.0000
  C   C42       1.0  0.91952  0.10591  0.73652  1.0000
  C   C43       1.0  0.55652  0.65029  0.98045  1.0000
  C   C44       1.0  0.44348  0.34971  0.01955  1.0000
  C   C45       1.0  0.97057  0.29946  0.16232  1.0000
  C   C46       1.0  0.02943  0.70054  0.83768  1.0000
  N   N1        1.0  0.29534  0.00692  0.92099  1.0000
  N   N2        1.0  0.70466  0.99308  0.07901  1.0000
  N   N3        1.0  0.08731  0.21606  0.96023  1.0000
  N   N4        1.0  0.91269  0.78394  0.03977  1.0000
  N   N5        1.0  0.31576  0.93573  0.09549  1.0000
  N   N6        1.0  0.68424  0.06427  0.90451  1.0000
  O   O1        1.0  0.11229  0.34909  0.40100  1.0000
  O   O2        1.0  0.88772  0.65091  0.59900  1.0000
  O   O3        1.0  0.12513  0.55955  0.35708  1.0000
  O   O4        1.0  0.87487  0.44044  0.64292  1.0000
  O   O5        1.0  0.63261  0.72694  0.26710  1.0000
  O   O6        1.0  0.36738  0.27306  0.73290  1.0000
  O   O7        1.0  0.85766  0.60511  0.30264  1.0000
  O   O8        1.0  0.14233  0.39489  0.69736  1.0000
  O   O9        1.0  0.83644  0.14970  0.45250  1.0000
  O   O10       1.0  0.16356  0.85030  0.54750  1.0000
  O   O11       1.0  0.59425  0.07454  0.54289  1.0000
  O   O12       1.0  0.40575  0.92545  0.45711  1.0000
  O   O13       1.0  0.99956  0.90910  0.36223  1.0000
  O   O14       1.0  0.00045  0.09090  0.63777  1.0000
  O   O15       1.0  0.02529  0.86434  0.19443  1.0000
  O   O16       1.0  0.97471  0.13567  0.80557  1.0000
  O   O17       1.0  0.18775  0.10303  0.39141  1.0000
  O   O18       1.0  0.81226  0.89697  0.60860  1.0000
  O   O19       1.0  0.70337  0.95644  0.32630  1.0000
  O   O20       1.0  0.29663  0.04356  0.67370  1.0000
