data_image0
_chemical_formula_structural       Cd4H24C36I4N28
_chemical_formula_sum              "Cd4 H24 C36 I4 N28"
_cell_length_a       8.10134
_cell_length_b       10.7502
_cell_length_c       15.0685
_cell_angle_alpha    90
_cell_angle_beta     90
_cell_angle_gamma    110.663

_space_group_name_H-M_alt    "P 1"
_space_group_IT_number       1

loop_
  _space_group_symop_operation_xyz
  'x, y, z'

loop_
  _atom_site_type_symbol
  _atom_site_label
  _atom_site_symmetry_multiplicity
  _atom_site_fract_x
  _atom_site_fract_y
  _atom_site_fract_z
  _atom_site_occupancy
  Cd  Cd1       1.0  0.99847  0.17395  0.87544  1.0000
  Cd  Cd2       1.0  0.00153  0.32605  0.37544  1.0000
  Cd  Cd3       1.0  0.00153  0.82605  0.12456  1.0000
  Cd  Cd4       1.0  0.99847  0.67395  0.62456  1.0000
  H   H1        1.0  0.58793  0.60424  0.84525  1.0000
  H   H2        1.0  0.41207  0.89576  0.34525  1.0000
  H   H3        1.0  0.41207  0.39576  0.15475  1.0000
  H   H4        1.0  0.58793  0.10424  0.65475  1.0000
  H   H5        1.0  0.35981  0.15756  0.97781  1.0000
  H   H6        1.0  0.64019  0.34244  0.47781  1.0000
  H   H7        1.0  0.64019  0.84244  0.02219  1.0000
  H   H8        1.0  0.35981  0.65755  0.52219  1.0000
  H   H9        1.0  0.67913  0.29729  0.00059  1.0000
  H   H10       1.0  0.32087  0.20271  0.50059  1.0000
  H   H11       1.0  0.32087  0.70272  0.99942  1.0000
  H   H12       1.0  0.67913  0.79728  0.49941  1.0000
  H   H13       1.0  0.79344  0.52724  0.93267  1.0000
  H   H14       1.0  0.20656  0.97276  0.43266  1.0000
  H   H15       1.0  0.20656  0.47276  0.06734  1.0000
  H   H16       1.0  0.79344  0.02724  0.56733  1.0000
  H   H17       1.0  0.49740  0.46055  0.62510  1.0000
  H   H18       1.0  0.50260  0.03945  0.12510  1.0000
  H   H19       1.0  0.50260  0.53945  0.37490  1.0000
  H   H20       1.0  0.49740  0.96055  0.87490  1.0000
  H   H21       1.0  0.41809  0.22661  0.70984  1.0000
  H   H22       1.0  0.58191  0.27339  0.20984  1.0000
  H   H23       1.0  0.58191  0.77339  0.29016  1.0000
  H   H24       1.0  0.41809  0.72661  0.79016  1.0000
  C   C1        1.0  0.80812  0.40992  0.73216  1.0000
  C   C2        1.0  0.19188  0.09008  0.23216  1.0000
  C   C3        1.0  0.19188  0.59008  0.26784  1.0000
  C   C4        1.0  0.80812  0.90993  0.76784  1.0000
  C   C5        1.0  0.36411  0.42379  0.86886  1.0000
  C   C6        1.0  0.63589  0.07622  0.36886  1.0000
  C   C7        1.0  0.63589  0.57622  0.13114  1.0000
  C   C8        1.0  0.36411  0.92378  0.63114  1.0000
  C   C9        1.0  0.54087  0.50734  0.87710  1.0000
  C   C10       1.0  0.45913  0.99266  0.37709  1.0000
  C   C11       1.0  0.45913  0.49266  0.12290  1.0000
  C   C12       1.0  0.54087  0.00734  0.62290  1.0000
  C   C13       1.0  0.41611  0.25825  0.95087  1.0000
  C   C14       1.0  0.58389  0.24175  0.45086  1.0000
  C   C15       1.0  0.58389  0.74175  0.04914  1.0000
  C   C16       1.0  0.41611  0.75825  0.54913  1.0000
  C   C17       1.0  0.23212  0.46200  0.82095  1.0000
  C   C18       1.0  0.76789  0.03800  0.32095  1.0000
  C   C19       1.0  0.76788  0.53800  0.17905  1.0000
  C   C20       1.0  0.23212  0.96200  0.67905  1.0000
  C   C21       1.0  0.98753  0.44917  0.76357  1.0000
  C   C22       1.0  0.01248  0.05083  0.26357  1.0000
  C   C23       1.0  0.01247  0.55082  0.23643  1.0000
  C   C24       1.0  0.98753  0.94917  0.73643  1.0000
  C   C25       1.0  0.59266  0.33630  0.96327  1.0000
  C   C26       1.0  0.40733  0.16370  0.46327  1.0000
  C   C27       1.0  0.40733  0.66370  0.03673  1.0000
  C   C28       1.0  0.59267  0.83630  0.53673  1.0000
  C   C29       1.0  0.65572  0.46280  0.92513  1.0000
  C   C30       1.0  0.34428  0.03720  0.42513  1.0000
  C   C31       1.0  0.34428  0.53720  0.07487  1.0000
  C   C32       1.0  0.65572  0.96280  0.57487  1.0000
  C   C33       1.0  0.58684  0.42766  0.66435  1.0000
  C   C34       1.0  0.41316  0.07234  0.16435  1.0000
  C   C35       1.0  0.41316  0.57234  0.33565  1.0000
  C   C36       1.0  0.58684  0.92766  0.83565  1.0000
  I   I1        1.0  0.89203  0.15043  0.05284  1.0000
  I   I2        1.0  0.10797  0.34957  0.55284  1.0000
  I   I3        1.0  0.10797  0.84957  0.94716  1.0000
  I   I4        1.0  0.89203  0.65043  0.44716  1.0000
  N   N1        1.0  0.75783  0.49435  0.67962  1.0000
  N   N2        1.0  0.24217  0.00565  0.17962  1.0000
  N   N3        1.0  0.24217  0.50565  0.32038  1.0000
  N   N4        1.0  0.75783  0.99435  0.82038  1.0000
  N   N5        1.0  0.26060  0.57771  0.77827  1.0000
  N   N6        1.0  0.73940  0.92229  0.27827  1.0000
  N   N7        1.0  0.73940  0.42229  0.22173  1.0000
  N   N8        1.0  0.26060  0.07771  0.72173  1.0000
  N   N9        1.0  0.06122  0.37888  0.81357  1.0000
  N   N10       1.0  0.93878  0.12112  0.31357  1.0000
  N   N11       1.0  0.93878  0.62112  0.18643  1.0000
  N   N12       1.0  0.06122  0.87888  0.68643  1.0000
  N   N13       1.0  0.67819  0.29595  0.74961  1.0000
  N   N14       1.0  0.32181  0.20405  0.24961  1.0000
  N   N15       1.0  0.32180  0.70405  0.25039  1.0000
  N   N16       1.0  0.67820  0.79595  0.75039  1.0000
  N   N17       1.0  0.30449  0.30067  0.90484  1.0000
  N   N18       1.0  0.69551  0.19933  0.40483  1.0000
  N   N19       1.0  0.69551  0.69933  0.09517  1.0000
  N   N20       1.0  0.30449  0.80067  0.59517  1.0000
  N   N21       1.0  0.10418  0.56900  0.74158  1.0000
  N   N22       1.0  0.89581  0.93100  0.24158  1.0000
  N   N23       1.0  0.89581  0.43100  0.25842  1.0000
  N   N24       1.0  0.10419  0.06900  0.75842  1.0000
  N   N25       1.0  0.53903  0.30984  0.70623  1.0000
  N   N26       1.0  0.46097  0.19016  0.20623  1.0000
  N   N27       1.0  0.46097  0.69016  0.29377  1.0000
  N   N28       1.0  0.53903  0.80984  0.79377  1.0000
