data_image0
_chemical_formula_structural       Cu4H22C18N30
_chemical_formula_sum              "Cu4 H22 C18 N30"
_cell_length_a       7.58635
_cell_length_b       8.68192
_cell_length_c       12.9749
_cell_angle_alpha    83.5674
_cell_angle_beta     78.9528
_cell_angle_gamma    71.956

_space_group_name_H-M_alt    "P 1"
_space_group_IT_number       1

loop_
  _space_group_symop_operation_xyz
  'x, y, z'

loop_
  _atom_site_type_symbol
  _atom_site_label
  _atom_site_symmetry_multiplicity
  _atom_site_fract_x
  _atom_site_fract_y
  _atom_site_fract_z
  _atom_site_occupancy
  Cu  Cu1       1.0  0.16691  0.03958  0.91317  1.0000
  Cu  Cu2       1.0  0.83309  0.96041  0.08683  1.0000
  Cu  Cu3       1.0  0.30506  0.54595  0.58276  1.0000
  Cu  Cu4       1.0  0.69493  0.45406  0.41724  1.0000
  H   H1        1.0  0.47532  0.68028  0.89382  1.0000
  H   H2        1.0  0.52469  0.31972  0.10618  1.0000
  H   H3        1.0  0.85181  0.65701  0.83388  1.0000
  H   H4        1.0  0.14821  0.34299  0.16612  1.0000
  H   H5        1.0  0.53781  0.15248  0.85066  1.0000
  H   H6        1.0  0.46219  0.84752  0.14933  1.0000
  H   H7        1.0  0.17336  0.38011  0.97787  1.0000
  H   H8        1.0  0.82666  0.61988  0.02213  1.0000
  H   H9        1.0  0.24171  0.61295  0.82421  1.0000
  H   H10       1.0  0.75830  0.38705  0.17580  1.0000
  H   H11       1.0  0.21165  0.21191  0.67920  1.0000
  H   H12       1.0  0.78835  0.78809  0.32080  1.0000
  H   H13       1.0  0.07956  0.87084  0.46807  1.0000
  H   H14       1.0  0.92042  0.12916  0.53193  1.0000
  H   H15       1.0  0.68983  0.96667  0.49773  1.0000
  H   H16       1.0  0.31015  0.03332  0.50228  1.0000
  H   H17       1.0  0.88587  0.51195  0.66119  1.0000
  H   H18       1.0  0.11413  0.48804  0.33881  1.0000
  H   H19       1.0  0.86724  0.94662  0.80754  1.0000
  H   H20       1.0  0.13277  0.05338  0.19246  1.0000
  H   H21       1.0  0.59266  0.74095  0.61471  1.0000
  H   H22       1.0  0.40733  0.25904  0.38530  1.0000
  C   C1        1.0  0.54136  0.77609  0.87592  1.0000
  C   C2        1.0  0.45866  0.22391  0.12408  1.0000
  C   C3        1.0  0.72915  0.76204  0.84598  1.0000
  C   C4        1.0  0.27087  0.23796  0.15401  1.0000
  C   C5        1.0  0.56829  0.02188  0.85434  1.0000
  C   C6        1.0  0.43171  0.97812  0.14566  1.0000
  C   C7        1.0  0.18970  0.38014  0.89312  1.0000
  C   C8        1.0  0.81030  0.61985  0.10688  1.0000
  C   C9        1.0  0.22510  0.49546  0.81680  1.0000
  C   C10       1.0  0.77490  0.50455  0.18320  1.0000
  C   C11       1.0  0.21173  0.28919  0.73928  1.0000
  C   C12       1.0  0.78826  0.71082  0.26071  1.0000
  C   C13       1.0  0.98192  0.80994  0.51222  1.0000
  C   C14       1.0  0.01806  0.19007  0.48779  1.0000
  C   C15       1.0  0.78884  0.85821  0.52619  1.0000
  C   C16       1.0  0.21114  0.14178  0.47382  1.0000
  C   C17       1.0  0.88754  0.62102  0.61193  1.0000
  C   C18       1.0  0.11245  0.37897  0.38807  1.0000
  N   N1        1.0  0.89343  0.13632  0.97887  1.0000
  N   N2        1.0  0.10657  0.86367  0.02113  1.0000
  N   N3        1.0  0.79633  0.27009  0.95275  1.0000
  N   N4        1.0  0.20367  0.72991  0.04724  1.0000
  N   N5        1.0  0.70554  0.39767  0.92746  1.0000
  N   N6        1.0  0.29449  0.60233  0.07253  1.0000
  N   N7        1.0  0.11218  0.94093  0.76382  1.0000
  N   N8        1.0  0.88783  0.05908  0.23617  1.0000
  N   N9        1.0  0.22958  0.86079  0.70147  1.0000
  N   N10       1.0  0.77042  0.13921  0.29852  1.0000
  N   N11       1.0  0.34661  0.78019  0.63833  1.0000
  N   N12       1.0  0.65339  0.21981  0.36167  1.0000
  N   N13       1.0  0.44233  0.93910  0.88112  1.0000
  N   N14       1.0  0.55767  0.06089  0.11888  1.0000
  N   N15       1.0  0.74244  0.91772  0.83254  1.0000
  N   N16       1.0  0.25757  0.08228  0.16746  1.0000
  N   N17       1.0  0.18137  0.25080  0.84334  1.0000
  N   N18       1.0  0.81862  0.74921  0.15666  1.0000
  N   N19       1.0  0.23849  0.43703  0.71992  1.0000
  N   N20       1.0  0.76150  0.56297  0.28008  1.0000
  N   N21       1.0  0.04171  0.66180  0.56620  1.0000
  N   N22       1.0  0.95828  0.33820  0.43381  1.0000
  N   N23       1.0  0.73291  0.73726  0.58876  1.0000
  N   N24       1.0  0.26708  0.26273  0.41124  1.0000
  N   N25       1.0  0.57951  0.41122  0.57040  1.0000
  N   N26       1.0  0.42048  0.58878  0.42960  1.0000
  N   N27       1.0  0.65955  0.34212  0.64279  1.0000
  N   N28       1.0  0.34044  0.65788  0.35721  1.0000
  N   N29       1.0  0.73910  0.27609  0.71082  1.0000
  N   N30       1.0  0.26090  0.72391  0.28918  1.0000
