data_image0
_chemical_formula_structural       V8Co4H16C16N8O24
_chemical_formula_sum              "V8 Co4 H16 C16 N8 O24"
_cell_length_a       7.31346
_cell_length_b       10.1677
_cell_length_c       11.2398
_cell_angle_alpha    90.0002
_cell_angle_beta     89.9991
_cell_angle_gamma    89.9881

_space_group_name_H-M_alt    "P 1"
_space_group_IT_number       1

loop_
  _space_group_symop_operation_xyz
  'x, y, z'

loop_
  _atom_site_type_symbol
  _atom_site_label
  _atom_site_symmetry_multiplicity
  _atom_site_fract_x
  _atom_site_fract_y
  _atom_site_fract_z
  _atom_site_occupancy
  V   V1        1.0  0.09200  0.76602  0.14857  1.0000
  V   V2        1.0  0.09196  0.73403  0.85129  1.0000
  V   V3        1.0  0.40802  0.73398  0.64858  1.0000
  V   V4        1.0  0.40805  0.76597  0.35129  1.0000
  V   V5        1.0  0.90810  0.23398  0.85134  1.0000
  V   V6        1.0  0.90797  0.26601  0.14866  1.0000
  V   V7        1.0  0.59189  0.26602  0.35134  1.0000
  V   V8        1.0  0.59203  0.23399  0.64866  1.0000
  Co  Co1       1.0  0.24994  0.05681  0.25002  1.0000
  Co  Co2       1.0  0.25005  0.44318  0.75002  1.0000
  Co  Co3       1.0  0.74997  0.94325  0.75001  1.0000
  Co  Co4       1.0  0.75003  0.55676  0.25001  1.0000
  H   H1        1.0  0.86888  0.95995  0.30574  1.0000
  H   H2        1.0  0.86909  0.54037  0.69428  1.0000
  H   H3        1.0  0.63110  0.54007  0.80574  1.0000
  H   H4        1.0  0.63091  0.95965  0.19429  1.0000
  H   H5        1.0  0.13127  0.04051  0.69412  1.0000
  H   H6        1.0  0.13126  0.45934  0.30592  1.0000
  H   H7        1.0  0.36874  0.45946  0.19412  1.0000
  H   H8        1.0  0.36874  0.04066  0.80592  1.0000
  H   H9        1.0  0.29848  0.10350  0.50904  1.0000
  H   H10       1.0  0.29848  0.39635  0.49099  1.0000
  H   H11       1.0  0.20154  0.39645  0.00904  1.0000
  H   H12       1.0  0.20151  0.10364  0.99099  1.0000
  H   H13       1.0  0.70167  0.89687  0.49080  1.0000
  H   H14       1.0  0.70187  0.60349  0.50924  1.0000
  H   H15       1.0  0.79830  0.60316  0.99080  1.0000
  H   H16       1.0  0.79814  0.89654  0.00924  1.0000
  C   C1        1.0  0.16477  0.05752  0.50421  1.0000
  C   C2        1.0  0.16481  0.44243  0.49583  1.0000
  C   C3        1.0  0.33524  0.44245  0.00421  1.0000
  C   C4        1.0  0.33518  0.05756  0.99583  1.0000
  C   C5        1.0  0.83537  0.94286  0.49568  1.0000
  C   C6        1.0  0.83551  0.55736  0.50434  1.0000
  C   C7        1.0  0.66461  0.55716  0.99568  1.0000
  C   C8        1.0  0.66450  0.94266  0.00434  1.0000
  C   C9        1.0  0.92768  0.97909  0.39245  1.0000
  C   C10       1.0  0.92783  0.52112  0.60757  1.0000
  C   C11       1.0  0.57231  0.52092  0.89245  1.0000
  C   C12       1.0  0.57217  0.97889  0.10758  1.0000
  C   C13       1.0  0.07243  0.02132  0.60743  1.0000
  C   C14       1.0  0.07245  0.47863  0.39260  1.0000
  C   C15       1.0  0.42757  0.47866  0.10743  1.0000
  C   C16       1.0  0.42755  0.02137  0.89260  1.0000
  N   N1        1.0  0.09401  0.03663  0.39506  1.0000
  N   N2        1.0  0.09410  0.46344  0.60498  1.0000
  N   N3        1.0  0.40600  0.46335  0.89506  1.0000
  N   N4        1.0  0.40589  0.03656  0.10498  1.0000
  N   N5        1.0  0.90614  0.96368  0.60484  1.0000
  N   N6        1.0  0.90621  0.53638  0.39519  1.0000
  N   N7        1.0  0.59384  0.53632  0.10484  1.0000
  N   N8        1.0  0.59380  0.96363  0.89518  1.0000
  O   O1        1.0  0.08580  0.92806  0.17904  1.0000
  O   O2        1.0  0.08599  0.57193  0.82103  1.0000
  O   O3        1.0  0.41421  0.57194  0.67904  1.0000
  O   O4        1.0  0.41400  0.92808  0.32102  1.0000
  O   O5        1.0  0.91420  0.07192  0.82104  1.0000
  O   O6        1.0  0.91410  0.42805  0.17909  1.0000
  O   O7        1.0  0.58579  0.42808  0.32105  1.0000
  O   O8        1.0  0.58589  0.07195  0.67909  1.0000
  O   O9        1.0  0.17618  0.75017  0.99990  1.0000
  O   O10       1.0  0.32385  0.74983  0.49990  1.0000
  O   O11       1.0  0.82394  0.25010  0.99998  1.0000
  O   O12       1.0  0.67605  0.24990  0.49998  1.0000
  O   O13       1.0  0.25006  0.69320  0.24993  1.0000
  O   O14       1.0  0.24994  0.80681  0.74993  1.0000
  O   O15       1.0  0.75012  0.30680  0.74993  1.0000
  O   O16       1.0  0.74987  0.19320  0.24993  1.0000
  O   O17       1.0  0.88556  0.69913  0.16942  1.0000
  O   O18       1.0  0.88539  0.80082  0.83038  1.0000
  O   O19       1.0  0.61446  0.80086  0.66943  1.0000
  O   O20       1.0  0.61462  0.69919  0.33037  1.0000
  O   O21       1.0  0.11461  0.30076  0.83042  1.0000
  O   O22       1.0  0.11444  0.19912  0.16962  1.0000
  O   O23       1.0  0.38538  0.19924  0.33043  1.0000
  O   O24       1.0  0.38555  0.30087  0.66961  1.0000
