data_image0
_chemical_formula_structural       Zn4P8H40C32O16
_chemical_formula_sum              "Zn4 P8 H40 C32 O16"
_cell_length_a       5.41042
_cell_length_b       8.81395
_cell_length_c       21.1825
_cell_angle_alpha    89.9999
_cell_angle_beta     90.0001
_cell_angle_gamma    90.0004

_space_group_name_H-M_alt    "P 1"
_space_group_IT_number       1

loop_
  _space_group_symop_operation_xyz
  'x, y, z'

loop_
  _atom_site_type_symbol
  _atom_site_label
  _atom_site_symmetry_multiplicity
  _atom_site_fract_x
  _atom_site_fract_y
  _atom_site_fract_z
  _atom_site_occupancy
  Zn  Zn1       1.0  0.85543  0.80184  0.72482  1.0000
  Zn  Zn2       1.0  0.64457  0.19816  0.22482  1.0000
  Zn  Zn3       1.0  0.35544  0.69817  0.27518  1.0000
  Zn  Zn4       1.0  0.14457  0.30184  0.77518  1.0000
  P   P1        1.0  0.35818  0.96293  0.74919  1.0000
  P   P2        1.0  0.14181  0.03707  0.24919  1.0000
  P   P3        1.0  0.85818  0.53707  0.25081  1.0000
  P   P4        1.0  0.64181  0.46293  0.75082  1.0000
  P   P5        1.0  0.53507  0.90293  0.61361  1.0000
  P   P6        1.0  0.96492  0.09707  0.11361  1.0000
  P   P7        1.0  0.03508  0.59707  0.38639  1.0000
  P   P8        1.0  0.46492  0.40293  0.88639  1.0000
  H   H1        1.0  0.19201  0.05230  0.64963  1.0000
  H   H2        1.0  0.30799  0.94770  0.14963  1.0000
  H   H3        1.0  0.69201  0.44770  0.35037  1.0000
  H   H4        1.0  0.80799  0.55230  0.85037  1.0000
  H   H5        1.0  0.48411  0.13926  0.66773  1.0000
  H   H6        1.0  0.01589  0.86074  0.16773  1.0000
  H   H7        1.0  0.98411  0.36074  0.33227  1.0000
  H   H8        1.0  0.51589  0.63926  0.83227  1.0000
  H   H9        1.0  0.36429  0.67178  0.65336  1.0000
  H   H10       1.0  0.13571  0.32822  0.15336  1.0000
  H   H11       1.0  0.86429  0.82822  0.34664  1.0000
  H   H12       1.0  0.63570  0.17178  0.84664  1.0000
  H   H13       1.0  0.41190  0.66361  0.56968  1.0000
  H   H14       1.0  0.08810  0.33639  0.06968  1.0000
  H   H15       1.0  0.91190  0.83639  0.43032  1.0000
  H   H16       1.0  0.58809  0.16361  0.93032  1.0000
  H   H17       1.0  0.15535  0.76658  0.60173  1.0000
  H   H18       1.0  0.34465  0.23342  0.10173  1.0000
  H   H19       1.0  0.65536  0.73342  0.39827  1.0000
  H   H20       1.0  0.84464  0.26658  0.89827  1.0000
  H   H21       1.0  0.19922  0.88367  0.50421  1.0000
  H   H22       1.0  0.30077  0.11634  0.00421  1.0000
  H   H23       1.0  0.69924  0.61633  0.49579  1.0000
  H   H24       1.0  0.80076  0.38366  0.99579  1.0000
  H   H25       1.0  0.23152  0.99071  0.39547  1.0000
  H   H26       1.0  0.26848  0.00929  0.89547  1.0000
  H   H27       1.0  0.73154  0.50929  0.60453  1.0000
  H   H28       1.0  0.76847  0.49070  0.10453  1.0000
  H   H29       1.0  0.58653  0.15009  0.36611  1.0000
  H   H30       1.0  0.91347  0.84991  0.86611  1.0000
  H   H31       1.0  0.08654  0.34991  0.63389  1.0000
  H   H32       1.0  0.41348  0.65009  0.13389  1.0000
  H   H33       1.0  0.91520  0.20866  0.44563  1.0000
  H   H34       1.0  0.58480  0.79134  0.94563  1.0000
  H   H35       1.0  0.41521  0.29134  0.55437  1.0000
  H   H36       1.0  0.08480  0.70866  0.05437  1.0000
  H   H37       1.0  0.88965  0.09939  0.55303  1.0000
  H   H38       1.0  0.61034  0.90062  0.05303  1.0000
  H   H39       1.0  0.38966  0.40061  0.44697  1.0000
  H   H40       1.0  0.11035  0.59939  0.94697  1.0000
  C   C1        1.0  0.38068  0.03161  0.66709  1.0000
  C   C2        1.0  0.11932  0.96840  0.16709  1.0000
  C   C3        1.0  0.88068  0.46840  0.33291  1.0000
  C   C4        1.0  0.61932  0.53161  0.83291  1.0000
  C   C5        1.0  0.34969  0.73496  0.60888  1.0000
  C   C6        1.0  0.15030  0.26504  0.10888  1.0000
  C   C7        1.0  0.84970  0.76504  0.39112  1.0000
  C   C8        1.0  0.65029  0.23496  0.89112  1.0000
  C   C9        1.0  0.54216  0.98503  0.53580  1.0000
  C   C10       1.0  0.95783  0.01498  0.03580  1.0000
  C   C11       1.0  0.04218  0.51497  0.46420  1.0000
  C   C12       1.0  0.45782  0.48502  0.96420  1.0000
  C   C13       1.0  0.35522  0.95580  0.49151  1.0000
  C   C14       1.0  0.14477  0.04420  0.99151  1.0000
  C   C15       1.0  0.85524  0.54420  0.50849  1.0000
  C   C16       1.0  0.64476  0.45580  0.00849  1.0000
  C   C17       1.0  0.37074  0.01689  0.43091  1.0000
  C   C18       1.0  0.12925  0.98311  0.93091  1.0000
  C   C19       1.0  0.87076  0.48311  0.56908  1.0000
  C   C20       1.0  0.62926  0.51688  0.06909  1.0000
  C   C21       1.0  0.57176  0.10783  0.41429  1.0000
  C   C22       1.0  0.92823  0.89217  0.91429  1.0000
  C   C23       1.0  0.07178  0.39217  0.58571  1.0000
  C   C24       1.0  0.42823  0.60783  0.08571  1.0000
  C   C25       1.0  0.75680  0.13888  0.45839  1.0000
  C   C26       1.0  0.74319  0.86112  0.95839  1.0000
  C   C27       1.0  0.25681  0.36112  0.54161  1.0000
  C   C28       1.0  0.24321  0.63888  0.04161  1.0000
  C   C29       1.0  0.74303  0.07744  0.51900  1.0000
  C   C30       1.0  0.75697  0.92256  0.01900  1.0000
  C   C31       1.0  0.24304  0.42256  0.48100  1.0000
  C   C32       1.0  0.25696  0.57744  0.98100  1.0000
  O   O1        1.0  0.19591  0.81919  0.74899  1.0000
  O   O2        1.0  0.30409  0.18081  0.24899  1.0000
  O   O3        1.0  0.69592  0.68081  0.25101  1.0000
  O   O4        1.0  0.80409  0.31919  0.75102  1.0000
  O   O5        1.0  0.61946  0.92453  0.77282  1.0000
  O   O6        1.0  0.88054  0.07547  0.27282  1.0000
  O   O7        1.0  0.11946  0.57547  0.22718  1.0000
  O   O8        1.0  0.38055  0.42453  0.72718  1.0000
  O   O9        1.0  0.24253  0.09208  0.78701  1.0000
  O   O10       1.0  0.25747  0.90792  0.28701  1.0000
  O   O11       1.0  0.74253  0.40792  0.21299  1.0000
  O   O12       1.0  0.75747  0.59208  0.71299  1.0000
  O   O13       1.0  0.80250  0.87753  0.63516  1.0000
  O   O14       1.0  0.69750  0.12247  0.13517  1.0000
  O   O15       1.0  0.30250  0.62247  0.36483  1.0000
  O   O16       1.0  0.19750  0.37753  0.86483  1.0000
