data_image0
_chemical_formula_structural       Zn2P4H24C18O8
_chemical_formula_sum              "Zn2 P4 H24 C18 O8"
_cell_length_a       5.37696
_cell_length_b       8.57387
_cell_length_c       13.124
_cell_angle_alpha    89.7149
_cell_angle_beta     101.864
_cell_angle_gamma    90.3095

_space_group_name_H-M_alt    "P 1"
_space_group_IT_number       1

loop_
  _space_group_symop_operation_xyz
  'x, y, z'

loop_
  _atom_site_type_symbol
  _atom_site_label
  _atom_site_symmetry_multiplicity
  _atom_site_fract_x
  _atom_site_fract_y
  _atom_site_fract_z
  _atom_site_occupancy
  Zn  Zn1       1.0  0.24219  0.36141  0.96615  1.0000
  Zn  Zn2       1.0  0.77118  0.85862  0.03136  1.0000
  P   P1        1.0  0.72842  0.53294  0.93614  1.0000
  P   P2        1.0  0.28549  0.03140  0.06219  1.0000
  P   P3        1.0  0.82788  0.30988  0.76539  1.0000
  P   P4        1.0  0.17160  0.81028  0.23453  1.0000
  H   H1        1.0  0.46267  0.46844  0.76814  1.0000
  H   H2        1.0  0.73719  0.58116  0.75560  1.0000
  H   H3        1.0  0.54780  0.95604  0.22960  1.0000
  H   H4        1.0  0.28968  0.07883  0.24510  1.0000
  H   H5        1.0  0.70248  0.14883  0.89144  1.0000
  H   H6        1.0  0.47182  0.14687  0.77559  1.0000
  H   H7        1.0  0.28825  0.64832  0.10972  1.0000
  H   H8        1.0  0.51777  0.63812  0.22774  1.0000
  H   H9        1.0  0.71095  0.88733  0.80803  1.0000
  H   H10       1.0  0.99946  0.98464  0.80604  1.0000
  H   H11       1.0  0.75705  0.97476  0.69020  1.0000
  H   H12       1.0  0.24091  0.38650  0.18676  1.0000
  H   H13       1.0  0.97106  0.49762  0.19303  1.0000
  H   H14       1.0  0.21291  0.47148  0.30734  1.0000
  H   H15       1.0  0.11305  0.45152  0.62604  1.0000
  H   H16       1.0  0.05132  0.46451  0.43431  1.0000
  H   H17       1.0  0.68626  0.32513  0.32253  1.0000
  H   H18       1.0  0.37671  0.17899  0.40608  1.0000
  H   H19       1.0  0.43278  0.17004  0.59688  1.0000
  H   H20       1.0  0.56037  0.66711  0.40280  1.0000
  H   H21       1.0  0.61188  0.66817  0.59330  1.0000
  H   H22       1.0  0.30363  0.81107  0.67740  1.0000
  H   H23       1.0  0.94545  0.95626  0.56643  1.0000
  H   H24       1.0  0.88798  0.95155  0.37452  1.0000
  C   C1        1.0  0.66851  0.48331  0.79692  1.0000
  C   C2        1.0  0.34363  0.97901  0.20238  1.0000
  C   C3        1.0  0.67808  0.13906  0.80620  1.0000
  C   C4        1.0  0.31227  0.63673  0.19484  1.0000
  C   C5        1.0  0.79392  0.98824  0.77511  1.0000
  C   C6        1.0  0.17699  0.48994  0.22279  1.0000
  C   C7        1.0  0.77831  0.30971  0.62473  1.0000
  C   C8        1.0  0.21893  0.80856  0.37525  1.0000
  C   C9        1.0  0.95089  0.39251  0.57769  1.0000
  C   C10       1.0  0.42351  0.72995  0.43780  1.0000
  C   C11       1.0  0.91665  0.39885  0.46953  1.0000
  C   C12       1.0  0.45289  0.73082  0.54597  1.0000
  C   C13       1.0  0.71157  0.32120  0.40719  1.0000
  C   C14       1.0  0.28059  0.81112  0.59280  1.0000
  C   C15       1.0  0.53850  0.23920  0.45373  1.0000
  C   C16       1.0  0.07941  0.89203  0.53080  1.0000
  C   C17       1.0  0.57038  0.23387  0.56199  1.0000
  C   C18       1.0  0.04762  0.89023  0.42260  1.0000
  O   O1        1.0  0.01690  0.53590  0.97526  1.0000
  O   O2        1.0  0.10364  0.90861  0.00312  1.0000
  O   O3        1.0  0.17106  0.19545  0.05636  1.0000
  O   O4        1.0  0.61044  0.69493  0.93985  1.0000
  O   O5        1.0  0.59964  0.40559  0.98980  1.0000
  O   O6        1.0  0.54291  0.03138  0.02949  1.0000
  O   O7        1.0  0.11435  0.31518  0.81013  1.0000
  O   O8        1.0  0.88544  0.81827  0.18948  1.0000
