data_image0
_chemical_formula_structural       V4Co2H16C20N4O12
_chemical_formula_sum              "V4 Co2 H16 C20 N4 O12"
_cell_length_a       8.11817
_cell_length_b       8.50896
_cell_length_c       10.0875
_cell_angle_alpha    87.207
_cell_angle_beta     76.0304
_cell_angle_gamma    75.1788

_space_group_name_H-M_alt    "P 1"
_space_group_IT_number       1

loop_
  _space_group_symop_operation_xyz
  'x, y, z'

loop_
  _atom_site_type_symbol
  _atom_site_label
  _atom_site_symmetry_multiplicity
  _atom_site_fract_x
  _atom_site_fract_y
  _atom_site_fract_z
  _atom_site_occupancy
  V   V1        1.0  0.23098  0.73092  0.53067  1.0000
  V   V2        1.0  0.76902  0.26908  0.46934  1.0000
  V   V3        1.0  0.62874  0.59090  0.29895  1.0000
  V   V4        1.0  0.37126  0.40910  0.70105  1.0000
  Co  Co1       1.0  0.84195  0.83794  0.44291  1.0000
  Co  Co2       1.0  0.15805  0.16206  0.55709  1.0000
  H   H1        1.0  0.78646  0.59449  0.67112  1.0000
  H   H2        1.0  0.21354  0.40552  0.32889  1.0000
  H   H3        1.0  0.56920  0.58153  0.89149  1.0000
  H   H4        1.0  0.43080  0.41848  0.10852  1.0000
  H   H5        1.0  0.30957  0.08089  0.82890  1.0000
  H   H6        1.0  0.69042  0.91911  0.17110  1.0000
  H   H7        1.0  0.53348  0.07065  0.61196  1.0000
  H   H8        1.0  0.46651  0.92935  0.38803  1.0000
  H   H9        1.0  0.25392  0.58902  0.98401  1.0000
  H   H10       1.0  0.74608  0.41098  0.01599  1.0000
  H   H11       1.0  0.02128  0.60963  0.19961  1.0000
  H   H12       1.0  0.97872  0.39036  0.80040  1.0000
  H   H13       1.0  0.03714  0.07800  0.27703  1.0000
  H   H14       1.0  0.96286  0.92200  0.72297  1.0000
  H   H15       1.0  0.26592  0.08062  0.06472  1.0000
  H   H16       1.0  0.73408  0.91938  0.93528  1.0000
  C   C1        1.0  0.67824  0.69916  0.71061  1.0000
  C   C2        1.0  0.32175  0.30085  0.28939  1.0000
  C   C3        1.0  0.55632  0.69282  0.83279  1.0000
  C   C4        1.0  0.44369  0.30718  0.16721  1.0000
  C   C5        1.0  0.41897  0.83061  0.87950  1.0000
  C   C6        1.0  0.58103  0.16940  0.12050  1.0000
  C   C7        1.0  0.41266  0.96992  0.79940  1.0000
  C   C8        1.0  0.58734  0.03007  0.20059  1.0000
  C   C9        1.0  0.53765  0.96556  0.67781  1.0000
  C   C10       1.0  0.46234  0.03444  0.32219  1.0000
  C   C11       1.0  0.28283  0.83299  0.00661  1.0000
  C   C12       1.0  0.71717  0.16701  0.99339  1.0000
  C   C13       1.0  0.21175  0.69945  0.04694  1.0000
  C   C14       1.0  0.78826  0.30055  0.95305  1.0000
  C   C15       1.0  0.08124  0.71034  0.16674  1.0000
  C   C16       1.0  0.91876  0.28966  0.83326  1.0000
  C   C17       1.0  0.08761  0.97222  0.20916  1.0000
  C   C18       1.0  0.91238  0.02779  0.79085  1.0000
  C   C19       1.0  0.21623  0.97268  0.09022  1.0000
  C   C20       1.0  0.78377  0.02732  0.90978  1.0000
  N   N1        1.0  0.66908  0.83361  0.63320  1.0000
  N   N2        1.0  0.33092  0.16639  0.36680  1.0000
  N   N3        1.0  0.01965  0.84389  0.24806  1.0000
  N   N4        1.0  0.98035  0.15611  0.75194  1.0000
  O   O1        1.0  0.03649  0.71429  0.50990  1.0000
  O   O2        1.0  0.96352  0.28570  0.49010  1.0000
  O   O3        1.0  0.78158  0.07051  0.44910  1.0000
  O   O4        1.0  0.21841  0.92949  0.55090  1.0000
  O   O5        1.0  0.73359  0.70000  0.36965  1.0000
  O   O6        1.0  0.26641  0.30000  0.63035  1.0000
  O   O7        1.0  0.39696  0.64630  0.38472  1.0000
  O   O8        1.0  0.60304  0.35369  0.61528  1.0000
  O   O9        1.0  0.65178  0.63235  0.13700  1.0000
  O   O10       1.0  0.34822  0.36765  0.86300  1.0000
  O   O11       1.0  0.27899  0.62295  0.67907  1.0000
  O   O12       1.0  0.72101  0.37705  0.32093  1.0000
