data_image0
_chemical_formula_structural       Cu2H14C14N2O12
_chemical_formula_sum              "Cu2 H14 C14 N2 O12"
_cell_length_a       6.9689
_cell_length_b       7.82927
_cell_length_c       7.82926
_cell_angle_alpha    97.7536
_cell_angle_beta     100.44
_cell_angle_gamma    100.441

_space_group_name_H-M_alt    "P 1"
_space_group_IT_number       1

loop_
  _space_group_symop_operation_xyz
  'x, y, z'

loop_
  _atom_site_type_symbol
  _atom_site_label
  _atom_site_symmetry_multiplicity
  _atom_site_fract_x
  _atom_site_fract_y
  _atom_site_fract_z
  _atom_site_occupancy
  Cu  Cu1       1.0  0.74999  0.83852  0.16149  1.0000
  Cu  Cu2       1.0  0.25000  0.16148  0.83851  1.0000
  H   H1        1.0  0.40284  0.66243  0.11532  1.0000
  H   H2        1.0  0.90285  0.11532  0.66244  1.0000
  H   H3        1.0  0.59716  0.33756  0.88468  1.0000
  H   H4        1.0  0.09715  0.88468  0.33756  1.0000
  H   H5        1.0  0.39001  0.82334  0.00847  1.0000
  H   H6        1.0  0.89002  0.00846  0.82334  1.0000
  H   H7        1.0  0.60999  0.17666  0.99153  1.0000
  H   H8        1.0  0.10998  0.99153  0.17666  1.0000
  H   H9        1.0  0.78096  0.46213  0.15079  1.0000
  H   H10       1.0  0.28096  0.15078  0.46211  1.0000
  H   H11       1.0  0.21904  0.53787  0.84921  1.0000
  H   H12       1.0  0.71904  0.84921  0.53788  1.0000
  H   H13       1.0  0.75000  0.33438  0.66562  1.0000
  H   H14       1.0  0.25000  0.66562  0.33438  1.0000
  C   C1        1.0  0.76477  0.49476  0.28606  1.0000
  C   C2        1.0  0.26477  0.28606  0.49475  1.0000
  C   C3        1.0  0.23524  0.50524  0.71394  1.0000
  C   C4        1.0  0.73523  0.71394  0.50525  1.0000
  C   C5        1.0  0.75979  0.37086  0.39869  1.0000
  C   C6        1.0  0.25979  0.39870  0.37086  1.0000
  C   C7        1.0  0.24021  0.62914  0.60130  1.0000
  C   C8        1.0  0.74020  0.60130  0.62914  1.0000
  C   C9        1.0  0.75000  0.42667  0.57333  1.0000
  C   C10       1.0  0.25000  0.57333  0.42667  1.0000
  C   C11       1.0  0.76820  0.18251  0.33695  1.0000
  C   C12       1.0  0.26819  0.33695  0.18251  1.0000
  C   C13       1.0  0.23180  0.81749  0.66305  1.0000
  C   C14       1.0  0.73180  0.66305  0.81749  1.0000
  N   N1        1.0  0.75000  0.66180  0.33820  1.0000
  N   N2        1.0  0.25000  0.33820  0.66179  1.0000
  O   O1        1.0  0.74212  0.12584  0.17154  1.0000
  O   O2        1.0  0.24212  0.17155  0.12584  1.0000
  O   O3        1.0  0.25789  0.87417  0.82846  1.0000
  O   O4        1.0  0.75788  0.82845  0.87416  1.0000
  O   O5        1.0  0.80165  0.08712  0.45224  1.0000
  O   O6        1.0  0.30165  0.45225  0.08712  1.0000
  O   O7        1.0  0.19835  0.91288  0.54776  1.0000
  O   O8        1.0  0.69835  0.54776  0.91288  1.0000
  O   O9        1.0  0.45882  0.79118  0.12008  1.0000
  O   O10       1.0  0.95882  0.12007  0.79119  1.0000
  O   O11       1.0  0.54119  0.20882  0.87993  1.0000
  O   O12       1.0  0.04118  0.87993  0.20881  1.0000
