data_image0
_chemical_formula_structural       Cu2H14C14N2O12
_chemical_formula_sum              "Cu2 H14 C14 N2 O12"
_cell_length_a       6.99847
_cell_length_b       7.83017
_cell_length_c       7.83015
_cell_angle_alpha    97.63
_cell_angle_beta     100.412
_cell_angle_gamma    100.413

_space_group_name_H-M_alt    "P 1"
_space_group_IT_number       1

loop_
  _space_group_symop_operation_xyz
  'x, y, z'

loop_
  _atom_site_type_symbol
  _atom_site_label
  _atom_site_symmetry_multiplicity
  _atom_site_fract_x
  _atom_site_fract_y
  _atom_site_fract_z
  _atom_site_occupancy
  Cu  Cu1       1.0  0.75000  0.33884  0.66116  1.0000
  Cu  Cu2       1.0  0.25000  0.66116  0.33884  1.0000
  H   H1        1.0  0.10831  0.49265  0.67690  1.0000
  H   H2        1.0  0.39169  0.32309  0.50735  1.0000
  H   H3        1.0  0.89169  0.50735  0.32309  1.0000
  H   H4        1.0  0.60831  0.67691  0.49265  1.0000
  H   H5        1.0  0.09565  0.38484  0.83723  1.0000
  H   H6        1.0  0.40435  0.16277  0.61516  1.0000
  H   H7        1.0  0.90436  0.61517  0.16277  1.0000
  H   H8        1.0  0.59565  0.83723  0.38484  1.0000
  H   H9        1.0  0.75000  0.83421  0.16579  1.0000
  H   H10       1.0  0.25000  0.16579  0.83421  1.0000
  H   H11       1.0  0.72168  0.34978  0.03802  1.0000
  H   H12       1.0  0.77832  0.96197  0.65022  1.0000
  H   H13       1.0  0.27833  0.65022  0.96197  1.0000
  H   H14       1.0  0.22168  0.03802  0.34978  1.0000
  C   C1        1.0  0.73213  0.16275  0.31732  1.0000
  C   C2        1.0  0.76787  0.68267  0.83725  1.0000
  C   C3        1.0  0.26787  0.83725  0.68267  1.0000
  C   C4        1.0  0.23213  0.31732  0.16275  1.0000
  C   C5        1.0  0.74053  0.10123  0.12914  1.0000
  C   C6        1.0  0.75947  0.87086  0.89877  1.0000
  C   C7        1.0  0.25947  0.89877  0.87086  1.0000
  C   C8        1.0  0.24053  0.12914  0.10123  1.0000
  C   C9        1.0  0.75000  0.92661  0.07339  1.0000
  C   C10       1.0  0.25000  0.07339  0.92661  1.0000
  C   C11       1.0  0.73635  0.21415  0.00532  1.0000
  C   C12       1.0  0.76364  0.99468  0.78585  1.0000
  C   C13       1.0  0.26365  0.78585  0.99468  1.0000
  C   C14       1.0  0.23636  0.00532  0.21415  1.0000
  N   N1        1.0  0.75000  0.16191  0.83808  1.0000
  N   N2        1.0  0.25000  0.83808  0.16192  1.0000
  O   O1        1.0  0.03994  0.38075  0.70867  1.0000
  O   O2        1.0  0.46006  0.29134  0.61925  1.0000
  O   O3        1.0  0.96007  0.61925  0.29133  1.0000
  O   O4        1.0  0.53994  0.70867  0.38075  1.0000
  O   O5        1.0  0.75913  0.32801  0.37427  1.0000
  O   O6        1.0  0.74087  0.62573  0.67199  1.0000
  O   O7        1.0  0.24087  0.67199  0.62573  1.0000
  O   O8        1.0  0.25914  0.37427  0.32801  1.0000
  O   O9        1.0  0.69721  0.04707  0.41210  1.0000
  O   O10       1.0  0.80278  0.58790  0.95293  1.0000
  O   O11       1.0  0.30278  0.95293  0.58790  1.0000
  O   O12       1.0  0.19720  0.41210  0.04707  1.0000
