data_image0
_chemical_formula_structural       Cu2H16C8N8O16
_chemical_formula_sum              "Cu2 H16 C8 N8 O16"
_cell_length_a       7.48298
_cell_length_b       8.30741
_cell_length_c       8.30742
_cell_angle_alpha    87.7009
_cell_angle_beta     73.7855
_cell_angle_gamma    73.785

_space_group_name_H-M_alt    "P 1"
_space_group_IT_number       1

loop_
  _space_group_symop_operation_xyz
  'x, y, z'

loop_
  _atom_site_type_symbol
  _atom_site_label
  _atom_site_symmetry_multiplicity
  _atom_site_fract_x
  _atom_site_fract_y
  _atom_site_fract_z
  _atom_site_occupancy
  Cu  Cu1       1.0  0.50000  0.00000  0.50000  1.0000
  Cu  Cu2       1.0  0.00000  0.50000  0.00000  1.0000
  H   H1        1.0  0.25001  0.62120  0.37879  1.0000
  H   H2        1.0  0.74999  0.37879  0.62122  1.0000
  H   H3        1.0  0.25000  0.19828  0.80172  1.0000
  H   H4        1.0  0.75001  0.80172  0.19827  1.0000
  H   H5        1.0  0.46943  0.32551  0.31168  1.0000
  H   H6        1.0  0.03056  0.68832  0.67450  1.0000
  H   H7        1.0  0.53057  0.67450  0.68832  1.0000
  H   H8        1.0  0.96943  0.31168  0.32550  1.0000
  H   H9        1.0  0.50995  0.90965  0.80300  1.0000
  H   H10       1.0  0.99004  0.19701  0.09036  1.0000
  H   H11       1.0  0.49005  0.09035  0.19700  1.0000
  H   H12       1.0  0.00996  0.80299  0.90964  1.0000
  H   H13       1.0  0.69333  0.98251  0.73168  1.0000
  H   H14       1.0  0.80667  0.26832  0.01749  1.0000
  H   H15       1.0  0.30667  0.01749  0.26832  1.0000
  H   H16       1.0  0.19333  0.73168  0.98251  1.0000
  C   C1        1.0  0.24998  0.52672  0.47329  1.0000
  C   C2        1.0  0.75001  0.47328  0.52672  1.0000
  C   C3        1.0  0.25000  0.29242  0.70759  1.0000
  C   C4        1.0  0.75001  0.70758  0.29241  1.0000
  C   C5        1.0  0.36989  0.36406  0.43584  1.0000
  C   C6        1.0  0.13012  0.56414  0.63593  1.0000
  C   C7        1.0  0.63012  0.63593  0.56416  1.0000
  C   C8        1.0  0.86988  0.43586  0.36407  1.0000
  N   N1        1.0  0.36565  0.24671  0.55237  1.0000
  N   N2        1.0  0.13434  0.44765  0.75329  1.0000
  N   N3        1.0  0.63435  0.75330  0.44764  1.0000
  N   N4        1.0  0.86566  0.55236  0.24671  1.0000
  N   N5        1.0  0.04161  0.00482  0.68561  1.0000
  N   N6        1.0  0.45838  0.31440  0.99518  1.0000
  N   N7        1.0  0.95839  0.99518  0.31439  1.0000
  N   N8        1.0  0.54162  0.68560  0.00482  1.0000
  O   O1        1.0  0.55900  0.99275  0.72521  1.0000
  O   O2        1.0  0.94100  0.27479  0.00725  1.0000
  O   O3        1.0  0.44100  0.00725  0.27479  1.0000
  O   O4        1.0  0.05900  0.72521  0.99275  1.0000
  O   O5        1.0  0.21658  0.92678  0.67455  1.0000
  O   O6        1.0  0.28342  0.32546  0.07321  1.0000
  O   O7        1.0  0.78342  0.07322  0.32546  1.0000
  O   O8        1.0  0.71659  0.67454  0.92678  1.0000
  O   O9        1.0  0.90941  0.94273  0.77913  1.0000
  O   O10       1.0  0.59058  0.22087  0.05726  1.0000
  O   O11       1.0  0.09059  0.05727  0.22087  1.0000
  O   O12       1.0  0.40942  0.77913  0.94274  1.0000
  O   O13       1.0  0.99532  0.13591  0.61080  1.0000
  O   O14       1.0  0.50466  0.38921  0.86409  1.0000
  O   O15       1.0  0.00468  0.86408  0.38920  1.0000
  O   O16       1.0  0.49534  0.61079  0.13591  1.0000
