data_image0
_chemical_formula_structural       Ni2H28C48N8O16
_chemical_formula_sum              "Ni2 H28 C48 N8 O16"
_cell_length_a       8.75664
_cell_length_b       11.6671
_cell_length_c       11.6671
_cell_angle_alpha    108.633
_cell_angle_beta     93.6142
_cell_angle_gamma    93.6141

_space_group_name_H-M_alt    "P 1"
_space_group_IT_number       1

loop_
  _space_group_symop_operation_xyz
  'x, y, z'

loop_
  _atom_site_type_symbol
  _atom_site_label
  _atom_site_symmetry_multiplicity
  _atom_site_fract_x
  _atom_site_fract_y
  _atom_site_fract_z
  _atom_site_occupancy
  Ni  Ni1       1.0  0.75000  0.55854  0.44146  1.0000
  Ni  Ni2       1.0  0.25000  0.44146  0.55854  1.0000
  H   H1        1.0  0.53918  0.37056  0.09479  1.0000
  H   H2        1.0  0.96081  0.90521  0.62944  1.0000
  H   H3        1.0  0.46081  0.62944  0.90521  1.0000
  H   H4        1.0  0.03919  0.09479  0.37056  1.0000
  H   H5        1.0  0.06916  0.52362  0.35214  1.0000
  H   H6        1.0  0.43084  0.64786  0.47638  1.0000
  H   H7        1.0  0.93084  0.47638  0.64786  1.0000
  H   H8        1.0  0.56916  0.35214  0.52362  1.0000
  H   H9        1.0  0.64654  0.57999  0.20707  1.0000
  H   H10       1.0  0.85346  0.79293  0.42001  1.0000
  H   H11       1.0  0.35346  0.42001  0.79293  1.0000
  H   H12       1.0  0.14654  0.20707  0.57999  1.0000
  H   H13       1.0  0.20062  0.23775  0.28375  1.0000
  H   H14       1.0  0.29938  0.71625  0.76225  1.0000
  H   H15       1.0  0.79938  0.76225  0.71625  1.0000
  H   H16       1.0  0.70062  0.28375  0.23775  1.0000
  H   H17       1.0  0.11526  0.06737  0.09241  1.0000
  H   H18       1.0  0.38474  0.90759  0.93263  1.0000
  H   H19       1.0  0.88475  0.93263  0.90759  1.0000
  H   H20       1.0  0.61525  0.09241  0.06737  1.0000
  H   H21       1.0  0.73795  0.54390  0.00481  1.0000
  H   H22       1.0  0.76205  0.99519  0.45610  1.0000
  H   H23       1.0  0.26205  0.45611  0.99519  1.0000
  H   H24       1.0  0.23795  0.00481  0.54389  1.0000
  H   H25       1.0  0.18086  0.48805  0.15671  1.0000
  H   H26       1.0  0.31915  0.84329  0.51195  1.0000
  H   H27       1.0  0.81915  0.51195  0.84329  1.0000
  H   H28       1.0  0.68086  0.15671  0.48805  1.0000
  C   C1        1.0  0.37651  0.31424  0.20248  1.0000
  C   C2        1.0  0.12349  0.79752  0.68576  1.0000
  C   C3        1.0  0.62349  0.68576  0.79752  1.0000
  C   C4        1.0  0.87651  0.20248  0.31424  1.0000
  C   C5        1.0  0.43701  0.41158  0.31997  1.0000
  C   C6        1.0  0.06299  0.68003  0.58842  1.0000
  C   C7        1.0  0.56301  0.58842  0.68002  1.0000
  C   C8        1.0  0.93699  0.31998  0.41158  1.0000
  C   C9        1.0  0.44426  0.30608  0.09552  1.0000
  C   C10       1.0  0.05573  0.90448  0.69392  1.0000
  C   C11       1.0  0.55574  0.69392  0.90448  1.0000
  C   C12       1.0  0.94426  0.09552  0.30608  1.0000
  C   C13       1.0  0.39384  0.21184  0.98890  1.0000
  C   C14       1.0  0.10615  0.01110  0.78816  1.0000
  C   C15       1.0  0.60616  0.78816  0.01110  1.0000
  C   C16       1.0  0.89384  0.98890  0.21185  1.0000
  C   C17       1.0  0.27610  0.12269  0.98513  1.0000
  C   C18       1.0  0.22389  0.01487  0.87731  1.0000
  C   C19       1.0  0.72390  0.87731  0.01487  1.0000
  C   C20       1.0  0.77610  0.98513  0.12269  1.0000
  C   C21       1.0  0.99943  0.52679  0.27248  1.0000
  C   C22       1.0  0.50057  0.72752  0.47321  1.0000
  C   C23       1.0  0.00057  0.47321  0.72752  1.0000
  C   C24       1.0  0.49943  0.27248  0.52679  1.0000
  C   C25       1.0  0.76409  0.55818  0.19141  1.0000
  C   C26       1.0  0.73592  0.80859  0.44181  1.0000
  C   C27       1.0  0.23592  0.44182  0.80859  1.0000
  C   C28       1.0  0.26409  0.19141  0.55818  1.0000
  C   C29       1.0  0.25584  0.22871  0.20039  1.0000
  C   C30       1.0  0.24416  0.79962  0.77129  1.0000
  C   C31       1.0  0.74416  0.77129  0.79962  1.0000
  C   C32       1.0  0.75584  0.20039  0.22871  1.0000
  C   C33       1.0  0.20849  0.13431  0.09366  1.0000
  C   C34       1.0  0.29151  0.90633  0.86569  1.0000
  C   C35       1.0  0.79151  0.86569  0.90634  1.0000
  C   C36       1.0  0.70849  0.09366  0.13431  1.0000
  C   C37       1.0  0.96963  0.51082  0.05978  1.0000
  C   C38       1.0  0.53037  0.94022  0.48918  1.0000
  C   C39       1.0  0.03037  0.48919  0.94022  1.0000
  C   C40       1.0  0.46963  0.05978  0.51081  1.0000
  C   C41       1.0  0.81722  0.53798  0.07788  1.0000
  C   C42       1.0  0.68278  0.92212  0.46202  1.0000
  C   C43       1.0  0.18278  0.46203  0.92212  1.0000
  C   C44       1.0  0.31722  0.07788  0.53797  1.0000
  C   C45       1.0  0.06090  0.50673  0.16147  1.0000
  C   C46       1.0  0.43910  0.83852  0.49327  1.0000
  C   C47       1.0  0.93910  0.49328  0.83852  1.0000
  C   C48       1.0  0.56090  0.16148  0.50672  1.0000
  N   N1        1.0  0.47369  0.20789  0.88070  1.0000
  N   N2        1.0  0.02630  0.11930  0.79211  1.0000
  N   N3        1.0  0.52630  0.79211  0.11930  1.0000
  N   N4        1.0  0.97370  0.88070  0.20790  1.0000
  N   N5        1.0  0.85237  0.55132  0.28745  1.0000
  N   N6        1.0  0.64763  0.71255  0.44868  1.0000
  N   N7        1.0  0.14763  0.44868  0.71255  1.0000
  N   N8        1.0  0.35237  0.28745  0.55132  1.0000
  O   O1        1.0  0.57859  0.44626  0.32384  1.0000
  O   O2        1.0  0.92141  0.67616  0.55374  1.0000
  O   O3        1.0  0.42140  0.55374  0.67616  1.0000
  O   O4        1.0  0.07860  0.32384  0.44626  1.0000
  O   O5        1.0  0.34540  0.44982  0.40000  1.0000
  O   O6        1.0  0.15460  0.60000  0.55018  1.0000
  O   O7        1.0  0.65459  0.55019  0.60001  1.0000
  O   O8        1.0  0.84541  0.39999  0.44981  1.0000
  O   O9        1.0  0.53096  0.30576  0.87440  1.0000
  O   O10       1.0  0.96903  0.12560  0.69424  1.0000
  O   O11       1.0  0.46903  0.69423  0.12559  1.0000
  O   O12       1.0  0.03097  0.87441  0.30577  1.0000
  O   O13       1.0  0.48142  0.10746  0.80289  1.0000
  O   O14       1.0  0.01858  0.19712  0.89254  1.0000
  O   O15       1.0  0.51857  0.89253  0.19712  1.0000
  O   O16       1.0  0.98143  0.80288  0.10746  1.0000
