data_image0
_chemical_formula_structural       Tb2H22C32N4O28
_chemical_formula_sum              "Tb2 H22 C32 N4 O28"
_cell_length_a       9.12165
_cell_length_b       10.037
_cell_length_c       12.8955
_cell_angle_alpha    69.3031
_cell_angle_beta     67.0009
_cell_angle_gamma    68.4801

_space_group_name_H-M_alt    "P 1"
_space_group_IT_number       1

loop_
  _space_group_symop_operation_xyz
  'x, y, z'

loop_
  _atom_site_type_symbol
  _atom_site_label
  _atom_site_symmetry_multiplicity
  _atom_site_fract_x
  _atom_site_fract_y
  _atom_site_fract_z
  _atom_site_occupancy
  Tb  Tb1       1.0  0.19938  0.52944  0.53313  1.0000
  Tb  Tb2       1.0  0.80061  0.47054  0.46687  1.0000
  H   H1        1.0  0.71361  0.86125  0.35907  1.0000
  H   H2        1.0  0.28637  0.13875  0.64094  1.0000
  H   H3        1.0  0.46248  0.32733  0.30768  1.0000
  H   H4        1.0  0.53751  0.67267  0.69232  1.0000
  H   H5        1.0  0.18318  0.00286  0.44996  1.0000
  H   H6        1.0  0.81680  0.99714  0.55004  1.0000
  H   H7        1.0  0.11473  0.91671  0.17781  1.0000
  H   H8        1.0  0.88528  0.08329  0.82218  1.0000
  H   H9        1.0  0.48704  0.98004  0.84589  1.0000
  H   H10       1.0  0.51298  0.01997  0.15410  1.0000
  H   H11       1.0  0.58915  0.59352  0.11853  1.0000
  H   H12       1.0  0.41088  0.40649  0.88147  1.0000
  H   H13       1.0  0.88378  0.78643  0.75508  1.0000
  H   H14       1.0  0.11623  0.21358  0.24490  1.0000
  H   H15       1.0  0.38644  0.47950  0.69369  1.0000
  H   H16       1.0  0.61356  0.52050  0.30631  1.0000
  H   H17       1.0  0.21683  0.59067  0.73914  1.0000
  H   H18       1.0  0.78317  0.40932  0.26086  1.0000
  H   H19       1.0  0.99287  0.31838  0.68950  1.0000
  H   H20       1.0  0.00712  0.68161  0.31050  1.0000
  H   H21       1.0  0.10268  0.31435  0.76528  1.0000
  H   H22       1.0  0.89731  0.68565  0.23472  1.0000
  C   C1        1.0  0.44701  0.91630  0.40926  1.0000
  C   C2        1.0  0.55297  0.08369  0.59074  1.0000
  C   C3        1.0  0.59935  0.94941  0.36432  1.0000
  C   C4        1.0  0.40063  0.05058  0.63569  1.0000
  C   C5        1.0  0.60086  0.09730  0.32555  1.0000
  C   C6        1.0  0.39913  0.90269  0.67446  1.0000
  C   C7        1.0  0.45682  0.21314  0.33438  1.0000
  C   C8        1.0  0.54317  0.78686  0.66562  1.0000
  C   C9        1.0  0.30572  0.17783  0.38109  1.0000
  C   C10       1.0  0.69427  0.82216  0.61892  1.0000
  C   C11       1.0  0.30097  0.03037  0.41525  1.0000
  C   C12       1.0  0.69903  0.96963  0.58476  1.0000
  C   C13       1.0  0.43919  0.75821  0.45495  1.0000
  C   C14       1.0  0.56080  0.24177  0.54505  1.0000
  C   C15       1.0  0.14574  0.29453  0.39976  1.0000
  C   C16       1.0  0.85425  0.70546  0.60024  1.0000
  C   C17       1.0  0.34730  0.74646  0.16247  1.0000
  C   C18       1.0  0.65271  0.25355  0.83752  1.0000
  C   C19       1.0  0.23702  0.87614  0.12119  1.0000
  C   C20       1.0  0.76299  0.12387  0.87881  1.0000
  C   C21       1.0  0.28940  0.95565  0.00687  1.0000
  C   C22       1.0  0.71061  0.04436  0.99313  1.0000
  C   C23       1.0  0.44846  0.91244  0.93340  1.0000
  C   C24       1.0  0.55156  0.08759  0.06660  1.0000
  C   C25       1.0  0.55545  0.78001  0.97449  1.0000
  C   C26       1.0  0.44457  0.22003  0.02551  1.0000
  C   C27       1.0  0.50433  0.69675  0.08832  1.0000
  C   C28       1.0  0.49569  0.30327  0.91168  1.0000
  C   C29       1.0  0.29679  0.66357  0.28648  1.0000
  C   C30       1.0  0.70322  0.33642  0.71351  1.0000
  C   C31       1.0  0.72264  0.72069  0.89702  1.0000
  C   C32       1.0  0.27737  0.27934  0.10298  1.0000
  N   N1        1.0  0.76046  0.13237  0.27932  1.0000
  N   N2        1.0  0.23953  0.86762  0.72068  1.0000
  N   N3        1.0  0.17306  0.09083  0.96269  1.0000
  N   N4        1.0  0.82695  0.90919  0.03731  1.0000
  O   O1        1.0  0.29863  0.73495  0.48924  1.0000
  O   O2        1.0  0.70137  0.26502  0.51076  1.0000
  O   O3        1.0  0.57335  0.65886  0.45795  1.0000
  O   O4        1.0  0.42665  0.34113  0.54205  1.0000
  O   O5        1.0  0.02835  0.28657  0.37375  1.0000
  O   O6        1.0  0.97165  0.71342  0.62625  1.0000
  O   O7        1.0  0.12577  0.39594  0.44562  1.0000
  O   O8        1.0  0.87420  0.60407  0.55438  1.0000
  O   O9        1.0  0.76519  0.25921  0.21768  1.0000
  O   O10       1.0  0.23480  0.74078  0.78232  1.0000
  O   O11       1.0  0.88063  0.03501  0.30499  1.0000
  O   O12       1.0  0.11937  0.96498  0.69501  1.0000
  O   O13       1.0  0.40246  0.55737  0.33022  1.0000
  O   O14       1.0  0.59756  0.44261  0.66977  1.0000
  O   O15       1.0  0.14730  0.70166  0.34919  1.0000
  O   O16       1.0  0.85271  0.29832  0.65080  1.0000
  O   O17       1.0  0.78859  0.58847  0.90631  1.0000
  O   O18       1.0  0.21142  0.41156  0.09370  1.0000
  O   O19       1.0  0.78777  0.82941  0.81636  1.0000
  O   O20       1.0  0.21224  0.17061  0.18364  1.0000
  O   O21       1.0  0.22932  0.16853  0.86435  1.0000
  O   O22       1.0  0.77068  0.83148  0.13565  1.0000
  O   O23       1.0  0.02758  0.12039  0.02303  1.0000
  O   O24       1.0  0.97243  0.87962  0.97698  1.0000
  O   O25       1.0  0.26621  0.50625  0.70380  1.0000
  O   O26       1.0  0.73380  0.49373  0.29620  1.0000
  O   O27       1.0  0.07903  0.35615  0.69053  1.0000
  O   O28       1.0  0.92095  0.64386  0.30947  1.0000
