data_image0
_chemical_formula_structural       Na4H8C4N20O12
_chemical_formula_sum              "Na4 H8 C4 N20 O12"
_cell_length_a       6.46547
_cell_length_b       6.46526
_cell_length_c       15.0608
_cell_angle_alpha    90.0011
_cell_angle_beta     90.0017
_cell_angle_gamma    95.0727

_space_group_name_H-M_alt    "P 1"
_space_group_IT_number       1

loop_
  _space_group_symop_operation_xyz
  'x, y, z'

loop_
  _atom_site_type_symbol
  _atom_site_label
  _atom_site_symmetry_multiplicity
  _atom_site_fract_x
  _atom_site_fract_y
  _atom_site_fract_z
  _atom_site_occupancy
  Na  Na1       1.0  0.58711  0.26743  0.53767  1.0000
  Na  Na2       1.0  0.26726  0.58728  0.46235  1.0000
  Na  Na3       1.0  0.26745  0.58712  0.03767  1.0000
  Na  Na4       1.0  0.58728  0.26724  0.96235  1.0000
  H   H1        1.0  0.61841  0.39600  0.36017  1.0000
  H   H2        1.0  0.39581  0.61865  0.63985  1.0000
  H   H3        1.0  0.39602  0.61841  0.86017  1.0000
  H   H4        1.0  0.61864  0.39580  0.13985  1.0000
  H   H5        1.0  0.43993  0.21665  0.35450  1.0000
  H   H6        1.0  0.21650  0.44014  0.64552  1.0000
  H   H7        1.0  0.21666  0.43993  0.85450  1.0000
  H   H8        1.0  0.44014  0.21648  0.14552  1.0000
  C   C1        1.0  0.91599  0.91620  0.49999  1.0000
  C   C2        1.0  0.91621  0.91599  0.99999  1.0000
  C   C3        1.0  0.72616  0.14818  0.75000  1.0000
  C   C4        1.0  0.14814  0.72617  0.25000  1.0000
  N   N1        1.0  0.07942  0.07964  0.50000  1.0000
  N   N2        1.0  0.07965  0.07941  0.99999  1.0000
  N   N3        1.0  0.71789  0.94648  0.48276  1.0000
  N   N4        1.0  0.94631  0.71809  0.51722  1.0000
  N   N5        1.0  0.94649  0.71787  0.98275  1.0000
  N   N6        1.0  0.71810  0.94629  0.01722  1.0000
  N   N7        1.0  0.62040  0.75778  0.48967  1.0000
  N   N8        1.0  0.75762  0.62057  0.51031  1.0000
  N   N9        1.0  0.75779  0.62038  0.98966  1.0000
  N   N10       1.0  0.62059  0.75760  0.01031  1.0000
  N   N11       1.0  0.81943  0.22212  0.67550  1.0000
  N   N12       1.0  0.22196  0.81953  0.32450  1.0000
  N   N13       1.0  0.22209  0.81943  0.17550  1.0000
  N   N14       1.0  0.81954  0.22199  0.82450  1.0000
  N   N15       1.0  0.55365  0.99203  0.75000  1.0000
  N   N16       1.0  0.99198  0.55367  0.25000  1.0000
  N   N17       1.0  0.97958  0.34595  0.70537  1.0000
  N   N18       1.0  0.34585  0.97964  0.29463  1.0000
  N   N19       1.0  0.34593  0.97958  0.20537  1.0000
  N   N20       1.0  0.97965  0.34587  0.79463  1.0000
  O   O1        1.0  0.25626  0.03450  0.52062  1.0000
  O   O2        1.0  0.03434  0.25647  0.47940  1.0000
  O   O3        1.0  0.03451  0.25628  0.02061  1.0000
  O   O4        1.0  0.25645  0.03433  0.97939  1.0000
  O   O5        1.0  0.48064  0.35218  0.38378  1.0000
  O   O6        1.0  0.35200  0.48086  0.61623  1.0000
  O   O7        1.0  0.35220  0.48063  0.88377  1.0000
  O   O8        1.0  0.48087  0.35200  0.11623  1.0000
  O   O9        1.0  0.48605  0.92771  0.67674  1.0000
  O   O10       1.0  0.92744  0.48628  0.32324  1.0000
  O   O11       1.0  0.92763  0.48611  0.17674  1.0000
  O   O12       1.0  0.48629  0.92747  0.82324  1.0000
