data_image0
_chemical_formula_structural       Cd4H32C56N32O24
_chemical_formula_sum              "Cd4 H32 C56 N32 O24"
_cell_length_a       9.364
_cell_length_b       14.9741
_cell_length_c       19.1675
_cell_angle_alpha    90
_cell_angle_beta     90
_cell_angle_gamma    90

_space_group_name_H-M_alt    "P 1"
_space_group_IT_number       1

loop_
  _space_group_symop_operation_xyz
  'x, y, z'

loop_
  _atom_site_type_symbol
  _atom_site_label
  _atom_site_symmetry_multiplicity
  _atom_site_fract_x
  _atom_site_fract_y
  _atom_site_fract_z
  _atom_site_occupancy
  Cd  Cd1       1.0  0.82160  0.00000  0.75000  1.0000
  Cd  Cd2       1.0  0.67840  0.50000  0.25000  1.0000
  Cd  Cd3       1.0  0.17840  0.00000  0.25000  1.0000
  Cd  Cd4       1.0  0.32161  0.50000  0.75000  1.0000
  H   H1        1.0  0.11456  0.30357  0.74050  1.0000
  H   H2        1.0  0.38544  0.19643  0.24050  1.0000
  H   H3        1.0  0.38544  0.80357  0.25950  1.0000
  H   H4        1.0  0.11456  0.69643  0.75950  1.0000
  H   H5        1.0  0.88544  0.69643  0.25950  1.0000
  H   H6        1.0  0.61456  0.80357  0.75950  1.0000
  H   H7        1.0  0.61456  0.19643  0.74050  1.0000
  H   H8        1.0  0.88544  0.30357  0.24050  1.0000
  H   H9        1.0  0.94506  0.11048  0.60207  1.0000
  H   H10       1.0  0.55494  0.38952  0.10207  1.0000
  H   H11       1.0  0.55494  0.61048  0.39793  1.0000
  H   H12       1.0  0.94506  0.88952  0.89793  1.0000
  H   H13       1.0  0.05494  0.88952  0.39793  1.0000
  H   H14       1.0  0.44506  0.61048  0.89793  1.0000
  H   H15       1.0  0.44506  0.38952  0.60207  1.0000
  H   H16       1.0  0.05494  0.11048  0.10207  1.0000
  H   H17       1.0  0.16212  0.30088  0.58999  1.0000
  H   H18       1.0  0.33788  0.19912  0.08999  1.0000
  H   H19       1.0  0.33788  0.80088  0.41001  1.0000
  H   H20       1.0  0.16212  0.69912  0.91001  1.0000
  H   H21       1.0  0.83788  0.69912  0.41001  1.0000
  H   H22       1.0  0.66212  0.80088  0.91001  1.0000
  H   H23       1.0  0.66212  0.19912  0.58999  1.0000
  H   H24       1.0  0.83788  0.30088  0.08999  1.0000
  H   H25       1.0  0.83218  0.38126  0.46352  1.0000
  H   H26       1.0  0.66782  0.11874  0.96352  1.0000
  H   H27       1.0  0.66782  0.88126  0.53648  1.0000
  H   H28       1.0  0.83218  0.61874  0.03648  1.0000
  H   H29       1.0  0.16782  0.61874  0.53648  1.0000
  H   H30       1.0  0.33218  0.88126  0.03648  1.0000
  H   H31       1.0  0.33218  0.11874  0.46352  1.0000
  H   H32       1.0  0.16782  0.38126  0.96352  1.0000
  C   C1        1.0  0.06628  0.24210  0.72219  1.0000
  C   C2        1.0  0.43372  0.25790  0.22219  1.0000
  C   C3        1.0  0.43372  0.74210  0.27781  1.0000
  C   C4        1.0  0.06628  0.75790  0.77781  1.0000
  C   C5        1.0  0.93372  0.75790  0.27781  1.0000
  C   C6        1.0  0.56628  0.74210  0.77781  1.0000
  C   C7        1.0  0.56629  0.25790  0.72219  1.0000
  C   C8        1.0  0.93371  0.24210  0.22219  1.0000
  C   C9        1.0  0.97785  0.14352  0.64978  1.0000
  C   C10       1.0  0.52215  0.35648  0.14978  1.0000
  C   C11       1.0  0.52215  0.64352  0.35022  1.0000
  C   C12       1.0  0.97785  0.85648  0.85022  1.0000
  C   C13       1.0  0.02215  0.85648  0.35022  1.0000
  C   C14       1.0  0.47785  0.64352  0.85022  1.0000
  C   C15       1.0  0.47785  0.35648  0.64978  1.0000
  C   C16       1.0  0.02215  0.14352  0.14978  1.0000
  C   C17       1.0  0.98178  0.42415  0.54258  1.0000
  C   C18       1.0  0.51822  0.07585  0.04258  1.0000
  C   C19       1.0  0.51822  0.92415  0.45742  1.0000
  C   C20       1.0  0.98178  0.57585  0.95742  1.0000
  C   C21       1.0  0.01823  0.57585  0.45742  1.0000
  C   C22       1.0  0.48178  0.92415  0.95742  1.0000
  C   C23       1.0  0.48177  0.07585  0.54258  1.0000
  C   C24       1.0  0.01823  0.42415  0.04258  1.0000
  C   C25       1.0  0.94782  0.34290  0.58547  1.0000
  C   C26       1.0  0.55218  0.15710  0.08547  1.0000
  C   C27       1.0  0.55218  0.84290  0.41453  1.0000
  C   C28       1.0  0.94782  0.65710  0.91453  1.0000
  C   C29       1.0  0.05218  0.65710  0.41453  1.0000
  C   C30       1.0  0.44782  0.84290  0.91453  1.0000
  C   C31       1.0  0.44782  0.15710  0.58547  1.0000
  C   C32       1.0  0.05219  0.34290  0.08547  1.0000
  C   C33       1.0  0.07652  0.49245  0.56324  1.0000
  C   C34       1.0  0.42349  0.00755  0.06324  1.0000
  C   C35       1.0  0.42348  0.99245  0.43676  1.0000
  C   C36       1.0  0.07652  0.50755  0.93676  1.0000
  C   C37       1.0  0.92349  0.50755  0.43676  1.0000
  C   C38       1.0  0.57651  0.99245  0.93676  1.0000
  C   C39       1.0  0.57651  0.00755  0.56324  1.0000
  C   C40       1.0  0.92349  0.49245  0.06324  1.0000
  C   C41       1.0  0.15602  0.49082  0.63152  1.0000
  C   C42       1.0  0.34398  0.00918  0.13152  1.0000
  C   C43       1.0  0.34398  0.99082  0.36848  1.0000
  C   C44       1.0  0.15601  0.50918  0.86848  1.0000
  C   C45       1.0  0.84398  0.50918  0.36848  1.0000
  C   C46       1.0  0.65602  0.99082  0.86848  1.0000
  C   C47       1.0  0.65602  0.00918  0.63152  1.0000
  C   C48       1.0  0.84398  0.49082  0.13152  1.0000
  C   C49       1.0  0.90628  0.43314  0.48011  1.0000
  C   C50       1.0  0.59373  0.06686  0.98011  1.0000
  C   C51       1.0  0.59372  0.93314  0.51989  1.0000
  C   C52       1.0  0.90627  0.56686  0.01989  1.0000
  C   C53       1.0  0.09373  0.56686  0.51989  1.0000
  C   C54       1.0  0.40627  0.93314  0.01989  1.0000
  C   C55       1.0  0.40627  0.06686  0.48011  1.0000
  C   C56       1.0  0.09373  0.43314  0.98011  1.0000
  N   N1        1.0  0.02275  0.17425  0.75997  1.0000
  N   N2        1.0  0.47725  0.32575  0.25997  1.0000
  N   N3        1.0  0.47725  0.67425  0.24003  1.0000
  N   N4        1.0  0.02275  0.82576  0.74003  1.0000
  N   N5        1.0  0.97725  0.82576  0.24003  1.0000
  N   N6        1.0  0.52275  0.67424  0.74003  1.0000
  N   N7        1.0  0.52275  0.32575  0.75997  1.0000
  N   N8        1.0  0.97725  0.17425  0.25997  1.0000
  N   N9        1.0  0.96598  0.11258  0.71388  1.0000
  N   N10       1.0  0.53402  0.38742  0.21388  1.0000
  N   N11       1.0  0.53402  0.61258  0.28612  1.0000
  N   N12       1.0  0.96598  0.88742  0.78612  1.0000
  N   N13       1.0  0.03402  0.88742  0.28612  1.0000
  N   N14       1.0  0.46598  0.61258  0.78612  1.0000
  N   N15       1.0  0.46598  0.38742  0.71388  1.0000
  N   N16       1.0  0.03402  0.11258  0.21388  1.0000
  N   N17       1.0  0.04063  0.22509  0.65266  1.0000
  N   N18       1.0  0.45938  0.27491  0.15266  1.0000
  N   N19       1.0  0.45938  0.72509  0.34734  1.0000
  N   N20       1.0  0.04063  0.77491  0.84734  1.0000
  N   N21       1.0  0.95937  0.77491  0.34734  1.0000
  N   N22       1.0  0.54062  0.72509  0.84734  1.0000
  N   N23       1.0  0.54062  0.27491  0.65266  1.0000
  N   N24       1.0  0.95938  0.22509  0.15266  1.0000
  N   N25       1.0  0.05845  0.28275  0.59714  1.0000
  N   N26       1.0  0.44155  0.21725  0.09714  1.0000
  N   N27       1.0  0.44155  0.78275  0.40286  1.0000
  N   N28       1.0  0.05845  0.71725  0.90286  1.0000
  N   N29       1.0  0.94155  0.71725  0.40286  1.0000
  N   N30       1.0  0.55845  0.78275  0.90286  1.0000
  N   N31       1.0  0.55845  0.21725  0.59714  1.0000
  N   N32       1.0  0.94155  0.28275  0.09714  1.0000
  O   O1        1.0  0.82500  0.32551  0.60385  1.0000
  O   O2        1.0  0.67500  0.17449  0.10385  1.0000
  O   O3        1.0  0.67500  0.82551  0.39615  1.0000
  O   O4        1.0  0.82500  0.67449  0.89615  1.0000
  O   O5        1.0  0.17500  0.67449  0.39615  1.0000
  O   O6        1.0  0.32500  0.82551  0.89615  1.0000
  O   O7        1.0  0.32500  0.17449  0.60385  1.0000
  O   O8        1.0  0.17500  0.32551  0.10385  1.0000
  O   O9        1.0  0.12088  0.43394  0.67750  1.0000
  O   O10       1.0  0.37912  0.06606  0.17750  1.0000
  O   O11       1.0  0.37912  0.93394  0.32250  1.0000
  O   O12       1.0  0.12088  0.56606  0.82250  1.0000
  O   O13       1.0  0.87912  0.56606  0.32250  1.0000
  O   O14       1.0  0.62088  0.93394  0.82250  1.0000
  O   O15       1.0  0.62088  0.06606  0.67750  1.0000
  O   O16       1.0  0.87912  0.43394  0.17750  1.0000
  O   O17       1.0  0.25699  0.54742  0.63956  1.0000
  O   O18       1.0  0.24301  0.95258  0.13956  1.0000
  O   O19       1.0  0.24301  0.04742  0.36045  1.0000
  O   O20       1.0  0.25699  0.45258  0.86044  1.0000
  O   O21       1.0  0.74301  0.45258  0.36044  1.0000
  O   O22       1.0  0.75699  0.04742  0.86044  1.0000
  O   O23       1.0  0.75699  0.95258  0.63956  1.0000
  O   O24       1.0  0.74301  0.54742  0.13956  1.0000
