data_image0
_chemical_formula_structural       Gd4H28C36S6O32
_chemical_formula_sum              "Gd4 H28 C36 S6 O32"
_cell_length_a       5.814
_cell_length_b       12.9102
_cell_length_c       15.7553
_cell_angle_alpha    81.6
_cell_angle_beta     79.3961
_cell_angle_gamma    76.9947

_space_group_name_H-M_alt    "P 1"
_space_group_IT_number       1

loop_
  _space_group_symop_operation_xyz
  'x, y, z'

loop_
  _atom_site_type_symbol
  _atom_site_label
  _atom_site_symmetry_multiplicity
  _atom_site_fract_x
  _atom_site_fract_y
  _atom_site_fract_z
  _atom_site_occupancy
  Gd  Gd1       1.0  0.52800  0.15239  0.11011  1.0000
  Gd  Gd2       1.0  0.79081  0.34776  0.38994  1.0000
  Gd  Gd3       1.0  0.47200  0.84762  0.88989  1.0000
  Gd  Gd4       1.0  0.20919  0.65224  0.61006  1.0000
  H   H1        1.0  0.36894  0.51080  0.81339  1.0000
  H   H2        1.0  0.69315  0.98869  0.68661  1.0000
  H   H3        1.0  0.63105  0.48921  0.18662  1.0000
  H   H4        1.0  0.30684  0.01131  0.31339  1.0000
  H   H5        1.0  0.44577  0.32455  0.91253  1.0000
  H   H6        1.0  0.68355  0.17493  0.58757  1.0000
  H   H7        1.0  0.55423  0.67546  0.08747  1.0000
  H   H8        1.0  0.31645  0.82507  0.41242  1.0000
  H   H9        1.0  0.25806  0.84703  0.20579  1.0000
  H   H10       1.0  0.31080  0.65309  0.29424  1.0000
  H   H11       1.0  0.74193  0.15297  0.79422  1.0000
  H   H12       1.0  0.68920  0.34691  0.70576  1.0000
  H   H13       1.0  0.82901  0.04373  0.94498  1.0000
  H   H14       1.0  0.81775  0.45641  0.55525  1.0000
  H   H15       1.0  0.17100  0.95628  0.05502  1.0000
  H   H16       1.0  0.18225  0.54359  0.44476  1.0000
  H   H17       1.0  0.55813  0.08097  0.93500  1.0000
  H   H18       1.0  0.57430  0.41907  0.56496  1.0000
  H   H19       1.0  0.44187  0.91903  0.06500  1.0000
  H   H20       1.0  0.42569  0.58093  0.43504  1.0000
  H   H21       1.0  0.07837  0.18582  0.23292  1.0000
  H   H22       1.0  0.49743  0.31413  0.26709  1.0000
  H   H23       1.0  0.92163  0.81418  0.76708  1.0000
  H   H24       1.0  0.50257  0.68587  0.73291  1.0000
  H   H25       1.0  0.06103  0.08905  0.18248  1.0000
  H   H26       1.0  0.33273  0.41089  0.31745  1.0000
  H   H27       1.0  0.93897  0.91095  0.81752  1.0000
  H   H28       1.0  0.66726  0.58911  0.68255  1.0000
  C   C1        1.0  0.99080  0.52221  0.86331  1.0000
  C   C2        1.0  0.37572  0.97771  0.63679  1.0000
  C   C3        1.0  0.00920  0.47778  0.13669  1.0000
  C   C4        1.0  0.62428  0.02229  0.36321  1.0000
  C   C5        1.0  0.23166  0.47392  0.85520  1.0000
  C   C6        1.0  0.56069  0.02574  0.64488  1.0000
  C   C7        1.0  0.76834  0.52607  0.14480  1.0000
  C   C8        1.0  0.43931  0.97426  0.35512  1.0000
  C   C9        1.0  0.27124  0.37575  0.90779  1.0000
  C   C10       1.0  0.55505  0.12395  0.59234  1.0000
  C   C11       1.0  0.72876  0.62425  0.09221  1.0000
  C   C12       1.0  0.44496  0.87605  0.40765  1.0000
  C   C13       1.0  0.06095  0.34995  0.95459  1.0000
  C   C14       1.0  0.36554  0.15002  0.54557  1.0000
  C   C15       1.0  0.93905  0.65005  0.04541  1.0000
  C   C16       1.0  0.63447  0.84997  0.45442  1.0000
  C   C17       1.0  0.03462  0.25324  0.01499  1.0000
  C   C18       1.0  0.30330  0.24677  0.48517  1.0000
  C   C19       1.0  0.96539  0.74675  0.98501  1.0000
  C   C20       1.0  0.69670  0.75323  0.51483  1.0000
  C   C21       1.0  0.87981  0.62775  0.82325  1.0000
  C   C22       1.0  0.33025  0.87217  0.67676  1.0000
  C   C23       1.0  0.12019  0.37225  0.17675  1.0000
  C   C24       1.0  0.66975  0.12783  0.32324  1.0000
  C   C25       1.0  0.88620  0.83887  0.20806  1.0000
  C   C26       1.0  0.93299  0.66130  0.29195  1.0000
  C   C27       1.0  0.11379  0.16113  0.79194  1.0000
  C   C28       1.0  0.06702  0.33870  0.70804  1.0000
  C   C29       1.0  0.11818  0.80103  0.22627  1.0000
  C   C30       1.0  0.14536  0.69911  0.27376  1.0000
  C   C31       1.0  0.88183  0.19898  0.77373  1.0000
  C   C32       1.0  0.85464  0.30089  0.72624  1.0000
  C   C33       1.0  0.78312  0.94014  0.16107  1.0000
  C   C34       1.0  0.88410  0.56003  0.33887  1.0000
  C   C35       1.0  0.21688  0.05986  0.83893  1.0000
  C   C36       1.0  0.11590  0.43997  0.66112  1.0000
  S   S1        1.0  0.81568  0.44781  0.93600  1.0000
  S   S2        1.0  0.19896  0.05238  0.56411  1.0000
  S   S3        1.0  0.18431  0.55219  0.06400  1.0000
  S   S4        1.0  0.80105  0.94762  0.43588  1.0000
  S   S5        1.0  0.70592  0.75011  0.24999  1.0000
  S   S6        1.0  0.29408  0.24989  0.75001  1.0000
  O   O1        1.0  0.82484  0.24565  0.05327  1.0000
  O   O2        1.0  0.12409  0.25460  0.44686  1.0000
  O   O3        1.0  0.17515  0.75435  0.94673  1.0000
  O   O4        1.0  0.87590  0.74540  0.55314  1.0000
  O   O5        1.0  0.22397  0.18326  0.02535  1.0000
  O   O6        1.0  0.43357  0.31658  0.47481  1.0000
  O   O7        1.0  0.77603  0.81673  0.97465  1.0000
  O   O8        1.0  0.56643  0.68342  0.52519  1.0000
  O   O9        1.0  0.68276  0.67503  0.86364  1.0000
  O   O10       1.0  0.22077  0.82489  0.63633  1.0000
  O   O11       1.0  0.31724  0.32497  0.13636  1.0000
  O   O12       1.0  0.77922  0.17511  0.36367  1.0000
  O   O13       1.0  0.98448  0.66766  0.75101  1.0000
  O   O14       1.0  0.40295  0.83217  0.74897  1.0000
  O   O15       1.0  0.01552  0.33233  0.24899  1.0000
  O   O16       1.0  0.59705  0.16783  0.25103  1.0000
  O   O17       1.0  0.56270  0.95851  0.15143  1.0000
  O   O18       1.0  0.67243  0.54169  0.34850  1.0000
  O   O19       1.0  0.43730  0.04149  0.84857  1.0000
  O   O20       1.0  0.32758  0.45831  0.65150  1.0000
  O   O21       1.0  0.90880  0.01171  0.13156  1.0000
  O   O22       1.0  0.05184  0.48838  0.36838  1.0000
  O   O23       1.0  0.09121  0.98829  0.86844  1.0000
  O   O24       1.0  0.94817  0.51162  0.63161  1.0000
  O   O25       1.0  0.67488  0.08444  0.97210  1.0000
  O   O26       1.0  0.73157  0.41577  0.52794  1.0000
  O   O27       1.0  0.32511  0.91556  0.02790  1.0000
  O   O28       1.0  0.26843  0.58423  0.47206  1.0000
  O   O29       1.0  0.16958  0.11993  0.20803  1.0000
  O   O30       1.0  0.49771  0.38006  0.29200  1.0000
  O   O31       1.0  0.83041  0.88007  0.79197  1.0000
  O   O32       1.0  0.50229  0.61994  0.70800  1.0000
