data_image0
_chemical_formula_structural       In2H14C8O10
_chemical_formula_sum              "In2 H14 C8 O10"
_cell_length_a       6.50792
_cell_length_b       7.35644
_cell_length_c       8.15593
_cell_angle_alpha    90.0026
_cell_angle_beta     113.462
_cell_angle_gamma    90.002

_space_group_name_H-M_alt    "P 1"
_space_group_IT_number       1

loop_
  _space_group_symop_operation_xyz
  'x, y, z'

loop_
  _atom_site_type_symbol
  _atom_site_label
  _atom_site_symmetry_multiplicity
  _atom_site_fract_x
  _atom_site_fract_y
  _atom_site_fract_z
  _atom_site_occupancy
  In  In1       1.0  0.00004  0.49995  0.00001  1.0000
  In  In2       1.0  0.99995  0.99995  0.99997  1.0000
  H   H1        1.0  0.31188  0.25002  0.00087  1.0000
  H   H2        1.0  0.68812  0.74998  0.99915  1.0000
  H   H3        1.0  0.65668  0.87230  0.49843  1.0000
  H   H4        1.0  0.34332  0.37223  0.50161  1.0000
  H   H5        1.0  0.15766  0.62774  0.50099  1.0000
  H   H6        1.0  0.84233  0.12781  0.49900  1.0000
  H   H7        1.0  0.34324  0.12781  0.50153  1.0000
  H   H8        1.0  0.65678  0.62789  0.49845  1.0000
  H   H9        1.0  0.84231  0.37225  0.49897  1.0000
  H   H10       1.0  0.15769  0.87218  0.50104  1.0000
  H   H11       1.0  0.75593  0.75016  0.35641  1.0000
  H   H12       1.0  0.24408  0.25004  0.64359  1.0000
  H   H13       1.0  0.39918  0.74999  0.64213  1.0000
  H   H14       1.0  0.60082  0.24997  0.35787  1.0000
  C   C1        1.0  0.40211  0.75004  0.26673  1.0000
  C   C2        1.0  0.59789  0.24997  0.73327  1.0000
  C   C3        1.0  0.13622  0.74996  0.73343  1.0000
  C   C4        1.0  0.86379  0.24998  0.26656  1.0000
  C   C5        1.0  0.63145  0.75012  0.41629  1.0000
  C   C6        1.0  0.36855  0.25000  0.58372  1.0000
  C   C7        1.0  0.21493  0.75000  0.58313  1.0000
  C   C8        1.0  0.78507  0.24998  0.41687  1.0000
  O   O1        1.0  0.16227  0.24994  0.99970  1.0000
  O   O2        1.0  0.83770  0.74992  0.00027  1.0000
  O   O3        1.0  0.31531  0.59517  0.20849  1.0000
  O   O4        1.0  0.68468  0.09510  0.79152  1.0000
  O   O5        1.0  0.10791  0.90484  0.79192  1.0000
  O   O6        1.0  0.89205  0.40483  0.20806  1.0000
  O   O7        1.0  0.68471  0.40482  0.79158  1.0000
  O   O8        1.0  0.31529  0.90488  0.20841  1.0000
  O   O9        1.0  0.89191  0.09509  0.20802  1.0000
  O   O10       1.0  0.10814  0.59509  0.79202  1.0000
