data_image0
_chemical_formula_structural       Ca4H24C28N4O22
_chemical_formula_sum              "Ca4 H24 C28 N4 O22"
_cell_length_a       8.36771
_cell_length_b       8.36769
_cell_length_c       13.5574
_cell_angle_alpha    88.1667
_cell_angle_beta     88.1664
_cell_angle_gamma    71.9573

_space_group_name_H-M_alt    "P 1"
_space_group_IT_number       1

loop_
  _space_group_symop_operation_xyz
  'x, y, z'

loop_
  _atom_site_type_symbol
  _atom_site_label
  _atom_site_symmetry_multiplicity
  _atom_site_fract_x
  _atom_site_fract_y
  _atom_site_fract_z
  _atom_site_occupancy
  Ca  Ca1       1.0  0.06053  0.04269  0.12957  1.0000
  Ca  Ca2       1.0  0.95731  0.93947  0.37043  1.0000
  Ca  Ca3       1.0  0.93947  0.95731  0.87043  1.0000
  Ca  Ca4       1.0  0.04269  0.06053  0.62957  1.0000
  H   H1        1.0  0.00231  0.33060  0.99664  1.0000
  H   H2        1.0  0.66940  0.99769  0.50336  1.0000
  H   H3        1.0  0.99769  0.66939  0.00336  1.0000
  H   H4        1.0  0.33061  0.00231  0.49664  1.0000
  H   H5        1.0  0.08660  0.39749  0.08412  1.0000
  H   H6        1.0  0.60251  0.91340  0.41588  1.0000
  H   H7        1.0  0.91340  0.60251  0.91588  1.0000
  H   H8        1.0  0.39749  0.08660  0.58412  1.0000
  H   H9        1.0  0.73545  0.18396  0.20644  1.0000
  H   H10       1.0  0.81603  0.26455  0.29356  1.0000
  H   H11       1.0  0.26455  0.81603  0.79356  1.0000
  H   H12       1.0  0.18397  0.73545  0.70644  1.0000
  H   H13       1.0  0.64517  0.59631  0.98586  1.0000
  H   H14       1.0  0.40369  0.35482  0.51415  1.0000
  H   H15       1.0  0.35483  0.40369  0.01415  1.0000
  H   H16       1.0  0.59631  0.64517  0.48585  1.0000
  H   H17       1.0  0.79426  0.51874  0.14656  1.0000
  H   H18       1.0  0.48126  0.20574  0.35344  1.0000
  H   H19       1.0  0.20574  0.48126  0.85344  1.0000
  H   H20       1.0  0.51874  0.79426  0.64656  1.0000
  H   H21       1.0  0.65971  0.66926  0.29923  1.0000
  H   H22       1.0  0.33075  0.34029  0.20077  1.0000
  H   H23       1.0  0.34029  0.33075  0.70077  1.0000
  H   H24       1.0  0.66925  0.65971  0.79923  1.0000
  C   C1        1.0  0.43483  0.78341  0.05274  1.0000
  C   C2        1.0  0.21659  0.56517  0.44726  1.0000
  C   C3        1.0  0.56517  0.21659  0.94726  1.0000
  C   C4        1.0  0.78341  0.43483  0.55274  1.0000
  C   C5        1.0  0.59179  0.65970  0.05366  1.0000
  C   C6        1.0  0.34030  0.40821  0.44634  1.0000
  C   C7        1.0  0.40821  0.34030  0.94634  1.0000
  C   C8        1.0  0.65970  0.59179  0.55366  1.0000
  C   C9        1.0  0.67407  0.61804  0.14309  1.0000
  C   C10       1.0  0.38197  0.32592  0.35691  1.0000
  C   C11       1.0  0.32592  0.38197  0.85691  1.0000
  C   C12       1.0  0.61803  0.67408  0.64309  1.0000
  C   C13       1.0  0.59995  0.70265  0.22808  1.0000
  C   C14       1.0  0.29736  0.40005  0.27192  1.0000
  C   C15       1.0  0.40005  0.29735  0.77192  1.0000
  C   C16       1.0  0.70265  0.59995  0.72808  1.0000
  C   C17       1.0  0.44288  0.82487  0.22051  1.0000
  C   C18       1.0  0.17513  0.55711  0.27949  1.0000
  C   C19       1.0  0.55712  0.17513  0.77948  1.0000
  C   C20       1.0  0.82487  0.44289  0.72051  1.0000
  C   C21       1.0  0.33167  0.83083  0.96053  1.0000
  C   C22       1.0  0.16917  0.66833  0.53947  1.0000
  C   C23       1.0  0.66833  0.16917  0.03947  1.0000
  C   C24       1.0  0.83083  0.33167  0.46053  1.0000
  C   C25       1.0  0.34517  0.91528  0.30871  1.0000
  C   C26       1.0  0.08472  0.65483  0.19129  1.0000
  C   C27       1.0  0.65483  0.08472  0.69129  1.0000
  C   C28       1.0  0.91528  0.34517  0.80871  1.0000
  N   N1        1.0  0.36196  0.86253  0.13471  1.0000
  N   N2        1.0  0.13747  0.63804  0.36529  1.0000
  N   N3        1.0  0.63804  0.13747  0.86529  1.0000
  N   N4        1.0  0.86253  0.36196  0.63471  1.0000
  O   O1        1.0  0.05683  0.29858  0.06180  1.0000
  O   O2        1.0  0.70142  0.94316  0.43820  1.0000
  O   O3        1.0  0.94317  0.70142  0.93820  1.0000
  O   O4        1.0  0.29858  0.05683  0.56180  1.0000
  O   O5        1.0  0.83666  0.16334  0.25000  1.0000
  O   O6        1.0  0.16334  0.83666  0.75000  1.0000
  O   O7        1.0  0.17616  0.91644  0.97391  1.0000
  O   O8        1.0  0.08356  0.82383  0.52609  1.0000
  O   O9        1.0  0.82384  0.08356  0.02609  1.0000
  O   O10       1.0  0.91644  0.17616  0.47391  1.0000
  O   O11       1.0  0.40247  0.78239  0.87868  1.0000
  O   O12       1.0  0.21761  0.59754  0.62132  1.0000
  O   O13       1.0  0.59753  0.21761  0.12132  1.0000
  O   O14       1.0  0.78239  0.40246  0.37868  1.0000
  O   O15       1.0  0.19329  0.00485  0.29434  1.0000
  O   O16       1.0  0.99516  0.80671  0.20566  1.0000
  O   O17       1.0  0.80670  0.99516  0.70566  1.0000
  O   O18       1.0  0.00484  0.19329  0.79434  1.0000
  O   O19       1.0  0.41560  0.89382  0.39162  1.0000
  O   O20       1.0  0.10618  0.58440  0.10838  1.0000
  O   O21       1.0  0.58440  0.10618  0.60838  1.0000
  O   O22       1.0  0.89382  0.41560  0.89162  1.0000
