data_image0
_chemical_formula_structural       Zn4H24C12O12
_chemical_formula_sum              "Zn4 H24 C12 O12"
_cell_length_a       6.42899
_cell_length_b       8.04137
_cell_length_c       8.67575
_cell_angle_alpha    93.7352
_cell_angle_beta     90
_cell_angle_gamma    89.9999

_space_group_name_H-M_alt    "P 1"
_space_group_IT_number       1

loop_
  _space_group_symop_operation_xyz
  'x, y, z'

loop_
  _atom_site_type_symbol
  _atom_site_label
  _atom_site_symmetry_multiplicity
  _atom_site_fract_x
  _atom_site_fract_y
  _atom_site_fract_z
  _atom_site_occupancy
  Zn  Zn1       1.0  0.92464  0.55256  0.83735  1.0000
  Zn  Zn2       1.0  0.42464  0.44744  0.66265  1.0000
  Zn  Zn3       1.0  0.07536  0.44744  0.16265  1.0000
  Zn  Zn4       1.0  0.57536  0.55256  0.33735  1.0000
  H   H1        1.0  0.84330  0.13617  0.03555  1.0000
  H   H2        1.0  0.34330  0.86383  0.46445  1.0000
  H   H3        1.0  0.15670  0.86382  0.96445  1.0000
  H   H4        1.0  0.65670  0.13617  0.53555  1.0000
  H   H5        1.0  0.88406  0.13022  0.83182  1.0000
  H   H6        1.0  0.38406  0.86978  0.66818  1.0000
  H   H7        1.0  0.11594  0.86978  0.16818  1.0000
  H   H8        1.0  0.61594  0.13022  0.33182  1.0000
  H   H9        1.0  0.58975  0.36053  0.02411  1.0000
  H   H10       1.0  0.08975  0.63948  0.47589  1.0000
  H   H11       1.0  0.41025  0.63947  0.97589  1.0000
  H   H12       1.0  0.91025  0.36053  0.52411  1.0000
  H   H13       1.0  0.42109  0.10292  0.95516  1.0000
  H   H14       1.0  0.92108  0.89709  0.54484  1.0000
  H   H15       1.0  0.57891  0.89708  0.04484  1.0000
  H   H16       1.0  0.07891  0.10291  0.45516  1.0000
  H   H17       1.0  0.55424  0.07610  0.77435  1.0000
  H   H18       1.0  0.05424  0.92389  0.72565  1.0000
  H   H19       1.0  0.44576  0.92389  0.22565  1.0000
  H   H20       1.0  0.94576  0.07610  0.27435  1.0000
  H   H21       1.0  0.19239  0.27636  0.85562  1.0000
  H   H22       1.0  0.69238  0.72364  0.64438  1.0000
  H   H23       1.0  0.80761  0.72364  0.14438  1.0000
  H   H24       1.0  0.30761  0.27636  0.35562  1.0000
  C   C1        1.0  0.85161  0.21360  0.93522  1.0000
  C   C2        1.0  0.35161  0.78640  0.56478  1.0000
  C   C3        1.0  0.14839  0.78640  0.06478  1.0000
  C   C4        1.0  0.64839  0.21360  0.43522  1.0000
  C   C5        1.0  0.64182  0.29938  0.91254  1.0000
  C   C6        1.0  0.14182  0.70062  0.58746  1.0000
  C   C7        1.0  0.35818  0.70062  0.08746  1.0000
  C   C8        1.0  0.85818  0.29938  0.41254  1.0000
  C   C9        1.0  0.48001  0.16822  0.85646  1.0000
  C   C10       1.0  0.98001  0.83178  0.64353  1.0000
  C   C11       1.0  0.51999  0.83178  0.14354  1.0000
  C   C12       1.0  0.01999  0.16822  0.35646  1.0000
  O   O1        1.0  0.01638  0.33199  0.95295  1.0000
  O   O2        1.0  0.51637  0.66802  0.54705  1.0000
  O   O3        1.0  0.98363  0.66802  0.04705  1.0000
  O   O4        1.0  0.48363  0.33198  0.45295  1.0000
  O   O5        1.0  0.66510  0.42194  0.80278  1.0000
  O   O6        1.0  0.16510  0.57807  0.69722  1.0000
  O   O7        1.0  0.33490  0.57807  0.19723  1.0000
  O   O8        1.0  0.83490  0.42193  0.30278  1.0000
  O   O9        1.0  0.30986  0.23928  0.77728  1.0000
  O   O10       1.0  0.80985  0.76072  0.72272  1.0000
  O   O11       1.0  0.69015  0.76072  0.22272  1.0000
  O   O12       1.0  0.19014  0.23928  0.27728  1.0000
