data_image0
_chemical_formula_structural       Co2H8C4O12
_chemical_formula_sum              "Co2 H8 C4 O12"
_cell_length_a       5.50191
_cell_length_b       6.53913
_cell_length_c       8.1078
_cell_angle_alpha    80.6839
_cell_angle_beta     70.1682
_cell_angle_gamma    65.2077

_space_group_name_H-M_alt    "P 1"
_space_group_IT_number       1

loop_
  _space_group_symop_operation_xyz
  'x, y, z'

loop_
  _atom_site_type_symbol
  _atom_site_label
  _atom_site_symmetry_multiplicity
  _atom_site_fract_x
  _atom_site_fract_y
  _atom_site_fract_z
  _atom_site_occupancy
  Co  Co1       1.0  0.42161  0.75028  0.24985  1.0000
  Co  Co2       1.0  0.57839  0.24973  0.75015  1.0000
  H   H1        1.0  0.12199  0.16983  0.35308  1.0000
  H   H2        1.0  0.64537  0.32991  0.14689  1.0000
  H   H3        1.0  0.87801  0.83017  0.64692  1.0000
  H   H4        1.0  0.35461  0.67010  0.85310  1.0000
  H   H5        1.0  0.19215  0.17146  0.14010  1.0000
  H   H6        1.0  0.50414  0.32847  0.35986  1.0000
  H   H7        1.0  0.80787  0.82853  0.85989  1.0000
  H   H8        1.0  0.49586  0.67153  0.64014  1.0000
  C   C1        1.0  0.86904  0.75119  0.35204  1.0000
  C   C2        1.0  0.97243  0.74860  0.14802  1.0000
  C   C3        1.0  0.13098  0.24881  0.64795  1.0000
  C   C4        1.0  0.02758  0.25140  0.85199  1.0000
  O   O1        1.0  0.03490  0.75179  0.42888  1.0000
  O   O2        1.0  0.21536  0.74878  0.07123  1.0000
  O   O3        1.0  0.96512  0.24819  0.57113  1.0000
  O   O4        1.0  0.78465  0.25122  0.92877  1.0000
  O   O5        1.0  0.62554  0.75275  0.42742  1.0000
  O   O6        1.0  0.80628  0.74646  0.07256  1.0000
  O   O7        1.0  0.37446  0.24727  0.57257  1.0000
  O   O8        1.0  0.19373  0.25356  0.92745  1.0000
  O   O9        1.0  0.25777  0.09440  0.24238  1.0000
  O   O10       1.0  0.59461  0.40571  0.25751  1.0000
  O   O11       1.0  0.74221  0.90558  0.75763  1.0000
  O   O12       1.0  0.40535  0.59430  0.74248  1.0000
