data_image0
_chemical_formula_structural       Ni2H8C4O12
_chemical_formula_sum              "Ni2 H8 C4 O12"
_cell_length_a       6.38697
_cell_length_b       6.94713
_cell_length_c       7.96941
_cell_angle_alpha    71.002
_cell_angle_beta     66.3986
_cell_angle_gamma    62.638

_space_group_name_H-M_alt    "P 1"
_space_group_IT_number       1

loop_
  _space_group_symop_operation_xyz
  'x, y, z'

loop_
  _atom_site_type_symbol
  _atom_site_label
  _atom_site_symmetry_multiplicity
  _atom_site_fract_x
  _atom_site_fract_y
  _atom_site_fract_z
  _atom_site_occupancy
  Ni  Ni1       1.0  0.76055  0.74994  0.75002  1.0000
  Ni  Ni2       1.0  0.23945  0.25006  0.24998  1.0000
  H   H1        1.0  0.20017  0.44878  0.80014  1.0000
  H   H2        1.0  0.94916  0.05107  0.69993  1.0000
  H   H3        1.0  0.79985  0.55123  0.19982  1.0000
  H   H4        1.0  0.05084  0.94895  0.30011  1.0000
  H   H5        1.0  0.11284  0.39790  0.66463  1.0000
  H   H6        1.0  0.67559  0.10190  0.83548  1.0000
  H   H7        1.0  0.88715  0.60210  0.33535  1.0000
  H   H8        1.0  0.32439  0.89808  0.16456  1.0000
  C   C1        1.0  0.38738  0.03696  0.58532  1.0000
  C   C2        1.0  0.50953  0.46310  0.91471  1.0000
  C   C3        1.0  0.61257  0.96307  0.41473  1.0000
  C   C4        1.0  0.49049  0.53687  0.08525  1.0000
  O   O1        1.0  0.42015  0.97635  0.74323  1.0000
  O   O2        1.0  0.63937  0.52379  0.75678  1.0000
  O   O3        1.0  0.57985  0.02365  0.25680  1.0000
  O   O4        1.0  0.36063  0.47619  0.24318  1.0000
  O   O5        1.0  0.17882  0.15896  0.55579  1.0000
  O   O6        1.0  0.39337  0.34118  0.94422  1.0000
  O   O7        1.0  0.82116  0.84108  0.44421  1.0000
  O   O8        1.0  0.60666  0.65877  0.05575  1.0000
  O   O9        1.0  0.10926  0.51855  0.70628  1.0000
  O   O10       1.0  0.83431  0.98129  0.79387  1.0000
  O   O11       1.0  0.89076  0.48146  0.29368  1.0000
  O   O12       1.0  0.16569  0.01871  0.20617  1.0000
