data_image0
_chemical_formula_structural       Zn2H8C4O12
_chemical_formula_sum              "Zn2 H8 C4 O12"
_cell_length_a       5.51808
_cell_length_b       6.49689
_cell_length_c       8.16659
_cell_angle_alpha    80.6031
_cell_angle_beta     70.3047
_cell_angle_gamma    64.8434

_space_group_name_H-M_alt    "P 1"
_space_group_IT_number       1

loop_
  _space_group_symop_operation_xyz
  'x, y, z'

loop_
  _atom_site_type_symbol
  _atom_site_label
  _atom_site_symmetry_multiplicity
  _atom_site_fract_x
  _atom_site_fract_y
  _atom_site_fract_z
  _atom_site_occupancy
  Zn  Zn1       1.0  0.42673  0.75002  0.75012  1.0000
  Zn  Zn2       1.0  0.57327  0.24998  0.24988  1.0000
  H   H1        1.0  0.18908  0.17606  0.64245  1.0000
  H   H2        1.0  0.50760  0.32394  0.85741  1.0000
  H   H3        1.0  0.81092  0.82394  0.35755  1.0000
  H   H4        1.0  0.49239  0.67606  0.14259  1.0000
  H   H5        1.0  0.12239  0.17555  0.85126  1.0000
  H   H6        1.0  0.64968  0.32454  0.64871  1.0000
  H   H7        1.0  0.87760  0.82446  0.14874  1.0000
  H   H8        1.0  0.35032  0.67546  0.35129  1.0000
  C   C1        1.0  0.97653  0.74880  0.64870  1.0000
  C   C2        1.0  0.87424  0.75113  0.85149  1.0000
  C   C3        1.0  0.02350  0.25119  0.35130  1.0000
  C   C4        1.0  0.12578  0.24887  0.14851  1.0000
  O   O1        1.0  0.81077  0.74785  0.57346  1.0000
  O   O2        1.0  0.63255  0.75203  0.92674  1.0000
  O   O3        1.0  0.18922  0.25214  0.42654  1.0000
  O   O4        1.0  0.36743  0.24796  0.07327  1.0000
  O   O5        1.0  0.21896  0.74782  0.57276  1.0000
  O   O6        1.0  0.04010  0.75214  0.92733  1.0000
  O   O7        1.0  0.78104  0.25217  0.42724  1.0000
  O   O8        1.0  0.95990  0.24787  0.07267  1.0000
  O   O9        1.0  0.26617  0.10710  0.74122  1.0000
  O   O10       1.0  0.61461  0.39289  0.75892  1.0000
  O   O11       1.0  0.73383  0.89290  0.25878  1.0000
  O   O12       1.0  0.38539  0.60711  0.24108  1.0000
