data_image0
_chemical_formula_structural       Mg2H8C4O12
_chemical_formula_sum              "Mg2 H8 C4 O12"
_cell_length_a       5.48991
_cell_length_b       6.87441
_cell_length_c       8.06168
_cell_angle_alpha    82.1961
_cell_angle_beta     70.1159
_cell_angle_gamma    66.4798

_space_group_name_H-M_alt    "P 1"
_space_group_IT_number       1

loop_
  _space_group_symop_operation_xyz
  'x, y, z'

loop_
  _atom_site_type_symbol
  _atom_site_label
  _atom_site_symmetry_multiplicity
  _atom_site_fract_x
  _atom_site_fract_y
  _atom_site_fract_z
  _atom_site_occupancy
  Mg  Mg1       1.0  0.12495  0.25000  0.24995  1.0000
  Mg  Mg2       1.0  0.87505  0.75000  0.75005  1.0000
  H   H1        1.0  0.29983  0.83652  0.35655  1.0000
  H   H2        1.0  0.99294  0.66351  0.14349  1.0000
  H   H3        1.0  0.36370  0.83642  0.14345  1.0000
  H   H4        1.0  0.84353  0.66352  0.35656  1.0000
  H   H5        1.0  0.70017  0.16348  0.64346  1.0000
  H   H6        1.0  0.00705  0.33649  0.85651  1.0000
  H   H7        1.0  0.63629  0.16358  0.85655  1.0000
  H   H8        1.0  0.15646  0.33648  0.64345  1.0000
  C   C1        1.0  0.57348  0.25009  0.35288  1.0000
  C   C2        1.0  0.67635  0.25013  0.14695  1.0000
  C   C3        1.0  0.42652  0.74991  0.64712  1.0000
  C   C4        1.0  0.32365  0.74987  0.85305  1.0000
  O   O1        1.0  0.33150  0.24693  0.42798  1.0000
  O   O2        1.0  0.50620  0.25334  0.07185  1.0000
  O   O3        1.0  0.92157  0.24685  0.07187  1.0000
  O   O4        1.0  0.74051  0.25315  0.42798  1.0000
  O   O5        1.0  0.66852  0.75307  0.57201  1.0000
  O   O6        1.0  0.49381  0.74667  0.92815  1.0000
  O   O7        1.0  0.07843  0.75315  0.92813  1.0000
  O   O8        1.0  0.25949  0.74684  0.57202  1.0000
  O   O9        1.0  0.28722  0.92538  0.24998  1.0000
  O   O10       1.0  0.96256  0.57461  0.25002  1.0000
  O   O11       1.0  0.71277  0.07463  0.75002  1.0000
  O   O12       1.0  0.03742  0.42540  0.74998  1.0000
