data_image0
_chemical_formula_structural       Ba4H12C12O28
_chemical_formula_sum              "Ba4 H12 C12 O28"
_cell_length_a       5.7087
_cell_length_b       6.67431
_cell_length_c       18.1925
_cell_angle_alpha    90.0003
_cell_angle_beta     90.0001
_cell_angle_gamma    98.0229

_space_group_name_H-M_alt    "P 1"
_space_group_IT_number       1

loop_
  _space_group_symop_operation_xyz
  'x, y, z'

loop_
  _atom_site_type_symbol
  _atom_site_label
  _atom_site_symmetry_multiplicity
  _atom_site_fract_x
  _atom_site_fract_y
  _atom_site_fract_z
  _atom_site_occupancy
  Ba  Ba1       1.0  0.77269  0.62002  0.91601  1.0000
  Ba  Ba2       1.0  0.72731  0.87999  0.41601  1.0000
  Ba  Ba3       1.0  0.22731  0.37998  0.08399  1.0000
  Ba  Ba4       1.0  0.27270  0.12001  0.58399  1.0000
  H   H1        1.0  0.02176  0.35351  0.74925  1.0000
  H   H2        1.0  0.47824  0.14649  0.24925  1.0000
  H   H3        1.0  0.97824  0.64649  0.25075  1.0000
  H   H4        1.0  0.52176  0.85351  0.75075  1.0000
  H   H5        1.0  0.20046  0.34229  0.89466  1.0000
  H   H6        1.0  0.29954  0.15771  0.39466  1.0000
  H   H7        1.0  0.79954  0.65771  0.10534  1.0000
  H   H8        1.0  0.70046  0.84229  0.60534  1.0000
  H   H9        1.0  0.97153  0.20879  0.93165  1.0000
  H   H10       1.0  0.52847  0.29121  0.43164  1.0000
  H   H11       1.0  0.02846  0.79121  0.06835  1.0000
  H   H12       1.0  0.47154  0.70879  0.56836  1.0000
  C   C1        1.0  0.43343  0.35131  0.76407  1.0000
  C   C2        1.0  0.06657  0.14869  0.26407  1.0000
  C   C3        1.0  0.56657  0.64869  0.23593  1.0000
  C   C4        1.0  0.93343  0.85131  0.73593  1.0000
  C   C5        1.0  0.67697  0.33607  0.72696  1.0000
  C   C6        1.0  0.82302  0.16391  0.22696  1.0000
  C   C7        1.0  0.32303  0.66393  0.27304  1.0000
  C   C8        1.0  0.17698  0.83609  0.77304  1.0000
  C   C9        1.0  0.40286  0.91762  0.01635  1.0000
  C   C10       1.0  0.09715  0.58238  0.51635  1.0000
  C   C11       1.0  0.59715  0.08238  0.98365  1.0000
  C   C12       1.0  0.90286  0.41762  0.48365  1.0000
  O   O1        1.0  0.43157  0.38752  0.83173  1.0000
  O   O2        1.0  0.06843  0.11248  0.33173  1.0000
  O   O3        1.0  0.56843  0.61247  0.16827  1.0000
  O   O4        1.0  0.93158  0.88752  0.66827  1.0000
  O   O5        1.0  0.85674  0.37569  0.77261  1.0000
  O   O6        1.0  0.64325  0.12430  0.27261  1.0000
  O   O7        1.0  0.14326  0.62431  0.22739  1.0000
  O   O8        1.0  0.35676  0.87570  0.72739  1.0000
  O   O9        1.0  0.08307  0.33939  0.93490  1.0000
  O   O10       1.0  0.41693  0.16061  0.43490  1.0000
  O   O11       1.0  0.91693  0.66061  0.06510  1.0000
  O   O12       1.0  0.58307  0.83939  0.56510  1.0000
  O   O13       1.0  0.25522  0.32220  0.72126  1.0000
  O   O14       1.0  0.24479  0.17780  0.22125  1.0000
  O   O15       1.0  0.74478  0.67780  0.27874  1.0000
  O   O16       1.0  0.75522  0.82220  0.77875  1.0000
  O   O17       1.0  0.41729  0.73380  0.00247  1.0000
  O   O18       1.0  0.08271  0.76620  0.50247  1.0000
  O   O19       1.0  0.58271  0.26620  0.99753  1.0000
  O   O20       1.0  0.91729  0.23380  0.49753  1.0000
  O   O21       1.0  0.69139  0.28875  0.66181  1.0000
  O   O22       1.0  0.80860  0.21124  0.16180  1.0000
  O   O23       1.0  0.30860  0.71125  0.33819  1.0000
  O   O24       1.0  0.19141  0.78876  0.83820  1.0000
  O   O25       1.0  0.24220  0.98101  0.05460  1.0000
  O   O26       1.0  0.25780  0.51899  0.55460  1.0000
  O   O27       1.0  0.75780  0.01899  0.94540  1.0000
  O   O28       1.0  0.74220  0.48101  0.44540  1.0000
