data_image0
_chemical_formula_structural       Tl4H4C4O8
_chemical_formula_sum              "Tl4 H4 C4 O8"
_cell_length_a       5.74173
_cell_length_b       6.10656
_cell_length_c       9.0289
_cell_angle_alpha    89.9593
_cell_angle_beta     90.0008
_cell_angle_gamma    90.0064

_space_group_name_H-M_alt    "P 1"
_space_group_IT_number       1

loop_
  _space_group_symop_operation_xyz
  'x, y, z'

loop_
  _atom_site_type_symbol
  _atom_site_label
  _atom_site_symmetry_multiplicity
  _atom_site_fract_x
  _atom_site_fract_y
  _atom_site_fract_z
  _atom_site_occupancy
  Tl  Tl1       1.0  0.99911  0.00419  0.00625  1.0000
  Tl  Tl2       1.0  0.49892  0.49591  0.50617  1.0000
  Tl  Tl3       1.0  0.50083  0.50420  0.00629  1.0000
  Tl  Tl4       1.0  0.00106  0.99590  0.50616  1.0000
  H   H1        1.0  0.55947  0.05396  0.82331  1.0000
  H   H2        1.0  0.05941  0.44645  0.32340  1.0000
  H   H3        1.0  0.94058  0.55389  0.82334  1.0000
  H   H4        1.0  0.44057  0.94656  0.32347  1.0000
  C   C1        1.0  0.47862  0.94580  0.73813  1.0000
  C   C2        1.0  0.97806  0.55408  0.23804  1.0000
  C   C3        1.0  0.02144  0.44578  0.73809  1.0000
  C   C4        1.0  0.52188  0.05415  0.23807  1.0000
  O   O1        1.0  0.31891  0.81783  0.78059  1.0000
  O   O2        1.0  0.81782  0.68148  0.28052  1.0000
  O   O3        1.0  0.18123  0.31788  0.78059  1.0000
  O   O4        1.0  0.68206  0.18161  0.28056  1.0000
  O   O5        1.0  0.55586  0.96063  0.60632  1.0000
  O   O6        1.0  0.05501  0.53958  0.10618  1.0000
  O   O7        1.0  0.94422  0.46055  0.60632  1.0000
  O   O8        1.0  0.44494  0.03958  0.10619  1.0000
