data_image0
_chemical_formula_structural       Cu2H10C10N2Cl4O2
_chemical_formula_sum              "Cu2 H10 C10 N2 Cl4 O2"
_cell_length_a       3.82294
_cell_length_b       9.82028
_cell_length_c       10.2502
_cell_angle_alpha    65.1512
_cell_angle_beta     89.7391
_cell_angle_gamma    87.5034

_space_group_name_H-M_alt    "P 1"
_space_group_IT_number       1

loop_
  _space_group_symop_operation_xyz
  'x, y, z'

loop_
  _atom_site_type_symbol
  _atom_site_label
  _atom_site_symmetry_multiplicity
  _atom_site_fract_x
  _atom_site_fract_y
  _atom_site_fract_z
  _atom_site_occupancy
  Cu  Cu1       1.0  0.65498  0.95638  0.17145  1.0000
  Cu  Cu2       1.0  0.34502  0.04362  0.82855  1.0000
  H   H1        1.0  0.40895  0.12350  0.50248  1.0000
  H   H2        1.0  0.59106  0.87650  0.49752  1.0000
  H   H3        1.0  0.82256  0.27625  0.08743  1.0000
  H   H4        1.0  0.17745  0.72375  0.91257  1.0000
  H   H5        1.0  0.78850  0.53779  0.07199  1.0000
  H   H6        1.0  0.21149  0.46221  0.92801  1.0000
  H   H7        1.0  0.53604  0.58660  0.27464  1.0000
  H   H8        1.0  0.46395  0.41340  0.72536  1.0000
  H   H9        1.0  0.33608  0.36226  0.49448  1.0000
  H   H10       1.0  0.66393  0.63774  0.50552  1.0000
  C   C1        1.0  0.60077  0.17881  0.29837  1.0000
  C   C2        1.0  0.39923  0.82119  0.70163  1.0000
  C   C3        1.0  0.71753  0.30075  0.17437  1.0000
  C   C4        1.0  0.28247  0.69926  0.82564  1.0000
  C   C5        1.0  0.69780  0.44437  0.16730  1.0000
  C   C6        1.0  0.30220  0.55562  0.83269  1.0000
  C   C7        1.0  0.55824  0.47336  0.28079  1.0000
  C   C8        1.0  0.44176  0.52665  0.71920  1.0000
  C   C9        1.0  0.44901  0.35387  0.40040  1.0000
  C   C10       1.0  0.55098  0.64612  0.59960  1.0000
  N   N1        1.0  0.47253  0.21269  0.40713  1.0000
  N   N2        1.0  0.52748  0.78731  0.59287  1.0000
  Cl  Cl1       1.0  0.69691  0.86032  0.99936  1.0000
  Cl  Cl2       1.0  0.30309  0.13967  0.00064  1.0000
  Cl  Cl3       1.0  0.07691  0.78984  0.30226  1.0000
  Cl  Cl4       1.0  0.92309  0.21016  0.69774  1.0000
  O   O1        1.0  0.60720  0.03957  0.31915  1.0000
  O   O2        1.0  0.39280  0.96043  0.68085  1.0000
