data_image0
_chemical_formula_structural       Rb2H14C8O20
_chemical_formula_sum              "Rb2 H14 C8 O20"
_cell_length_a       6.3198
_cell_length_b       7.17288
_cell_length_c       10.6169
_cell_angle_alpha    94.0252
_cell_angle_beta     100.608
_cell_angle_gamma    97.8149

_space_group_name_H-M_alt    "P 1"
_space_group_IT_number       1

loop_
  _space_group_symop_operation_xyz
  'x, y, z'

loop_
  _atom_site_type_symbol
  _atom_site_label
  _atom_site_symmetry_multiplicity
  _atom_site_fract_x
  _atom_site_fract_y
  _atom_site_fract_z
  _atom_site_occupancy
  Rb  Rb1       1.0  0.65835  0.64758  0.27151  1.0000
  Rb  Rb2       1.0  0.34165  0.35242  0.72849  1.0000
  H   H1        1.0  0.13336  0.43345  0.24698  1.0000
  H   H2        1.0  0.86664  0.56655  0.75302  1.0000
  H   H3        1.0  0.14706  0.93537  0.24356  1.0000
  H   H4        1.0  0.85294  0.06463  0.75644  1.0000
  H   H5        1.0  0.63981  0.15100  0.23195  1.0000
  H   H6        1.0  0.36019  0.84900  0.76805  1.0000
  H   H7        1.0  0.26256  0.30462  0.39010  1.0000
  H   H8        1.0  0.73744  0.69537  0.60990  1.0000
  H   H9        1.0  0.23660  0.52182  0.42575  1.0000
  H   H10       1.0  0.76341  0.47818  0.57425  1.0000
  H   H11       1.0  0.41198  0.19678  0.07504  1.0000
  H   H12       1.0  0.58802  0.80322  0.92496  1.0000
  H   H13       1.0  0.64920  0.29115  0.06280  1.0000
  H   H14       1.0  0.35080  0.70885  0.93720  1.0000
  C   C1        1.0  0.08419  0.51357  0.06395  1.0000
  C   C2        1.0  0.91581  0.48643  0.93605  1.0000
  C   C3        1.0  0.98775  0.95335  0.06225  1.0000
  C   C4        1.0  0.01226  0.04665  0.93775  1.0000
  C   C5        1.0  0.22486  0.94058  0.45790  1.0000
  C   C6        1.0  0.77514  0.05942  0.54210  1.0000
  C   C7        1.0  0.74290  0.17519  0.42300  1.0000
  C   C8        1.0  0.25710  0.82481  0.57699  1.0000
  O   O1        1.0  0.26830  0.43239  0.35716  1.0000
  O   O2        1.0  0.73170  0.56761  0.64284  1.0000
  O   O3        1.0  0.55873  0.24791  0.12550  1.0000
  O   O4        1.0  0.44127  0.75209  0.87450  1.0000
  O   O5        1.0  0.01172  0.42730  0.15458  1.0000
  O   O6        1.0  0.98828  0.57270  0.84542  1.0000
  O   O7        1.0  0.26553  0.61020  0.07274  1.0000
  O   O8        1.0  0.73447  0.38980  0.92726  1.0000
  O   O9        1.0  0.15319  0.00842  0.15584  1.0000
  O   O10       1.0  0.84681  0.99158  0.84416  1.0000
  O   O11       1.0  0.82373  0.83835  0.06529  1.0000
  O   O12       1.0  0.17627  0.16165  0.93471  1.0000
  O   O13       1.0  0.15724  0.83983  0.35049  1.0000
  O   O14       1.0  0.84275  0.16017  0.64951  1.0000
  O   O15       1.0  0.73222  0.88237  0.52289  1.0000
  O   O16       1.0  0.26778  0.11763  0.47711  1.0000
  O   O17       1.0  0.68315  0.07122  0.31260  1.0000
  O   O18       1.0  0.31685  0.92878  0.68740  1.0000
  O   O19       1.0  0.77254  0.35031  0.43631  1.0000
  O   O20       1.0  0.22746  0.64969  0.56369  1.0000
