data_image0
_chemical_formula_structural       Na8H16C32O16
_chemical_formula_sum              "Na8 H16 C32 O16"
_cell_length_a       3.50952
_cell_length_b       10.7417
_cell_length_c       19.0243
_cell_angle_alpha    90.0011
_cell_angle_beta     90.0007
_cell_angle_gamma    89.9997

_space_group_name_H-M_alt    "P 1"
_space_group_IT_number       1

loop_
  _space_group_symop_operation_xyz
  'x, y, z'

loop_
  _atom_site_type_symbol
  _atom_site_label
  _atom_site_symmetry_multiplicity
  _atom_site_fract_x
  _atom_site_fract_y
  _atom_site_fract_z
  _atom_site_occupancy
  Na  Na1       1.0  0.04091  0.93126  0.67558  1.0000
  Na  Na2       1.0  0.95909  0.43126  0.67558  1.0000
  Na  Na3       1.0  0.04089  0.56875  0.17557  1.0000
  Na  Na4       1.0  0.95911  0.06875  0.17558  1.0000
  Na  Na5       1.0  0.52784  0.68161  0.77181  1.0000
  Na  Na6       1.0  0.47217  0.18161  0.77181  1.0000
  Na  Na7       1.0  0.52782  0.81839  0.27181  1.0000
  Na  Na8       1.0  0.47219  0.31839  0.27181  1.0000
  H   H1        1.0  0.60276  0.08221  0.92382  1.0000
  H   H2        1.0  0.39724  0.58221  0.92383  1.0000
  H   H3        1.0  0.60274  0.41779  0.42382  1.0000
  H   H4        1.0  0.39723  0.91779  0.42383  1.0000
  H   H5        1.0  0.47381  0.03806  0.04963  1.0000
  H   H6        1.0  0.52621  0.53806  0.04963  1.0000
  H   H7        1.0  0.47379  0.46194  0.54963  1.0000
  H   H8        1.0  0.52620  0.96194  0.54963  1.0000
  H   H9        1.0  0.90068  0.66680  0.02305  1.0000
  H   H10       1.0  0.09930  0.16680  0.02306  1.0000
  H   H11       1.0  0.90070  0.83320  0.52305  1.0000
  H   H12       1.0  0.09929  0.33321  0.52306  1.0000
  H   H13       1.0  0.02845  0.71085  0.89718  1.0000
  H   H14       1.0  0.97156  0.21084  0.89718  1.0000
  H   H15       1.0  0.02844  0.78915  0.39717  1.0000
  H   H16       1.0  0.97153  0.28915  0.39718  1.0000
  C   C1        1.0  0.83268  0.90005  0.90233  1.0000
  C   C2        1.0  0.16732  0.40005  0.90234  1.0000
  C   C3        1.0  0.83269  0.59994  0.40233  1.0000
  C   C4        1.0  0.16730  0.09995  0.40234  1.0000
  C   C5        1.0  0.67170  0.99139  0.94560  1.0000
  C   C6        1.0  0.32831  0.49139  0.94560  1.0000
  C   C7        1.0  0.67170  0.50861  0.44559  1.0000
  C   C8        1.0  0.32829  0.00861  0.44560  1.0000
  C   C9        1.0  0.59538  0.96645  0.01589  1.0000
  C   C10       1.0  0.40464  0.46644  0.01589  1.0000
  C   C11       1.0  0.59537  0.53355  0.51589  1.0000
  C   C12       1.0  0.40463  0.03356  0.51589  1.0000
  C   C13       1.0  0.67105  0.84894  0.04452  1.0000
  C   C14       1.0  0.32896  0.34894  0.04452  1.0000
  C   C15       1.0  0.67104  0.65106  0.54452  1.0000
  C   C16       1.0  0.32896  0.15106  0.54453  1.0000
  C   C17       1.0  0.83132  0.75754  0.00124  1.0000
  C   C18       1.0  0.16868  0.25754  0.00124  1.0000
  C   C19       1.0  0.83134  0.74246  0.50124  1.0000
  C   C20       1.0  0.16866  0.24246  0.50124  1.0000
  C   C21       1.0  0.90726  0.78248  0.93094  1.0000
  C   C22       1.0  0.09275  0.28248  0.93094  1.0000
  C   C23       1.0  0.90726  0.71751  0.43094  1.0000
  C   C24       1.0  0.09272  0.21752  0.43095  1.0000
  C   C25       1.0  0.94223  0.92692  0.82729  1.0000
  C   C26       1.0  0.05778  0.42692  0.82729  1.0000
  C   C27       1.0  0.94223  0.57307  0.32729  1.0000
  C   C28       1.0  0.05777  0.07308  0.32730  1.0000
  C   C29       1.0  0.56800  0.82215  0.11985  1.0000
  C   C30       1.0  0.43199  0.32215  0.11985  1.0000
  C   C31       1.0  0.56802  0.67786  0.61984  1.0000
  C   C32       1.0  0.43199  0.17785  0.61985  1.0000
  O   O1        1.0  0.95048  0.03955  0.80653  1.0000
  O   O2        1.0  0.04954  0.53955  0.80653  1.0000
  O   O3        1.0  0.95055  0.46045  0.30653  1.0000
  O   O4        1.0  0.04952  0.96046  0.30653  1.0000
  O   O5        1.0  0.02765  0.83418  0.78804  1.0000
  O   O6        1.0  0.97236  0.33419  0.78804  1.0000
  O   O7        1.0  0.02760  0.66581  0.28804  1.0000
  O   O8        1.0  0.97237  0.16582  0.28805  1.0000
  O   O9        1.0  0.56767  0.70963  0.14088  1.0000
  O   O10       1.0  0.43230  0.20963  0.14089  1.0000
  O   O11       1.0  0.56772  0.79037  0.64088  1.0000
  O   O12       1.0  0.43228  0.29038  0.64089  1.0000
  O   O13       1.0  0.48228  0.91463  0.15922  1.0000
  O   O14       1.0  0.51772  0.41463  0.15923  1.0000
  O   O15       1.0  0.48228  0.58538  0.65923  1.0000
  O   O16       1.0  0.51772  0.08537  0.65923  1.0000
