data_image0
_chemical_formula_structural       Ni2H10C10N2Cl4
_chemical_formula_sum              "Ni2 H10 C10 N2 Cl4"
_cell_length_a       3.50561
_cell_length_b       8.83554
_cell_length_c       11.0007
_cell_angle_alpha    75.6385
_cell_angle_beta     81.0056
_cell_angle_gamma    78.6709

_space_group_name_H-M_alt    "P 1"
_space_group_IT_number       1

loop_
  _space_group_symop_operation_xyz
  'x, y, z'

loop_
  _atom_site_type_symbol
  _atom_site_label
  _atom_site_symmetry_multiplicity
  _atom_site_fract_x
  _atom_site_fract_y
  _atom_site_fract_z
  _atom_site_occupancy
  Ni  Ni1       1.0  0.33388  0.46512  0.86229  1.0000
  Ni  Ni2       1.0  0.66612  0.53488  0.13770  1.0000
  H   H1        1.0  0.47323  0.44280  0.59763  1.0000
  H   H2        1.0  0.52677  0.55720  0.40237  1.0000
  H   H3        1.0  0.47407  0.11509  0.93756  1.0000
  H   H4        1.0  0.52594  0.88491  0.06244  1.0000
  H   H5        1.0  0.64458  0.23193  0.47383  1.0000
  H   H6        1.0  0.35542  0.76807  0.52617  1.0000
  H   H7        1.0  0.64895  0.88624  0.82937  1.0000
  H   H8        1.0  0.35104  0.11376  0.17063  1.0000
  H   H9        1.0  0.73553  0.94442  0.59457  1.0000
  H   H10       1.0  0.26446  0.05558  0.40543  1.0000
  C   C1        1.0  0.51576  0.31779  0.64413  1.0000
  C   C2        1.0  0.48424  0.68221  0.35587  1.0000
  C   C3        1.0  0.51612  0.13361  0.83515  1.0000
  C   C4        1.0  0.48388  0.86639  0.16485  1.0000
  C   C5        1.0  0.61091  0.19902  0.57674  1.0000
  C   C6        1.0  0.38909  0.80098  0.42326  1.0000
  C   C7        1.0  0.61188  0.00818  0.77487  1.0000
  C   C8        1.0  0.38812  0.99182  0.22513  1.0000
  C   C9        1.0  0.66014  0.04149  0.64330  1.0000
  C   C10       1.0  0.33986  0.95851  0.35670  1.0000
  N   N1        1.0  0.46922  0.28594  0.77113  1.0000
  N   N2        1.0  0.53079  0.71407  0.22887  1.0000
  Cl  Cl1       1.0  0.82616  0.33971  0.00649  1.0000
  Cl  Cl2       1.0  0.17384  0.66029  0.99351  1.0000
  Cl  Cl3       1.0  0.82886  0.60260  0.73515  1.0000
  Cl  Cl4       1.0  0.17114  0.39740  0.26485  1.0000
