data_image0
_chemical_formula_structural       Tm2H8C6O16
_chemical_formula_sum              "Tm2 H8 C6 O16"
_cell_length_a       6.30325
_cell_length_b       6.55032
_cell_length_c       8.91045
_cell_angle_alpha    85.4032
_cell_angle_beta     76.3985
_cell_angle_gamma    80.3871

_space_group_name_H-M_alt    "P 1"
_space_group_IT_number       1

loop_
  _space_group_symop_operation_xyz
  'x, y, z'

loop_
  _atom_site_type_symbol
  _atom_site_label
  _atom_site_symmetry_multiplicity
  _atom_site_fract_x
  _atom_site_fract_y
  _atom_site_fract_z
  _atom_site_occupancy
  Tm  Tm1       1.0  0.33082  0.25601  0.29575  1.0000
  Tm  Tm2       1.0  0.66919  0.74397  0.70426  1.0000
  H   H1        1.0  0.69415  0.91685  0.28894  1.0000
  H   H2        1.0  0.30586  0.08317  0.71105  1.0000
  H   H3        1.0  0.62660  0.88838  0.12962  1.0000
  H   H4        1.0  0.37341  0.11163  0.87037  1.0000
  H   H5        1.0  0.96721  0.59970  0.31862  1.0000
  H   H6        1.0  0.03280  0.40028  0.68139  1.0000
  H   H7        1.0  0.88818  0.45574  0.21405  1.0000
  H   H8        1.0  0.11181  0.54426  0.78597  1.0000
  C   C1        1.0  0.01371  0.04272  0.57490  1.0000
  C   C2        1.0  0.98613  0.95743  0.42508  1.0000
  C   C3        1.0  0.58854  0.40682  0.50961  1.0000
  C   C4        1.0  0.41149  0.59323  0.49034  1.0000
  C   C5        1.0  0.57373  0.55045  0.04006  1.0000
  C   C6        1.0  0.42627  0.44954  0.95995  1.0000
  O   O1        1.0  0.14946  0.17242  0.55707  1.0000
  O   O2        1.0  0.85058  0.82748  0.44294  1.0000
  O   O3        1.0  0.90354  0.97933  0.70145  1.0000
  O   O4        1.0  0.09659  0.02058  0.29853  1.0000
  O   O5        1.0  0.58395  0.24185  0.44675  1.0000
  O   O6        1.0  0.41599  0.75818  0.55327  1.0000
  O   O7        1.0  0.72525  0.43531  0.58587  1.0000
  O   O8        1.0  0.27475  0.56464  0.41415  1.0000
  O   O9        1.0  0.61200  0.46024  0.16362  1.0000
  O   O10       1.0  0.38800  0.53979  0.83638  1.0000
  O   O11       1.0  0.64184  0.71526  0.97607  1.0000
  O   O12       1.0  0.35817  0.28473  0.02392  1.0000
  O   O13       1.0  0.59534  0.97582  0.22013  1.0000
  O   O14       1.0  0.40466  0.02419  0.77986  1.0000
  O   O15       1.0  0.01619  0.47861  0.25281  1.0000
  O   O16       1.0  0.98380  0.52140  0.74719  1.0000
