data_image0
_chemical_formula_structural       Mn2H12C8O8
_chemical_formula_sum              "Mn2 H12 C8 O8"
_cell_length_a       4.92731
_cell_length_b       6.05097
_cell_length_c       9.69711
_cell_angle_alpha    102.801
_cell_angle_beta     90.0003
_cell_angle_gamma    89.9999

_space_group_name_H-M_alt    "P 1"
_space_group_IT_number       1

loop_
  _space_group_symop_operation_xyz
  'x, y, z'

loop_
  _atom_site_type_symbol
  _atom_site_label
  _atom_site_symmetry_multiplicity
  _atom_site_fract_x
  _atom_site_fract_y
  _atom_site_fract_z
  _atom_site_occupancy
  Mn  Mn1       1.0  0.18750  0.25000  0.50000  1.0000
  Mn  Mn2       1.0  0.81250  0.75001  0.50000  1.0000
  H   H1        1.0  0.72358  0.24633  0.12972  1.0000
  H   H2        1.0  0.72359  0.25367  0.87027  1.0000
  H   H3        1.0  0.27641  0.75366  0.87028  1.0000
  H   H4        1.0  0.27642  0.74633  0.12972  1.0000
  H   H5        1.0  0.73380  0.94535  0.08265  1.0000
  H   H6        1.0  0.73382  0.55464  0.91735  1.0000
  H   H7        1.0  0.26618  0.05465  0.91736  1.0000
  H   H8        1.0  0.26619  0.44535  0.08265  1.0000
  H   H9        1.0  0.02235  0.09797  0.16534  1.0000
  H   H10       1.0  0.02235  0.40202  0.83466  1.0000
  H   H11       1.0  0.97763  0.90202  0.83466  1.0000
  H   H12       1.0  0.97765  0.59798  0.16535  1.0000
  C   C1        1.0  0.68325  0.08345  0.30316  1.0000
  C   C2        1.0  0.68326  0.41656  0.69685  1.0000
  C   C3        1.0  0.31674  0.91655  0.69684  1.0000
  C   C4        1.0  0.31675  0.58346  0.30315  1.0000
  C   C5        1.0  0.80062  0.09530  0.16155  1.0000
  C   C6        1.0  0.80062  0.40470  0.83844  1.0000
  C   C7        1.0  0.19937  0.90470  0.83845  1.0000
  C   C8        1.0  0.19938  0.59530  0.16155  1.0000
  O   O1        1.0  0.84474  0.03885  0.39811  1.0000
  O   O2        1.0  0.84475  0.46115  0.60189  1.0000
  O   O3        1.0  0.15524  0.96116  0.60189  1.0000
  O   O4        1.0  0.15526  0.53886  0.39812  1.0000
  O   O5        1.0  0.43087  0.11388  0.32173  1.0000
  O   O6        1.0  0.43090  0.38612  0.67826  1.0000
  O   O7        1.0  0.56912  0.88612  0.67827  1.0000
  O   O8        1.0  0.56913  0.61388  0.32173  1.0000
