data_image0
_chemical_formula_structural       K4H4C12Cl4O10
_chemical_formula_sum              "K4 H4 C12 Cl4 O10"
_cell_length_a       4.72201
_cell_length_b       8.48354
_cell_length_c       12.7051
_cell_angle_alpha    79.8389
_cell_angle_beta     79.3047
_cell_angle_gamma    73.7073

_space_group_name_H-M_alt    "P 1"
_space_group_IT_number       1

loop_
  _space_group_symop_operation_xyz
  'x, y, z'

loop_
  _atom_site_type_symbol
  _atom_site_label
  _atom_site_symmetry_multiplicity
  _atom_site_fract_x
  _atom_site_fract_y
  _atom_site_fract_z
  _atom_site_occupancy
  K   K1        1.0  0.73112  0.99657  0.12799  1.0000
  K   K2        1.0  0.85459  0.50334  0.37215  1.0000
  K   K3        1.0  0.26888  0.00343  0.87201  1.0000
  K   K4        1.0  0.14542  0.49666  0.62785  1.0000
  H   H1        1.0  0.29773  0.78184  0.30620  1.0000
  H   H2        1.0  0.38565  0.71860  0.19353  1.0000
  H   H3        1.0  0.70227  0.21816  0.69380  1.0000
  H   H4        1.0  0.61435  0.28140  0.80647  1.0000
  C   C1        1.0  0.11430  0.32295  0.03476  1.0000
  C   C2        1.0  0.47283  0.17693  0.46573  1.0000
  C   C3        1.0  0.88571  0.67705  0.96524  1.0000
  C   C4        1.0  0.52717  0.82307  0.53427  1.0000
  C   C5        1.0  0.90205  0.38724  0.94872  1.0000
  C   C6        1.0  0.23801  0.11328  0.55135  1.0000
  C   C7        1.0  0.09794  0.61276  0.05128  1.0000
  C   C8        1.0  0.76198  0.88672  0.44865  1.0000
  C   C9        1.0  0.80846  0.55910  0.91828  1.0000
  C   C10       1.0  0.28513  0.94146  0.58136  1.0000
  C   C11       1.0  0.19154  0.44090  0.08172  1.0000
  C   C12       1.0  0.71486  0.05854  0.41864  1.0000
  Cl  Cl1       1.0  0.57657  0.62863  0.81907  1.0000
  Cl  Cl2       1.0  0.02296  0.87248  0.68018  1.0000
  Cl  Cl3       1.0  0.42343  0.37137  0.18093  1.0000
  Cl  Cl4       1.0  0.97704  0.12753  0.31981  1.0000
  O   O1        1.0  0.20515  0.16771  0.05709  1.0000
  O   O2        1.0  0.43139  0.33206  0.44371  1.0000
  O   O3        1.0  0.79485  0.83229  0.94291  1.0000
  O   O4        1.0  0.56861  0.66794  0.55629  1.0000
  O   O5        1.0  0.82698  0.27887  0.91114  1.0000
  O   O6        1.0  0.01707  0.22203  0.58902  1.0000
  O   O7        1.0  0.17302  0.72112  0.08886  1.0000
  O   O8        1.0  0.98292  0.77798  0.41098  1.0000
  O   O9        1.0  0.47128  0.75044  0.24976  1.0000
  O   O10       1.0  0.52872  0.24956  0.75024  1.0000
