data_image0
_chemical_formula_structural       Na2H34C42O12
_chemical_formula_sum              "Na2 H34 C42 O12"
_cell_length_a       6.80684
_cell_length_b       11.9035
_cell_length_c       13.229
_cell_angle_alpha    109.684
_cell_angle_beta     99.8038
_cell_angle_gamma    104.935

_space_group_name_H-M_alt    "P 1"
_space_group_IT_number       1

loop_
  _space_group_symop_operation_xyz
  'x, y, z'

loop_
  _atom_site_type_symbol
  _atom_site_label
  _atom_site_symmetry_multiplicity
  _atom_site_fract_x
  _atom_site_fract_y
  _atom_site_fract_z
  _atom_site_occupancy
  Na  Na1       1.0  0.00001  0.00001  1.00000  1.0000
  Na  Na2       1.0  0.50001  1.00000  1.00000  1.0000
  H   H1        1.0  0.16555  0.07625  0.24923  1.0000
  H   H2        1.0  0.83444  0.92374  0.75076  1.0000
  H   H3        1.0  0.61123  0.25143  0.19882  1.0000
  H   H4        1.0  0.38879  0.74858  0.80119  1.0000
  H   H5        1.0  0.64869  0.21285  0.37165  1.0000
  H   H6        1.0  0.35130  0.78713  0.62834  1.0000
  H   H7        1.0  0.29633  0.31479  0.35851  1.0000
  H   H8        1.0  0.70366  0.68519  0.64149  1.0000
  H   H9        1.0  0.14815  0.48404  0.66646  1.0000
  H   H10       1.0  0.85184  0.51596  0.33353  1.0000
  H   H11       1.0  0.41234  0.46368  0.55966  1.0000
  H   H12       1.0  0.58765  0.53631  0.44034  1.0000
  H   H13       1.0  0.52611  0.53590  0.25577  1.0000
  H   H14       1.0  0.47390  0.46411  0.74424  1.0000
  H   H15       1.0  0.50162  0.00932  0.42595  1.0000
  H   H16       1.0  0.49837  0.99068  0.57405  1.0000
  H   H17       1.0  0.76672  0.35664  0.57327  1.0000
  H   H18       1.0  0.23326  0.64334  0.42672  1.0000
  H   H19       1.0  0.96225  0.23829  0.01647  1.0000
  H   H20       1.0  0.03778  0.76172  0.98354  1.0000
  H   H21       1.0  0.53768  0.82524  0.09247  1.0000
  H   H22       1.0  0.46233  0.17476  0.90753  1.0000
  H   H23       1.0  0.77107  0.39219  0.03866  1.0000
  H   H24       1.0  0.22894  0.60781  0.96134  1.0000
  H   H25       1.0  0.81421  0.75103  0.16449  1.0000
  H   H26       1.0  0.18580  0.24897  0.83551  1.0000
  H   H27       1.0  0.95698  0.61837  0.16831  1.0000
  H   H28       1.0  0.04302  0.38163  0.83169  1.0000
  H   H29       1.0  0.33744  0.69110  0.27407  1.0000
  H   H30       1.0  0.66256  0.30891  0.72593  1.0000
  H   H31       1.0  0.77116  0.92665  0.50000  1.0000
  H   H32       1.0  0.22882  0.07335  0.50001  1.0000
  H   H33       1.0  0.93044  0.79921  0.36963  1.0000
  H   H34       1.0  0.06955  0.20078  0.63037  1.0000
  C   C1        1.0  0.50089  0.92155  0.25494  1.0000
  C   C2        1.0  0.49911  0.07845  0.74506  1.0000
  C   C3        1.0  0.96512  0.25405  0.35253  1.0000
  C   C4        1.0  0.03488  0.74594  0.64746  1.0000
  C   C5        1.0  0.81630  0.26679  0.41321  1.0000
  C   C6        1.0  0.18370  0.73320  0.58679  1.0000
  C   C7        1.0  0.89221  0.16822  0.23125  1.0000
  C   C8        1.0  0.10778  0.83178  0.76875  1.0000
  C   C9        1.0  0.25600  0.37675  0.13627  1.0000
  C   C10       1.0  0.74402  0.62327  0.86375  1.0000
  C   C11       1.0  0.18104  0.32369  0.40616  1.0000
  C   C12       1.0  0.81895  0.67631  0.59384  1.0000
  C   C13       1.0  0.33990  0.96970  0.20997  1.0000
  C   C14       1.0  0.66010  0.03030  0.79003  1.0000
  C   C15       1.0  0.36737  0.28270  0.12627  1.0000
  C   C16       1.0  0.63265  0.71732  0.87374  1.0000
  C   C17       1.0  0.09692  0.41815  0.57894  1.0000
  C   C18       1.0  0.90307  0.58184  0.42106  1.0000
  C   C19       1.0  0.24563  0.40657  0.51861  1.0000
  C   C20       1.0  0.75436  0.59342  0.48139  1.0000
  C   C21       1.0  0.36073  0.50470  0.20866  1.0000
  C   C22       1.0  0.63928  0.49531  0.79135  1.0000
  C   C23       1.0  0.56887  0.95052  0.36987  1.0000
  C   C24       1.0  0.43112  0.04948  0.63013  1.0000
  C   C25       1.0  0.88263  0.34731  0.52626  1.0000
  C   C26       1.0  0.11736  0.65268  0.47373  1.0000
  C   C27       1.0  0.04379  0.33697  0.07399  1.0000
  C   C28       1.0  0.95622  0.66304  0.92602  1.0000
  C   C29       1.0  0.58895  0.84806  0.18166  1.0000
  C   C30       1.0  0.41105  0.15194  0.81834  1.0000
  C   C31       1.0  0.93625  0.42357  0.08672  1.0000
  C   C32       1.0  0.06376  0.57643  0.91328  1.0000
  C   C33       1.0  0.74470  0.80572  0.22286  1.0000
  C   C34       1.0  0.25530  0.19428  0.77714  1.0000
  C   C35       1.0  0.04110  0.55069  0.15927  1.0000
  C   C36       1.0  0.95891  0.44932  0.84074  1.0000
  C   C37       1.0  0.25401  0.59154  0.21922  1.0000
  C   C38       1.0  0.74600  0.40847  0.78079  1.0000
  C   C39       1.0  0.72094  0.90546  0.41080  1.0000
  C   C40       1.0  0.27905  0.09454  0.58920  1.0000
  C   C41       1.0  0.81025  0.83347  0.33721  1.0000
  C   C42       1.0  0.18974  0.16653  0.66279  1.0000
  O   O1        1.0  0.01130  0.11130  0.18782  1.0000
  O   O2        1.0  0.98869  0.88869  0.81218  1.0000
  O   O3        1.0  0.27384  0.94320  0.10791  1.0000
  O   O4        1.0  0.72617  0.05680  0.89209  1.0000
  O   O5        1.0  0.27498  0.04303  0.28694  1.0000
  O   O6        1.0  0.72501  0.95696  0.71305  1.0000
  O   O7        1.0  0.30495  0.17747  0.04605  1.0000
  O   O8        1.0  0.69506  0.82254  0.95396  1.0000
  O   O9        1.0  0.53872  0.32116  0.21068  1.0000
  O   O10       1.0  0.46131  0.67886  0.78932  1.0000
  O   O11       1.0  0.71050  0.15350  0.17281  1.0000
  O   O12       1.0  0.28949  0.84650  0.82719  1.0000
