data_image0
_chemical_formula_structural       Cd6H24C18O30
_chemical_formula_sum              "Cd6 H24 C18 O30"
_cell_length_a       10.6102
_cell_length_b       10.6103
_cell_length_c       10.6103
_cell_angle_alpha    108.953
_cell_angle_beta     108.954
_cell_angle_gamma    108.954

_space_group_name_H-M_alt    "P 1"
_space_group_IT_number       1

loop_
  _space_group_symop_operation_xyz
  'x, y, z'

loop_
  _atom_site_type_symbol
  _atom_site_label
  _atom_site_symmetry_multiplicity
  _atom_site_fract_x
  _atom_site_fract_y
  _atom_site_fract_z
  _atom_site_occupancy
  Cd  Cd1       1.0  0.74951  0.26892  0.04316  1.0000
  Cd  Cd2       1.0  0.04316  0.74951  0.26893  1.0000
  Cd  Cd3       1.0  0.26891  0.04316  0.74951  1.0000
  Cd  Cd4       1.0  0.25049  0.73108  0.95684  1.0000
  Cd  Cd5       1.0  0.95684  0.25049  0.73107  1.0000
  Cd  Cd6       1.0  0.73108  0.95685  0.25049  1.0000
  H   H1        1.0  0.20135  0.33992  0.42675  1.0000
  H   H2        1.0  0.42675  0.20133  0.33993  1.0000
  H   H3        1.0  0.33994  0.42676  0.20134  1.0000
  H   H4        1.0  0.79865  0.66007  0.57323  1.0000
  H   H5        1.0  0.57324  0.79867  0.66008  1.0000
  H   H6        1.0  0.66008  0.57325  0.79866  1.0000
  H   H7        1.0  0.09280  0.13601  0.33207  1.0000
  H   H8        1.0  0.33207  0.09280  0.13602  1.0000
  H   H9        1.0  0.13603  0.33208  0.09280  1.0000
  H   H10       1.0  0.90719  0.86398  0.66792  1.0000
  H   H11       1.0  0.66793  0.90721  0.86399  1.0000
  H   H12       1.0  0.86400  0.66794  0.90722  1.0000
  H   H13       1.0  0.72104  0.45677  0.26751  1.0000
  H   H14       1.0  0.26750  0.72103  0.45678  1.0000
  H   H15       1.0  0.45677  0.26750  0.72103  1.0000
  H   H16       1.0  0.27897  0.54324  0.73250  1.0000
  H   H17       1.0  0.73249  0.27896  0.54322  1.0000
  H   H18       1.0  0.54323  0.73250  0.27897  1.0000
  H   H19       1.0  0.54872  0.32637  0.13689  1.0000
  H   H20       1.0  0.13688  0.54871  0.32638  1.0000
  H   H21       1.0  0.32639  0.13686  0.54871  1.0000
  H   H22       1.0  0.45129  0.67363  0.86313  1.0000
  H   H23       1.0  0.86311  0.45127  0.67361  1.0000
  H   H24       1.0  0.67362  0.86313  0.45129  1.0000
  C   C1        1.0  0.96870  0.24579  0.25998  1.0000
  C   C2        1.0  0.25998  0.96869  0.24578  1.0000
  C   C3        1.0  0.24580  0.26000  0.96871  1.0000
  C   C4        1.0  0.03128  0.75419  0.73999  1.0000
  C   C5        1.0  0.74001  0.03131  0.75421  1.0000
  C   C6        1.0  0.75421  0.74002  0.03129  1.0000
  C   C7        1.0  0.09073  0.24323  0.38206  1.0000
  C   C8        1.0  0.38206  0.09072  0.24324  1.0000
  C   C9        1.0  0.24325  0.38205  0.09072  1.0000
  C   C10       1.0  0.90926  0.75676  0.61794  1.0000
  C   C11       1.0  0.61794  0.90929  0.75677  1.0000
  C   C12       1.0  0.75677  0.61796  0.90929  1.0000
  C   C13       1.0  0.05419  0.24948  0.51065  1.0000
  C   C14       1.0  0.51064  0.05419  0.24948  1.0000
  C   C15       1.0  0.24949  0.51064  0.05418  1.0000
  C   C16       1.0  0.94581  0.75052  0.48936  1.0000
  C   C17       1.0  0.48935  0.94583  0.75052  1.0000
  C   C18       1.0  0.75050  0.48935  0.94583  1.0000
  O   O1        1.0  0.83503  0.13160  0.17785  1.0000
  O   O2        1.0  0.17785  0.83502  0.13160  1.0000
  O   O3        1.0  0.13162  0.17786  0.83503  1.0000
  O   O4        1.0  0.16495  0.86838  0.82215  1.0000
  O   O5        1.0  0.82215  0.16498  0.86839  1.0000
  O   O6        1.0  0.86840  0.82215  0.16498  1.0000
  O   O7        1.0  0.00109  0.36196  0.24058  1.0000
  O   O8        1.0  0.24060  0.00106  0.36195  1.0000
  O   O9        1.0  0.36196  0.24059  0.00109  1.0000
  O   O10       1.0  0.99892  0.63805  0.75941  1.0000
  O   O11       1.0  0.75942  0.99892  0.63805  1.0000
  O   O12       1.0  0.63805  0.75941  0.99892  1.0000
  O   O13       1.0  0.86808  0.51415  0.05710  1.0000
  O   O14       1.0  0.05708  0.86808  0.51414  1.0000
  O   O15       1.0  0.51415  0.05710  0.86808  1.0000
  O   O16       1.0  0.13192  0.48585  0.94290  1.0000
  O   O17       1.0  0.94290  0.13192  0.48584  1.0000
  O   O18       1.0  0.48585  0.94292  0.13192  1.0000
  O   O19       1.0  0.63099  0.36269  0.87033  1.0000
  O   O20       1.0  0.87033  0.63100  0.36268  1.0000
  O   O21       1.0  0.36267  0.87032  0.63099  1.0000
  O   O22       1.0  0.36900  0.63732  0.12967  1.0000
  O   O23       1.0  0.12968  0.36902  0.63731  1.0000
  O   O24       1.0  0.63732  0.12967  0.36901  1.0000
  O   O25       1.0  0.65258  0.34534  0.19871  1.0000
  O   O26       1.0  0.19870  0.65257  0.34535  1.0000
  O   O27       1.0  0.34534  0.19869  0.65257  1.0000
  O   O28       1.0  0.34742  0.65466  0.80130  1.0000
  O   O29       1.0  0.80129  0.34741  0.65465  1.0000
  O   O30       1.0  0.65465  0.80131  0.34743  1.0000
