data_image0
_chemical_formula_structural       Co2H24C24O12
_chemical_formula_sum              "Co2 H24 C24 O12"
_cell_length_a       5.38883
_cell_length_b       8.97631
_cell_length_c       12.2514
_cell_angle_alpha    90.9989
_cell_angle_beta     89.9956
_cell_angle_gamma    89.9943

_space_group_name_H-M_alt    "P 1"
_space_group_IT_number       1

loop_
  _space_group_symop_operation_xyz
  'x, y, z'

loop_
  _atom_site_type_symbol
  _atom_site_label
  _atom_site_symmetry_multiplicity
  _atom_site_fract_x
  _atom_site_fract_y
  _atom_site_fract_z
  _atom_site_occupancy
  Co  Co1       1.0  0.99999  0.50000  0.50000  1.0000
  Co  Co2       1.0  0.50000  1.00000  0.50000  1.0000
  H   H1        1.0  0.89031  0.39728  0.26751  1.0000
  H   H2        1.0  0.39025  0.10272  0.73248  1.0000
  H   H3        1.0  0.10970  0.60273  0.73249  1.0000
  H   H4        1.0  0.60976  0.89728  0.26752  1.0000
  H   H5        1.0  0.68540  0.55085  0.14402  1.0000
  H   H6        1.0  0.18545  0.94920  0.85598  1.0000
  H   H7        1.0  0.31460  0.44915  0.85598  1.0000
  H   H8        1.0  0.81455  0.05079  0.14401  1.0000
  H   H9        1.0  0.38014  0.24609  0.19619  1.0000
  H   H10       1.0  0.88021  0.25389  0.80380  1.0000
  H   H11       1.0  0.61983  0.75390  0.80381  1.0000
  H   H12       1.0  0.11979  0.74611  0.19621  1.0000
  H   H13       1.0  0.35600  0.33066  0.03429  1.0000
  H   H14       1.0  0.85596  0.16924  0.96570  1.0000
  H   H15       1.0  0.64400  0.66935  0.96571  1.0000
  H   H16       1.0  0.14405  0.83076  0.03430  1.0000
  H   H17       1.0  0.51824  0.49191  0.40909  1.0000
  H   H18       1.0  0.01827  0.00804  0.59092  1.0000
  H   H19       1.0  0.48175  0.50808  0.59091  1.0000
  H   H20       1.0  0.98174  0.99195  0.40908  1.0000
  H   H21       1.0  0.63183  0.34200  0.45783  1.0000
  H   H22       1.0  0.13180  0.15802  0.54218  1.0000
  H   H23       1.0  0.36818  0.65800  0.54217  1.0000
  H   H24       1.0  0.86820  0.84197  0.45782  1.0000
  C   C1        1.0  0.23855  0.22371  0.35969  1.0000
  C   C2        1.0  0.73862  0.27631  0.64033  1.0000
  C   C3        1.0  0.76144  0.77629  0.64031  1.0000
  C   C4        1.0  0.26138  0.72369  0.35966  1.0000
  C   C5        1.0  0.04131  0.36897  0.21162  1.0000
  C   C6        1.0  0.54136  0.13104  0.78835  1.0000
  C   C7        1.0  0.95868  0.63102  0.78839  1.0000
  C   C8        1.0  0.45864  0.86898  0.21165  1.0000
  C   C9        1.0  0.82344  0.52826  0.08061  1.0000
  C   C10       1.0  0.32345  0.97179  0.91940  1.0000
  C   C11       1.0  0.17657  0.47176  0.91940  1.0000
  C   C12       1.0  0.67655  0.02821  0.08060  1.0000
  C   C13       1.0  0.02348  0.43179  0.10329  1.0000
  C   C14       1.0  0.52349  0.06820  0.89668  1.0000
  C   C15       1.0  0.97651  0.56821  0.89671  1.0000
  C   C16       1.0  0.47650  0.93180  0.10332  1.0000
  C   C17       1.0  0.22743  0.28265  0.24858  1.0000
  C   C18       1.0  0.72745  0.21733  0.75140  1.0000
  C   C19       1.0  0.77256  0.71735  0.75142  1.0000
  C   C20       1.0  0.27255  0.78267  0.24859  1.0000
  C   C21       1.0  0.19958  0.40479  0.02009  1.0000
  C   C22       1.0  0.69956  0.09514  0.97990  1.0000
  C   C23       1.0  0.80042  0.59522  0.97992  1.0000
  C   C24       1.0  0.30045  0.90485  0.02009  1.0000
  O   O1        1.0  0.12516  0.28370  0.44191  1.0000
  O   O2        1.0  0.62516  0.21631  0.55813  1.0000
  O   O3        1.0  0.87483  0.71630  0.55809  1.0000
  O   O4        1.0  0.37485  0.78369  0.44186  1.0000
  O   O5        1.0  0.36872  0.10500  0.36938  1.0000
  O   O6        1.0  0.86875  0.39502  0.63062  1.0000
  O   O7        1.0  0.63127  0.89500  0.63062  1.0000
  O   O8        1.0  0.13124  0.60499  0.36938  1.0000
  O   O9        1.0  0.67100  0.43405  0.41485  1.0000
  O   O10       1.0  0.17096  0.06594  0.58515  1.0000
  O   O11       1.0  0.32900  0.56594  0.58514  1.0000
  O   O12       1.0  0.82905  0.93405  0.41485  1.0000
