data_image0
_chemical_formula_structural       K2CaH32C28S4O26
_chemical_formula_sum              "K2 Ca1 H32 C28 S4 O26"
_cell_length_a       8.08444
_cell_length_b       9.87815
_cell_length_c       12.706
_cell_angle_alpha    98.4477
_cell_angle_beta     97.6733
_cell_angle_gamma    105.051

_space_group_name_H-M_alt    "P 1"
_space_group_IT_number       1

loop_
  _space_group_symop_operation_xyz
  'x, y, z'

loop_
  _atom_site_type_symbol
  _atom_site_label
  _atom_site_symmetry_multiplicity
  _atom_site_fract_x
  _atom_site_fract_y
  _atom_site_fract_z
  _atom_site_occupancy
  K   K1        1.0  0.31422  0.04055  0.40815  1.0000
  K   K2        1.0  0.68578  0.95945  0.59184  1.0000
  Ca  Ca1       1.0  0.00000  0.50000  0.50000  1.0000
  H   H1        1.0  0.51809  0.69564  0.78725  1.0000
  H   H2        1.0  0.48191  0.30436  0.21276  1.0000
  H   H3        1.0  0.64362  0.76475  0.06561  1.0000
  H   H4        1.0  0.35638  0.23525  0.93439  1.0000
  H   H5        1.0  0.62621  0.77937  0.25973  1.0000
  H   H6        1.0  0.37379  0.22063  0.74027  1.0000
  H   H7        1.0  0.10024  0.50155  0.17666  1.0000
  H   H8        1.0  0.89976  0.49845  0.82334  1.0000
  H   H9        1.0  0.12118  0.48507  0.97988  1.0000
  H   H10       1.0  0.87882  0.51493  0.02012  1.0000
  H   H11       1.0  0.98252  0.82505  0.22660  1.0000
  H   H12       1.0  0.01749  0.17495  0.77340  1.0000
  H   H13       1.0  0.21873  0.47512  0.69660  1.0000
  H   H14       1.0  0.78127  0.52488  0.30340  1.0000
  H   H15       1.0  0.30114  0.40698  0.60273  1.0000
  H   H16       1.0  0.69886  0.59302  0.39727  1.0000
  H   H17       1.0  0.47416  0.38237  0.37112  1.0000
  H   H18       1.0  0.52584  0.61763  0.62888  1.0000
  H   H19       1.0  0.60405  0.28752  0.35826  1.0000
  H   H20       1.0  0.39595  0.71248  0.64174  1.0000
  H   H21       1.0  0.90452  0.90149  0.36716  1.0000
  H   H22       1.0  0.09549  0.09851  0.63284  1.0000
  H   H23       1.0  0.92666  0.74627  0.36493  1.0000
  H   H24       1.0  0.07335  0.25373  0.63507  1.0000
  H   H25       1.0  0.84693  0.75213  0.95385  1.0000
  H   H26       1.0  0.15307  0.24787  0.04614  1.0000
  H   H27       1.0  0.84420  0.73911  0.75693  1.0000
  H   H28       1.0  0.15579  0.26089  0.24306  1.0000
  H   H29       1.0  0.38617  0.98222  0.82301  1.0000
  H   H30       1.0  0.61383  0.01777  0.17699  1.0000
  H   H31       1.0  0.38285  0.00079  0.02197  1.0000
  H   H32       1.0  0.61715  0.99921  0.97803  1.0000
  C   C1        1.0  0.38065  0.62557  0.01064  1.0000
  C   C2        1.0  0.61935  0.37442  0.98936  1.0000
  C   C3        1.0  0.52467  0.70704  0.08928  1.0000
  C   C4        1.0  0.47533  0.29296  0.91072  1.0000
  C   C5        1.0  0.51586  0.71421  0.19845  1.0000
  C   C6        1.0  0.48414  0.28579  0.80155  1.0000
  C   C7        1.0  0.36304  0.63948  0.22889  1.0000
  C   C8        1.0  0.63696  0.36052  0.77111  1.0000
  C   C9        1.0  0.21877  0.55783  0.15157  1.0000
  C   C10       1.0  0.78123  0.44217  0.84844  1.0000
  C   C11       1.0  0.22941  0.55031  0.04245  1.0000
  C   C12       1.0  0.77059  0.44969  0.95755  1.0000
  C   C13       1.0  0.38092  0.61913  0.89287  1.0000
  C   C14       1.0  0.61908  0.38086  0.10713  1.0000
  C   C15       1.0  0.11796  0.87425  0.99962  1.0000
  C   C16       1.0  0.88204  0.12575  0.00038  1.0000
  C   C17       1.0  0.96510  0.80149  0.92556  1.0000
  C   C18       1.0  0.03490  0.19851  0.07444  1.0000
  C   C19       1.0  0.96300  0.79353  0.81514  1.0000
  C   C20       1.0  0.03699  0.20647  0.18486  1.0000
  C   C21       1.0  0.11491  0.85747  0.77908  1.0000
  C   C22       1.0  0.88509  0.14253  0.22092  1.0000
  C   C23       1.0  0.26865  0.93148  0.85197  1.0000
  C   C24       1.0  0.73135  0.06853  0.14803  1.0000
  C   C25       1.0  0.26810  0.94056  0.96228  1.0000
  C   C26       1.0  0.73189  0.05944  0.03772  1.0000
  C   C27       1.0  0.12441  0.88381  0.11850  1.0000
  C   C28       1.0  0.87559  0.11619  0.88149  1.0000
  S   S1        1.0  0.35980  0.64580  0.36923  1.0000
  S   S2        1.0  0.64020  0.35420  0.63077  1.0000
  S   S3        1.0  0.10925  0.83978  0.63729  1.0000
  S   S4        1.0  0.89075  0.16022  0.36271  1.0000
  O   O1        1.0  0.18173  0.56555  0.37630  1.0000
  O   O2        1.0  0.81827  0.43445  0.62370  1.0000
  O   O3        1.0  0.48718  0.57177  0.40780  1.0000
  O   O4        1.0  0.51282  0.42823  0.59220  1.0000
  O   O5        1.0  0.41168  0.79618  0.42125  1.0000
  O   O6        1.0  0.58832  0.20382  0.57875  1.0000
  O   O7        1.0  0.25052  0.54941  0.82433  1.0000
  O   O8        1.0  0.74948  0.45059  0.17567  1.0000
  O   O9        1.0  0.52777  0.69476  0.86962  1.0000
  O   O10       1.0  0.47223  0.30524  0.13038  1.0000
  O   O11       1.0  0.22095  0.97425  0.61846  1.0000
  O   O12       1.0  0.77905  0.02576  0.38154  1.0000
  O   O13       1.0  0.18229  0.71825  0.60735  1.0000
  O   O14       1.0  0.81772  0.28175  0.39265  1.0000
  O   O15       1.0  0.92647  0.80433  0.58628  1.0000
  O   O16       1.0  0.07353  0.19567  0.41371  1.0000
  O   O17       1.0  0.25657  0.94991  0.18593  1.0000
  O   O18       1.0  0.74344  0.05009  0.81407  1.0000
  O   O19       1.0  0.97487  0.81401  0.14335  1.0000
  O   O20       1.0  0.02514  0.18599  0.85665  1.0000
  O   O21       1.0  0.18871  0.41839  0.62057  1.0000
  O   O22       1.0  0.81130  0.58161  0.37943  1.0000
  O   O23       1.0  0.48442  0.29162  0.33165  1.0000
  O   O24       1.0  0.51558  0.70838  0.66835  1.0000
  O   O25       1.0  0.98037  0.84134  0.34706  1.0000
  O   O26       1.0  0.01964  0.15866  0.65294  1.0000
