data_image0
_chemical_formula_structural       Tb2H20C26N4O18
_chemical_formula_sum              "Tb2 H20 C26 N4 O18"
_cell_length_a       8.2794
_cell_length_b       9.74792
_cell_length_c       9.92965
_cell_angle_alpha    101.479
_cell_angle_beta     108.662
_cell_angle_gamma    100.523

_space_group_name_H-M_alt    "P 1"
_space_group_IT_number       1

loop_
  _space_group_symop_operation_xyz
  'x, y, z'

loop_
  _atom_site_type_symbol
  _atom_site_label
  _atom_site_symmetry_multiplicity
  _atom_site_fract_x
  _atom_site_fract_y
  _atom_site_fract_z
  _atom_site_occupancy
  Tb  Tb1       1.0  0.40268  0.65324  0.16949  1.0000
  Tb  Tb2       1.0  0.59732  0.34676  0.83051  1.0000
  H   H1        1.0  0.28076  0.35588  0.28355  1.0000
  H   H2        1.0  0.71923  0.64412  0.71645  1.0000
  H   H3        1.0  0.14482  0.17970  0.40106  1.0000
  H   H4        1.0  0.85518  0.82030  0.59894  1.0000
  H   H5        1.0  0.11104  0.91442  0.30417  1.0000
  H   H6        1.0  0.88896  0.08558  0.69583  1.0000
  H   H7        1.0  0.35392  0.98544  0.00974  1.0000
  H   H8        1.0  0.64608  0.01456  0.99026  1.0000
  H   H9        1.0  0.12442  0.80014  0.74793  1.0000
  H   H10       1.0  0.87559  0.19986  0.25207  1.0000
  H   H11       1.0  0.12437  0.53861  0.67708  1.0000
  H   H12       1.0  0.87563  0.46139  0.32292  1.0000
  H   H13       1.0  0.29278  0.46232  0.51627  1.0000
  H   H14       1.0  0.70722  0.53768  0.48373  1.0000
  H   H15       1.0  0.44444  0.87993  0.48667  1.0000
  H   H16       1.0  0.55556  0.12007  0.51333  1.0000
  H   H17       1.0  0.75431  0.59557  0.18917  1.0000
  H   H18       1.0  0.24569  0.40443  0.81083  1.0000
  H   H19       1.0  0.77718  0.76262  0.27452  1.0000
  H   H20       1.0  0.22281  0.23738  0.72548  1.0000
  C   C1        1.0  0.41884  0.28594  0.07350  1.0000
  C   C2        1.0  0.58116  0.71406  0.92650  1.0000
  C   C3        1.0  0.32702  0.18485  0.13887  1.0000
  C   C4        1.0  0.67298  0.81515  0.86113  1.0000
  C   C5        1.0  0.26548  0.23954  0.24865  1.0000
  C   C6        1.0  0.73452  0.76046  0.75135  1.0000
  C   C7        1.0  0.19044  0.14332  0.31231  1.0000
  C   C8        1.0  0.80956  0.85668  0.68768  1.0000
  C   C9        1.0  0.17277  0.99633  0.26333  1.0000
  C   C10       1.0  0.82723  0.00367  0.73667  1.0000
  C   C11       1.0  0.30839  0.03645  0.09312  1.0000
  C   C12       1.0  0.69161  0.96355  0.90689  1.0000
  C   C13       1.0  0.29507  0.02138  0.66532  1.0000
  C   C14       1.0  0.70494  0.97862  0.33468  1.0000
  C   C15       1.0  0.28136  0.86119  0.62157  1.0000
  C   C16       1.0  0.71864  0.13881  0.37843  1.0000
  C   C17       1.0  0.18965  0.76267  0.67402  1.0000
  C   C18       1.0  0.81035  0.23733  0.32598  1.0000
  C   C19       1.0  0.19009  0.61748  0.63506  1.0000
  C   C20       1.0  0.80991  0.38252  0.36494  1.0000
  C   C21       1.0  0.27875  0.57178  0.54502  1.0000
  C   C22       1.0  0.72125  0.42822  0.45497  1.0000
  C   C23       1.0  0.36792  0.81136  0.53098  1.0000
  C   C24       1.0  0.63208  0.18864  0.46902  1.0000
  C   C25       1.0  0.98729  0.50727  0.07518  1.0000
  C   C26       1.0  0.01271  0.49273  0.92482  1.0000
  N   N1        1.0  0.23011  0.94443  0.15418  1.0000
  N   N2        1.0  0.76989  0.05557  0.84582  1.0000
  N   N3        1.0  0.36482  0.66881  0.49317  1.0000
  N   N4        1.0  0.63518  0.33119  0.50683  1.0000
  O   O1        1.0  0.20777  0.80372  0.10809  1.0000
  O   O2        1.0  0.79223  0.19628  0.89191  1.0000
  O   O3        1.0  0.48972  0.23278  0.98702  1.0000
  O   O4        1.0  0.51028  0.76722  0.01298  1.0000
  O   O5        1.0  0.42051  0.41840  0.11027  1.0000
  O   O6        1.0  0.57949  0.58160  0.88973  1.0000
  O   O7        1.0  0.45221  0.62525  0.40967  1.0000
  O   O8        1.0  0.54778  0.37475  0.59033  1.0000
  O   O9        1.0  0.43989  0.10657  0.67797  1.0000
  O   O10       1.0  0.56011  0.89344  0.32202  1.0000
  O   O11       1.0  0.16590  0.05916  0.68702  1.0000
  O   O12       1.0  0.83410  0.94084  0.31298  1.0000
  O   O13       1.0  0.82855  0.47460  0.06906  1.0000
  O   O14       1.0  0.17145  0.52540  0.93094  1.0000
  O   O15       1.0  0.12449  0.54984  0.19105  1.0000
  O   O16       1.0  0.87551  0.45016  0.80895  1.0000
  O   O17       1.0  0.71224  0.65803  0.25451  1.0000
  O   O18       1.0  0.28776  0.34197  0.74549  1.0000
