data_image0
_chemical_formula_structural       Tl2B2H26C42S12N6
_chemical_formula_sum              "Tl2 B2 H26 C42 S12 N6"
_cell_length_a       8.18287
_cell_length_b       11.1829
_cell_length_c       14.5605
_cell_angle_alpha    95.1384
_cell_angle_beta     89.9997
_cell_angle_gamma    90.0005

_space_group_name_H-M_alt    "P 1"
_space_group_IT_number       1

loop_
  _space_group_symop_operation_xyz
  'x, y, z'

loop_
  _atom_site_type_symbol
  _atom_site_label
  _atom_site_symmetry_multiplicity
  _atom_site_fract_x
  _atom_site_fract_y
  _atom_site_fract_z
  _atom_site_occupancy
  Tl  Tl1       1.0  0.96563  0.81012  0.54483  1.0000
  Tl  Tl2       1.0  0.46563  0.18988  0.45517  1.0000
  B   B1        1.0  0.54633  0.90240  0.73183  1.0000
  B   B2        1.0  0.04633  0.09760  0.26817  1.0000
  H   H1        1.0  0.31971  0.06914  0.69227  1.0000
  H   H2        1.0  0.81971  0.93086  0.30773  1.0000
  H   H3        1.0  0.21596  0.27546  0.68550  1.0000
  H   H4        1.0  0.71596  0.72453  0.31450  1.0000
  H   H5        1.0  0.40249  0.45167  0.70791  1.0000
  H   H6        1.0  0.90249  0.54832  0.29209  1.0000
  H   H7        1.0  0.69627  0.42317  0.74059  1.0000
  H   H8        1.0  0.19628  0.57683  0.25941  1.0000
  H   H9        1.0  0.50143  0.00622  0.90090  1.0000
  H   H10       1.0  0.00142  0.99377  0.09910  1.0000
  H   H11       1.0  0.54095  0.03425  0.07012  1.0000
  H   H12       1.0  0.04094  0.96575  0.92988  1.0000
  H   H13       1.0  0.70457  0.89101  0.15092  1.0000
  H   H14       1.0  0.20457  0.10899  0.84908  1.0000
  H   H15       1.0  0.82944  0.71107  0.06400  1.0000
  H   H16       1.0  0.32944  0.28894  0.93600  1.0000
  H   H17       1.0  0.30356  0.76023  0.77915  1.0000
  H   H18       1.0  0.80356  0.23977  0.22085  1.0000
  H   H19       1.0  0.11157  0.58883  0.75465  1.0000
  H   H20       1.0  0.61157  0.41116  0.24535  1.0000
  H   H21       1.0  0.07923  0.47828  0.60005  1.0000
  H   H22       1.0  0.57923  0.52172  0.39995  1.0000
  H   H23       1.0  0.23160  0.54350  0.46479  1.0000
  H   H24       1.0  0.73161  0.45651  0.53521  1.0000
  H   H25       1.0  0.42179  0.93189  0.77268  1.0000
  H   H26       1.0  0.92178  0.06811  0.22732  1.0000
  C   C1        1.0  0.81413  0.03185  0.74288  1.0000
  C   C2        1.0  0.31413  0.96815  0.25712  1.0000
  C   C3        1.0  0.56792  0.12865  0.72479  1.0000
  C   C4        1.0  0.06793  0.87135  0.27521  1.0000
  C   C5        1.0  0.40230  0.14514  0.70525  1.0000
  C   C6        1.0  0.90230  0.85486  0.29475  1.0000
  C   C7        1.0  0.34474  0.26208  0.70067  1.0000
  C   C8        1.0  0.84475  0.73792  0.29933  1.0000
  C   C9        1.0  0.44915  0.36152  0.71378  1.0000
  C   C10       1.0  0.94916  0.63847  0.28622  1.0000
  C   C11       1.0  0.61438  0.34601  0.73273  1.0000
  C   C12       1.0  0.11439  0.65399  0.26727  1.0000
  C   C13       1.0  0.67184  0.22955  0.73866  1.0000
  C   C14       1.0  0.17185  0.77045  0.26134  1.0000
  C   C15       1.0  0.71405  0.70776  0.76161  1.0000
  C   C16       1.0  0.21405  0.29224  0.23839  1.0000
  C   C17       1.0  0.64286  0.84126  0.88592  1.0000
  C   C18       1.0  0.14285  0.15873  0.11408  1.0000
  C   C19       1.0  0.57353  0.94194  0.93540  1.0000
  C   C20       1.0  0.07352  0.05806  0.06459  1.0000
  C   C21       1.0  0.59647  0.95748  0.03049  1.0000
  C   C22       1.0  0.09646  0.04252  0.96951  1.0000
  C   C23       1.0  0.68819  0.87563  0.07661  1.0000
  C   C24       1.0  0.18818  0.12437  0.92339  1.0000
  C   C25       1.0  0.75801  0.77502  0.02836  1.0000
  C   C26       1.0  0.25801  0.22498  0.97164  1.0000
  C   C27       1.0  0.73379  0.75858  0.93310  1.0000
  C   C28       1.0  0.23379  0.24142  0.06690  1.0000
  C   C29       1.0  0.54618  0.86211  0.55089  1.0000
  C   C30       1.0  0.04618  0.13789  0.44911  1.0000
  C   C31       1.0  0.37736  0.74871  0.63561  1.0000
  C   C32       1.0  0.87737  0.25129  0.36439  1.0000
  C   C33       1.0  0.28990  0.71256  0.71115  1.0000
  C   C34       1.0  0.78991  0.28744  0.28885  1.0000
  C   C35       1.0  0.18305  0.61560  0.69678  1.0000
  C   C36       1.0  0.68306  0.38440  0.30322  1.0000
  C   C37       1.0  0.16389  0.55349  0.60936  1.0000
  C   C38       1.0  0.66390  0.44651  0.39064  1.0000
  C   C39       1.0  0.24882  0.58919  0.53345  1.0000
  C   C40       1.0  0.74882  0.41082  0.46654  1.0000
  C   C41       1.0  0.35370  0.68776  0.54744  1.0000
  C   C42       1.0  0.85370  0.31225  0.45256  1.0000
  S   S1        1.0  0.96195  0.92810  0.74239  1.0000
  S   S2        1.0  0.46195  0.07191  0.25761  1.0000
  S   S3        1.0  0.86927  0.18291  0.75907  1.0000
  S   S4        1.0  0.36928  0.81709  0.24093  1.0000
  S   S5        1.0  0.73933  0.63929  0.65553  1.0000
  S   S6        1.0  0.23933  0.36071  0.34447  1.0000
  S   S7        1.0  0.80279  0.64363  0.85469  1.0000
  S   S8        1.0  0.30279  0.35637  0.14530  1.0000
  S   S9        1.0  0.67666  0.96728  0.51884  1.0000
  S   S10       1.0  0.17665  0.03273  0.48116  1.0000
  S   S11       1.0  0.46597  0.75770  0.46698  1.0000
  S   S12       1.0  0.96598  0.24230  0.53302  1.0000
  N   N1        1.0  0.64944  0.01913  0.72977  1.0000
  N   N2        1.0  0.14944  0.98087  0.27023  1.0000
  N   N3        1.0  0.63376  0.81110  0.79037  1.0000
  N   N4        1.0  0.13376  0.18890  0.20963  1.0000
  N   N5        1.0  0.49044  0.84286  0.63610  1.0000
  N   N6        1.0  0.99045  0.15715  0.36390  1.0000
