data_image0
_chemical_formula_structural       U2H28C16N4O14
_chemical_formula_sum              "U2 H28 C16 N4 O14"
_cell_length_a       8.64443
_cell_length_b       9.48269
_cell_length_c       9.64084
_cell_angle_alpha    61.4297
_cell_angle_beta     70.8175
_cell_angle_gamma    66.1495

_space_group_name_H-M_alt    "P 1"
_space_group_IT_number       1

loop_
  _space_group_symop_operation_xyz
  'x, y, z'

loop_
  _atom_site_type_symbol
  _atom_site_label
  _atom_site_symmetry_multiplicity
  _atom_site_fract_x
  _atom_site_fract_y
  _atom_site_fract_z
  _atom_site_occupancy
  U   U1        1.0  0.32876  0.81992  0.29358  1.0000
  U   U2        1.0  0.67124  0.18008  0.70642  1.0000
  H   H1        1.0  0.98490  0.43098  0.32362  1.0000
  H   H2        1.0  0.01509  0.56902  0.67638  1.0000
  H   H3        1.0  0.36096  0.41445  0.41487  1.0000
  H   H4        1.0  0.63904  0.58554  0.58514  1.0000
  H   H5        1.0  0.24995  0.52024  0.86069  1.0000
  H   H6        1.0  0.75006  0.47976  0.13931  1.0000
  H   H7        1.0  0.08121  0.70607  0.85624  1.0000
  H   H8        1.0  0.91879  0.29393  0.14376  1.0000
  H   H9        1.0  0.32244  0.62420  0.00892  1.0000
  H   H10       1.0  0.67757  0.37580  0.99108  1.0000
  H   H11       1.0  0.46265  0.66278  0.82359  1.0000
  H   H12       1.0  0.53735  0.33722  0.17641  1.0000
  H   H13       1.0  0.25208  0.96412  0.72155  1.0000
  H   H14       1.0  0.74792  0.03588  0.27845  1.0000
  H   H15       1.0  0.14421  0.91669  0.92336  1.0000
  H   H16       1.0  0.85579  0.08331  0.07664  1.0000
  H   H17       1.0  0.79172  0.65855  0.17848  1.0000
  H   H18       1.0  0.20828  0.34145  0.82152  1.0000
  H   H19       1.0  0.82754  0.76525  0.26801  1.0000
  H   H20       1.0  0.17246  0.23475  0.73199  1.0000
  H   H21       1.0  0.94443  0.77309  0.07533  1.0000
  H   H22       1.0  0.05557  0.22692  0.92467  1.0000
  H   H23       1.0  0.37164  0.14496  0.47830  1.0000
  H   H24       1.0  0.62835  0.85504  0.52170  1.0000
  H   H25       1.0  0.14246  0.21037  0.50493  1.0000
  H   H26       1.0  0.85754  0.78963  0.49507  1.0000
  H   H27       1.0  0.26642  0.22559  0.31304  1.0000
  H   H28       1.0  0.73358  0.77441  0.68696  1.0000
  C   C1        1.0  0.24714  0.72360  0.63557  1.0000
  C   C2        1.0  0.75286  0.27640  0.36443  1.0000
  C   C3        1.0  0.21944  0.65759  0.81582  1.0000
  C   C4        1.0  0.78057  0.34241  0.18418  1.0000
  C   C5        1.0  0.32795  0.69939  0.87956  1.0000
  C   C6        1.0  0.67205  0.30061  0.12043  1.0000
  C   C7        1.0  0.26847  0.88711  0.84677  1.0000
  C   C8        1.0  0.73153  0.11289  0.15323  1.0000
  C   C9        1.0  0.39439  0.93337  0.88277  1.0000
  C   C10       1.0  0.60561  0.06663  0.11723  1.0000
  C   C11       1.0  0.14887  0.54727  0.31092  1.0000
  C   C12       1.0  0.85113  0.45273  0.68908  1.0000
  C   C13       1.0  0.88985  0.69294  0.19326  1.0000
  C   C14       1.0  0.11015  0.30706  0.80674  1.0000
  C   C15       1.0  0.25985  0.23749  0.42303  1.0000
  C   C16       1.0  0.74015  0.76252  0.57697  1.0000
  N   N1        1.0  0.02014  0.53970  0.26808  1.0000
  N   N2        1.0  0.97986  0.46030  0.73192  1.0000
  N   N3        1.0  0.26247  0.40361  0.38863  1.0000
  N   N4        1.0  0.73752  0.59639  0.61137  1.0000
  O   O1        1.0  0.15910  0.01866  0.24928  1.0000
  O   O2        1.0  0.84090  0.98134  0.75072  1.0000
  O   O3        1.0  0.49957  0.62171  0.33158  1.0000
  O   O4        1.0  0.50042  0.37829  0.66842  1.0000
  O   O5        1.0  0.16018  0.70048  0.56722  1.0000
  O   O6        1.0  0.83982  0.29953  0.43278  1.0000
  O   O7        1.0  0.35910  0.80113  0.54719  1.0000
  O   O8        1.0  0.64090  0.19887  0.45281  1.0000
  O   O9        1.0  0.47429  0.03281  0.76877  1.0000
  O   O10       1.0  0.52571  0.96719  0.23123  1.0000
  O   O11       1.0  0.41824  0.86741  0.02753  1.0000
  O   O12       1.0  0.58176  0.13260  0.97247  1.0000
  O   O13       1.0  0.16143  0.69244  0.27377  1.0000
  O   O14       1.0  0.83857  0.30756  0.72623  1.0000
