data_image0
_chemical_formula_structural       Hg4H20C28Cl4O4
_chemical_formula_sum              "Hg4 H20 C28 Cl4 O4"
_cell_length_a       7.37561
_cell_length_b       9.45822
_cell_length_c       10.9518
_cell_angle_alpha    89.9999
_cell_angle_beta     90
_cell_angle_gamma    101.567

_space_group_name_H-M_alt    "P 1"
_space_group_IT_number       1

loop_
  _space_group_symop_operation_xyz
  'x, y, z'

loop_
  _atom_site_type_symbol
  _atom_site_label
  _atom_site_symmetry_multiplicity
  _atom_site_fract_x
  _atom_site_fract_y
  _atom_site_fract_z
  _atom_site_occupancy
  Hg  Hg1       1.0  0.00772  0.79832  0.42324  1.0000
  Hg  Hg2       1.0  0.00774  0.29832  0.07677  1.0000
  Hg  Hg3       1.0  0.99227  0.20168  0.57677  1.0000
  Hg  Hg4       1.0  0.99226  0.70168  0.92323  1.0000
  H   H1        1.0  0.60192  0.31353  0.56860  1.0000
  H   H2        1.0  0.60195  0.81355  0.93140  1.0000
  H   H3        1.0  0.39806  0.68645  0.43140  1.0000
  H   H4        1.0  0.39807  0.18646  0.06860  1.0000
  H   H5        1.0  0.48906  0.22817  0.36205  1.0000
  H   H6        1.0  0.48908  0.72819  0.13795  1.0000
  H   H7        1.0  0.51094  0.77182  0.63795  1.0000
  H   H8        1.0  0.51093  0.27181  0.86205  1.0000
  H   H9        1.0  0.58662  0.38694  0.18047  1.0000
  H   H10       1.0  0.58663  0.88694  0.31953  1.0000
  H   H11       1.0  0.41339  0.61307  0.81953  1.0000
  H   H12       1.0  0.41337  0.11307  0.68047  1.0000
  H   H13       1.0  0.79841  0.62133  0.20493  1.0000
  H   H14       1.0  0.79844  0.12133  0.29508  1.0000
  H   H15       1.0  0.20159  0.37867  0.79507  1.0000
  H   H16       1.0  0.20156  0.87867  0.70492  1.0000
  H   H17       1.0  0.76905  0.47593  0.70006  1.0000
  H   H18       1.0  0.76906  0.97595  0.79994  1.0000
  H   H19       1.0  0.23094  0.52405  0.29993  1.0000
  H   H20       1.0  0.23094  0.02405  0.20007  1.0000
  C   C1        1.0  0.82003  0.60383  0.40097  1.0000
  C   C2        1.0  0.82005  0.10384  0.09904  1.0000
  C   C3        1.0  0.17996  0.39617  0.59904  1.0000
  C   C4        1.0  0.17995  0.89617  0.90097  1.0000
  C   C5        1.0  0.76394  0.51527  0.50339  1.0000
  C   C6        1.0  0.76395  0.01528  0.99661  1.0000
  C   C7        1.0  0.23605  0.48472  0.49661  1.0000
  C   C8        1.0  0.23605  0.98472  0.00339  1.0000
  C   C9        1.0  0.64556  0.38014  0.48816  1.0000
  C   C10       1.0  0.64559  0.88015  0.01184  1.0000
  C   C11       1.0  0.35442  0.61986  0.51184  1.0000
  C   C12       1.0  0.35442  0.11986  0.98816  1.0000
  C   C13       1.0  0.58168  0.33273  0.37263  1.0000
  C   C14       1.0  0.58170  0.83274  0.12737  1.0000
  C   C15       1.0  0.41831  0.66727  0.62737  1.0000
  C   C16       1.0  0.41831  0.16727  0.87263  1.0000
  C   C17       1.0  0.63602  0.42125  0.27169  1.0000
  C   C18       1.0  0.63604  0.92125  0.22831  1.0000
  C   C19       1.0  0.36397  0.57876  0.72831  1.0000
  C   C20       1.0  0.36396  0.07876  0.77169  1.0000
  C   C21       1.0  0.75536  0.55582  0.28552  1.0000
  C   C22       1.0  0.75539  0.05583  0.21448  1.0000
  C   C23       1.0  0.24463  0.44418  0.71448  1.0000
  C   C24       1.0  0.24462  0.94418  0.78552  1.0000
  C   C25       1.0  0.82331  0.55701  0.62862  1.0000
  C   C26       1.0  0.82333  0.05704  0.87138  1.0000
  C   C27       1.0  0.17668  0.44297  0.37138  1.0000
  C   C28       1.0  0.17668  0.94297  0.12862  1.0000
  Cl  Cl1       1.0  0.24840  0.00328  0.44774  1.0000
  Cl  Cl2       1.0  0.24841  0.50329  0.05225  1.0000
  Cl  Cl3       1.0  0.75160  0.99672  0.55226  1.0000
  Cl  Cl4       1.0  0.75160  0.49671  0.94774  1.0000
  O   O1        1.0  0.92475  0.67203  0.65871  1.0000
  O   O2        1.0  0.92477  0.17205  0.84129  1.0000
  O   O3        1.0  0.07523  0.32795  0.34129  1.0000
  O   O4        1.0  0.07524  0.82795  0.15871  1.0000
