data_image0
_chemical_formula_structural       Cu4H8C28N4O16
_chemical_formula_sum              "Cu4 H8 C28 N4 O16"
_cell_length_a       8.34004
_cell_length_b       8.34002
_cell_length_c       10.51
_cell_angle_alpha    89.8809
_cell_angle_beta     89.8802
_cell_angle_gamma    60.2674

_space_group_name_H-M_alt    "P 1"
_space_group_IT_number       1

loop_
  _space_group_symop_operation_xyz
  'x, y, z'

loop_
  _atom_site_type_symbol
  _atom_site_label
  _atom_site_symmetry_multiplicity
  _atom_site_fract_x
  _atom_site_fract_y
  _atom_site_fract_z
  _atom_site_occupancy
  Cu  Cu1       1.0  0.55911  0.81293  0.83331  1.0000
  Cu  Cu2       1.0  0.18708  0.44090  0.66670  1.0000
  Cu  Cu3       1.0  0.44089  0.18707  0.16669  1.0000
  Cu  Cu4       1.0  0.81292  0.55910  0.33330  1.0000
  H   H1        1.0  0.25263  0.67090  0.17916  1.0000
  H   H2        1.0  0.32909  0.74739  0.32084  1.0000
  H   H3        1.0  0.74738  0.32910  0.82084  1.0000
  H   H4        1.0  0.67090  0.25261  0.67915  1.0000
  H   H5        1.0  0.96679  0.72674  0.06205  1.0000
  H   H6        1.0  0.27325  0.03323  0.43795  1.0000
  H   H7        1.0  0.03321  0.27326  0.93795  1.0000
  H   H8        1.0  0.72675  0.96677  0.56204  1.0000
  C   C1        1.0  0.36706  0.73102  0.01436  1.0000
  C   C2        1.0  0.26898  0.63295  0.48565  1.0000
  C   C3        1.0  0.63293  0.26898  0.98564  1.0000
  C   C4        1.0  0.73102  0.36705  0.51435  1.0000
  C   C5        1.0  0.23135  0.71398  0.08009  1.0000
  C   C6        1.0  0.28601  0.76867  0.41991  1.0000
  C   C7        1.0  0.76865  0.28602  0.91991  1.0000
  C   C8        1.0  0.71399  0.23133  0.58009  1.0000
  C   C9        1.0  0.07673  0.73881  0.01437  1.0000
  C   C10       1.0  0.26118  0.92329  0.48563  1.0000
  C   C11       1.0  0.92327  0.26119  0.98563  1.0000
  C   C12       1.0  0.73882  0.07671  0.51437  1.0000
  C   C13       1.0  0.06949  0.76465  0.88240  1.0000
  C   C14       1.0  0.23535  0.93053  0.61760  1.0000
  C   C15       1.0  0.93051  0.23535  0.11760  1.0000
  C   C16       1.0  0.76465  0.06947  0.38240  1.0000
  C   C17       1.0  0.21177  0.77799  0.82065  1.0000
  C   C18       1.0  0.22202  0.78825  0.67935  1.0000
  C   C19       1.0  0.78823  0.22201  0.17935  1.0000
  C   C20       1.0  0.77798  0.21175  0.32065  1.0000
  C   C21       1.0  0.54790  0.68968  0.07482  1.0000
  C   C22       1.0  0.31032  0.45210  0.42518  1.0000
  C   C23       1.0  0.45210  0.31032  0.92518  1.0000
  C   C24       1.0  0.68968  0.54789  0.57482  1.0000
  C   C25       1.0  0.91735  0.75249  0.81578  1.0000
  C   C26       1.0  0.24752  0.08266  0.68423  1.0000
  C   C27       1.0  0.08265  0.24751  0.18423  1.0000
  C   C28       1.0  0.75248  0.91734  0.31577  1.0000
  N   N1        1.0  0.35267  0.77049  0.88890  1.0000
  N   N2        1.0  0.22952  0.64735  0.61111  1.0000
  N   N3        1.0  0.64733  0.22951  0.11110  1.0000
  N   N4        1.0  0.77048  0.35265  0.38889  1.0000
  O   O1        1.0  0.66294  0.70642  0.00173  1.0000
  O   O2        1.0  0.29358  0.33707  0.49828  1.0000
  O   O3        1.0  0.33706  0.29358  0.99827  1.0000
  O   O4        1.0  0.70642  0.66293  0.50172  1.0000
  O   O5        1.0  0.57811  0.63426  0.18749  1.0000
  O   O6        1.0  0.36574  0.42189  0.31252  1.0000
  O   O7        1.0  0.42190  0.36574  0.81251  1.0000
  O   O8        1.0  0.63426  0.57810  0.68748  1.0000
  O   O9        1.0  0.95784  0.60317  0.75923  1.0000
  O   O10       1.0  0.39684  0.04217  0.74076  1.0000
  O   O11       1.0  0.04216  0.39683  0.24077  1.0000
  O   O12       1.0  0.60316  0.95783  0.25923  1.0000
  O   O13       1.0  0.75359  0.88507  0.83027  1.0000
  O   O14       1.0  0.11494  0.24642  0.66975  1.0000
  O   O15       1.0  0.24641  0.11493  0.16974  1.0000
  O   O16       1.0  0.88506  0.75358  0.33025  1.0000
