data_image0
_chemical_formula_structural       Ho2H12C16N2O16
_chemical_formula_sum              "Ho2 H12 C16 N2 O16"
_cell_length_a       6.31997
_cell_length_b       9.33174
_cell_length_c       9.75413
_cell_angle_alpha    72.5814
_cell_angle_beta     81.0185
_cell_angle_gamma    83.2713

_space_group_name_H-M_alt    "P 1"
_space_group_IT_number       1

loop_
  _space_group_symop_operation_xyz
  'x, y, z'

loop_
  _atom_site_type_symbol
  _atom_site_label
  _atom_site_symmetry_multiplicity
  _atom_site_fract_x
  _atom_site_fract_y
  _atom_site_fract_z
  _atom_site_occupancy
  Ho  Ho1       1.0  0.09196  0.29033  0.30316  1.0000
  Ho  Ho2       1.0  0.90802  0.70968  0.69682  1.0000
  H   H1        1.0  0.20729  0.02195  0.95748  1.0000
  H   H2        1.0  0.79273  0.97803  0.04252  1.0000
  H   H3        1.0  0.38868  0.79585  0.93269  1.0000
  H   H4        1.0  0.61136  0.20413  0.06733  1.0000
  H   H5        1.0  0.52834  0.61070  0.15198  1.0000
  H   H6        1.0  0.47169  0.38928  0.84806  1.0000
  H   H7        1.0  0.44805  0.67442  0.38929  1.0000
  H   H8        1.0  0.55194  0.32559  0.61073  1.0000
  H   H9        1.0  0.55020  0.23399  0.35839  1.0000
  H   H10       1.0  0.44978  0.76602  0.64160  1.0000
  H   H11       1.0  0.56489  0.34768  0.20578  1.0000
  H   H12       1.0  0.43510  0.65232  0.79421  1.0000
  C   C1        1.0  0.21314  0.99370  0.17295  1.0000
  C   C2        1.0  0.78687  0.00629  0.82706  1.0000
  C   C3        1.0  0.05931  0.44088  0.55858  1.0000
  C   C4        1.0  0.94067  0.55914  0.44140  1.0000
  C   C5        1.0  0.36534  0.81476  0.03890  1.0000
  C   C6        1.0  0.63469  0.18522  0.96112  1.0000
  C   C7        1.0  0.43978  0.71533  0.15957  1.0000
  C   C8        1.0  0.56025  0.28466  0.84046  1.0000
  C   C9        1.0  0.39408  0.75207  0.29106  1.0000
  C   C10       1.0  0.60591  0.24793  0.70895  1.0000
  C   C11       1.0  0.28321  0.88700  0.30033  1.0000
  C   C12       1.0  0.71680  0.11300  0.69968  1.0000
  C   C13       1.0  0.23484  0.92134  0.44228  1.0000
  C   C14       1.0  0.76514  0.07868  0.55770  1.0000
  C   C15       1.0  0.88086  0.48292  0.01598  1.0000
  C   C16       1.0  0.11913  0.51708  0.98401  1.0000
  N   N1        1.0  0.25615  0.94648  0.04848  1.0000
  N   N2        1.0  0.74386  0.05350  0.95153  1.0000
  O   O1        1.0  0.82518  0.38717  0.13619  1.0000
  O   O2        1.0  0.17482  0.61283  0.86379  1.0000
  O   O3        1.0  0.11476  0.12220  0.16231  1.0000
  O   O4        1.0  0.88525  0.87779  0.83768  1.0000
  O   O5        1.0  0.14800  0.32473  0.52583  1.0000
  O   O6        1.0  0.85199  0.67529  0.47417  1.0000
  O   O7        1.0  0.21063  0.05568  0.44639  1.0000
  O   O8        1.0  0.78938  0.94432  0.55361  1.0000
  O   O9        1.0  0.76056  0.55179  0.92179  1.0000
  O   O10       1.0  0.23942  0.44823  0.07820  1.0000
  O   O11       1.0  0.22181  0.80749  0.55686  1.0000
  O   O12       1.0  0.77816  0.19253  0.44314  1.0000
  O   O13       1.0  0.05699  0.47102  0.67721  1.0000
  O   O14       1.0  0.94298  0.52897  0.32278  1.0000
  O   O15       1.0  0.46023  0.28620  0.28082  1.0000
  O   O16       1.0  0.53976  0.71379  0.71916  1.0000
