data_image0
_chemical_formula_structural       Cd2H20C28S4N24
_chemical_formula_sum              "Cd2 H20 C28 S4 N24"
_cell_length_a       7.08979
_cell_length_b       10.7851
_cell_length_c       12.4196
_cell_angle_alpha    89.9997
_cell_angle_beta     105.641
_cell_angle_gamma    90

_space_group_name_H-M_alt    "P 1"
_space_group_IT_number       1

loop_
  _space_group_symop_operation_xyz
  'x, y, z'

loop_
  _atom_site_type_symbol
  _atom_site_label
  _atom_site_symmetry_multiplicity
  _atom_site_fract_x
  _atom_site_fract_y
  _atom_site_fract_z
  _atom_site_occupancy
  Cd  Cd1       1.0  1.00000  0.00000  0.00000  1.0000
  Cd  Cd2       1.0  0.50000  0.50000  1.00000  1.0000
  H   H1        1.0  0.02543  0.31283  0.91600  1.0000
  H   H2        1.0  0.47457  0.81283  0.08400  1.0000
  H   H3        1.0  0.97457  0.68718  0.08400  1.0000
  H   H4        1.0  0.52542  0.18717  0.91600  1.0000
  H   H5        1.0  0.93227  0.38353  0.68867  1.0000
  H   H6        1.0  0.56773  0.88353  0.31132  1.0000
  H   H7        1.0  0.06773  0.61647  0.31132  1.0000
  H   H8        1.0  0.43227  0.11647  0.68867  1.0000
  H   H9        1.0  0.89418  0.31815  0.33190  1.0000
  H   H10       1.0  0.60581  0.81815  0.66810  1.0000
  H   H11       1.0  0.10582  0.68185  0.66811  1.0000
  H   H12       1.0  0.39418  0.18184  0.33190  1.0000
  H   H13       1.0  0.76332  0.11307  0.24595  1.0000
  H   H14       1.0  0.73668  0.61306  0.75405  1.0000
  H   H15       1.0  0.23669  0.88693  0.75405  1.0000
  H   H16       1.0  0.26331  0.38693  0.24595  1.0000
  H   H17       1.0  0.73931  0.98508  0.55809  1.0000
  H   H18       1.0  0.76069  0.48508  0.44190  1.0000
  H   H19       1.0  0.26069  0.01492  0.44191  1.0000
  H   H20       1.0  0.23931  0.51492  0.55809  1.0000
  C   C1        1.0  0.99215  0.25750  0.84041  1.0000
  C   C2        1.0  0.50785  0.75750  0.15958  1.0000
  C   C3        1.0  0.00785  0.74250  0.15958  1.0000
  C   C4        1.0  0.49215  0.24250  0.84042  1.0000
  C   C5        1.0  0.95181  0.29380  0.73036  1.0000
  C   C6        1.0  0.54819  0.79381  0.26964  1.0000
  C   C7        1.0  0.04820  0.70620  0.26964  1.0000
  C   C8        1.0  0.45181  0.20619  0.73036  1.0000
  C   C9        1.0  0.86967  0.16744  0.55476  1.0000
  C   C10       1.0  0.63033  0.66744  0.44524  1.0000
  C   C11       1.0  0.13033  0.83256  0.44524  1.0000
  C   C12       1.0  0.36967  0.33256  0.55476  1.0000
  C   C13       1.0  0.86676  0.24190  0.38355  1.0000
  C   C14       1.0  0.63323  0.74190  0.61645  1.0000
  C   C15       1.0  0.13324  0.75809  0.61645  1.0000
  C   C16       1.0  0.36676  0.25809  0.38355  1.0000
  C   C17       1.0  0.78986  0.12949  0.33536  1.0000
  C   C18       1.0  0.71014  0.62949  0.66463  1.0000
  C   C19       1.0  0.21015  0.87051  0.66464  1.0000
  C   C20       1.0  0.28985  0.37051  0.33536  1.0000
  C   C21       1.0  0.78078  0.05704  0.50731  1.0000
  C   C22       1.0  0.71922  0.55705  0.49269  1.0000
  C   C23       1.0  0.21922  0.94296  0.49269  1.0000
  C   C24       1.0  0.28078  0.44295  0.50731  1.0000
  C   C25       1.0  0.87337  0.27811  0.08949  1.0000
  C   C26       1.0  0.62664  0.77811  0.91052  1.0000
  C   C27       1.0  0.12663  0.72189  0.91051  1.0000
  C   C28       1.0  0.37336  0.22189  0.08949  1.0000
  S   S1        1.0  0.87206  0.42697  0.11160  1.0000
  S   S2        1.0  0.62794  0.92697  0.88841  1.0000
  S   S3        1.0  0.12794  0.57303  0.88841  1.0000
  S   S4        1.0  0.37206  0.07304  0.11159  1.0000
  N   N1        1.0  0.98253  0.13085  0.84278  1.0000
  N   N2        1.0  0.51747  0.63086  0.15722  1.0000
  N   N3        1.0  0.01747  0.86915  0.15722  1.0000
  N   N4        1.0  0.48253  0.36914  0.84278  1.0000
  N   N5        1.0  0.93769  0.08566  0.74114  1.0000
  N   N6        1.0  0.56231  0.58566  0.25886  1.0000
  N   N7        1.0  0.06232  0.91434  0.25886  1.0000
  N   N8        1.0  0.43769  0.41434  0.74114  1.0000
  N   N9        1.0  0.91887  0.18496  0.67210  1.0000
  N   N10       1.0  0.58113  0.68497  0.32790  1.0000
  N   N11       1.0  0.08114  0.81503  0.32790  1.0000
  N   N12       1.0  0.41887  0.31503  0.67210  1.0000
  N   N13       1.0  0.90933  0.26075  0.49440  1.0000
  N   N14       1.0  0.59067  0.76075  0.50560  1.0000
  N   N15       1.0  0.09067  0.73925  0.50561  1.0000
  N   N16       1.0  0.40933  0.23924  0.49440  1.0000
  N   N17       1.0  0.74350  0.03833  0.39749  1.0000
  N   N18       1.0  0.75650  0.53833  0.60251  1.0000
  N   N19       1.0  0.25651  0.96167  0.60251  1.0000
  N   N20       1.0  0.24349  0.46167  0.39749  1.0000
  N   N21       1.0  0.87775  0.16957  0.07538  1.0000
  N   N22       1.0  0.62225  0.66957  0.92463  1.0000
  N   N23       1.0  0.12225  0.83044  0.92463  1.0000
  N   N24       1.0  0.37774  0.33044  0.07537  1.0000
