data_image0
_chemical_formula_structural       CdH48C30N6O9
_chemical_formula_sum              "Cd1 H48 C30 N6 O9"
_cell_length_a       6.5556
_cell_length_b       12.2575
_cell_length_c       11.6958
_cell_angle_alpha    115.311
_cell_angle_beta     88.6995
_cell_angle_gamma    100.836

_space_group_name_H-M_alt    "P 1"
_space_group_IT_number       1

loop_
  _space_group_symop_operation_xyz
  'x, y, z'

loop_
  _atom_site_type_symbol
  _atom_site_label
  _atom_site_symmetry_multiplicity
  _atom_site_fract_x
  _atom_site_fract_y
  _atom_site_fract_z
  _atom_site_occupancy
  Cd  Cd1       1.0  0.45752  0.46058  0.71183  1.0000
  H   H1        1.0  0.49673  0.65383  0.43103  1.0000
  H   H2        1.0  0.69409  0.78496  0.50297  1.0000
  H   H3        1.0  0.59766  0.61922  0.22906  1.0000
  H   H4        1.0  0.76617  0.76299  0.29458  1.0000
  H   H5        1.0  0.05625  0.67408  0.31670  1.0000
  H   H6        1.0  0.08253  0.75081  0.51840  1.0000
  H   H7        1.0  0.07108  0.65162  0.59457  1.0000
  H   H8        1.0  0.92346  0.77063  0.64690  1.0000
  H   H9        1.0  0.09765  0.40882  0.26289  1.0000
  H   H10       1.0  0.02974  0.42849  0.41768  1.0000
  H   H11       1.0  0.19520  0.54955  0.39643  1.0000
  H   H12       1.0  0.73117  0.35397  0.17583  1.0000
  H   H13       1.0  0.54296  0.43939  0.26019  1.0000
  H   H14       1.0  0.66043  0.35553  0.32391  1.0000
  H   H15       1.0  0.66979  0.26040  0.95754  1.0000
  H   H16       1.0  0.30449  0.07638  0.05152  1.0000
  H   H17       1.0  0.16078  0.01780  0.90536  1.0000
  H   H18       1.0  0.35672  0.27770  0.06234  1.0000
  H   H19       1.0  0.20200  0.21747  0.91965  1.0000
  H   H20       1.0  0.62338  0.00218  0.04612  1.0000
  H   H21       1.0  0.72406  0.14469  0.04185  1.0000
  H   H22       1.0  0.80907  0.00925  0.93522  1.0000
  H   H23       1.0  0.41451  0.09198  0.63343  1.0000
  H   H24       1.0  0.22939  0.03505  0.71599  1.0000
  H   H25       1.0  0.40181  0.94113  0.62074  1.0000
  H   H26       1.0  0.78949  0.99258  0.68893  1.0000
  H   H27       1.0  0.89031  0.12666  0.82957  1.0000
  H   H28       1.0  0.80073  0.14278  0.69836  1.0000
  H   H29       1.0  0.41272  0.63030  0.03374  1.0000
  H   H30       1.0  0.90570  0.71112  0.82735  1.0000
  H   H31       1.0  0.97417  0.98037  0.12981  1.0000
  H   H32       1.0  0.12407  0.88932  0.00940  1.0000
  H   H33       1.0  0.15335  0.77101  0.14179  1.0000
  H   H34       1.0  0.03062  0.87726  0.26277  1.0000
  H   H35       1.0  0.45135  0.93016  0.15886  1.0000
  H   H36       1.0  0.32387  0.04824  0.26024  1.0000
  H   H37       1.0  0.33003  0.97613  0.42746  1.0000
  H   H38       1.0  0.42356  0.84474  0.32363  1.0000
  H   H39       1.0  0.75448  0.97008  0.31120  1.0000
  H   H40       1.0  0.71104  0.99370  0.46927  1.0000
  H   H41       1.0  0.63207  0.16688  0.35483  1.0000
  H   H42       1.0  0.60806  0.19431  0.51591  1.0000
  H   H43       1.0  0.36049  0.26683  0.37578  1.0000
  H   H44       1.0  0.93150  0.32675  0.65890  1.0000
  H   H45       1.0  0.79604  0.44732  0.96424  1.0000
  H   H46       1.0  0.53681  0.73651  0.67997  1.0000
  H   H47       1.0  0.22195  0.65295  0.81539  1.0000
  H   H48       1.0  0.13301  0.56565  0.88069  1.0000
  C   C1        1.0  0.66498  0.55059  0.54570  1.0000
  C   C2        1.0  0.79236  0.61331  0.47089  1.0000
  C   C3        1.0  0.66397  0.68842  0.43252  1.0000
  C   C4        1.0  0.72614  0.67490  0.30047  1.0000
  C   C5        1.0  0.91076  0.60811  0.27166  1.0000
  C   C6        1.0  0.86575  0.52215  0.34097  1.0000
  C   C7        1.0  0.94828  0.54835  0.13172  1.0000
  C   C8        1.0  0.97914  0.70105  0.56317  1.0000
  C   C9        1.0  0.05869  0.47497  0.35542  1.0000
  C   C10       1.0  0.68852  0.41159  0.27092  1.0000
  C   C11       1.0  0.52967  0.30600  0.82783  1.0000
  C   C12       1.0  0.53001  0.22137  0.89227  1.0000
  C   C13       1.0  0.55133  0.08788  0.79874  1.0000
  C   C14       1.0  0.49303  0.01962  0.88647  1.0000
  C   C15       1.0  0.30835  0.07523  0.95727  1.0000
  C   C16       1.0  0.33662  0.20598  0.96442  1.0000
  C   C17       1.0  0.43796  0.87935  0.81453  1.0000
  C   C18       1.0  0.67422  0.04553  0.98262  1.0000
  C   C19       1.0  0.38940  0.03546  0.68607  1.0000
  C   C20       1.0  0.77035  0.08640  0.75104  1.0000
  C   C21       1.0  0.55425  0.67451  0.00825  1.0000
  C   C22       1.0  0.80272  0.71226  0.90137  1.0000
  C   C23       1.0  0.02205  0.89077  0.08532  1.0000
  C   C24       1.0  0.13134  0.86683  0.18371  1.0000
  C   C25       1.0  0.34175  0.95327  0.23424  1.0000
  C   C26       1.0  0.43075  0.94281  0.34814  1.0000
  C   C27       1.0  0.65684  0.00955  0.39029  1.0000
  C   C28       1.0  0.68918  0.14790  0.43065  1.0000
  C   C29       1.0  0.21917  0.25871  0.42387  1.0000
  C   C30       1.0  0.00627  0.29197  0.56981  1.0000
  N   N1        1.0  0.62321  0.63409  0.88877  1.0000
  N   N2        1.0  0.68078  0.77281  0.09265  1.0000
  N   N3        1.0  0.83853  0.79526  0.02337  1.0000
  N   N4        1.0  0.90790  0.20793  0.45878  1.0000
  N   N5        1.0  0.04145  0.18519  0.36391  1.0000
  N   N6        1.0  0.20548  0.32569  0.55039  1.0000
  O   O1        1.0  0.70382  0.45426  0.54799  1.0000
  O   O2        1.0  0.52141  0.60296  0.61263  1.0000
  O   O3        1.0  0.77396  0.48767  0.05845  1.0000
  O   O4        1.0  0.12115  0.55757  0.08824  1.0000
  O   O5        1.0  0.70537  0.36415  0.81311  1.0000
  O   O6        1.0  0.35721  0.31664  0.79018  1.0000
  O   O7        1.0  0.56995  0.83305  0.72855  1.0000
  O   O8        1.0  0.28924  0.81506  0.83912  1.0000
  O   O9        1.0  0.16599  0.56632  0.79907  1.0000
