data_image0
_chemical_formula_structural       Cu4H18C28S4N10
_chemical_formula_sum              "Cu4 H18 C28 S4 N10"
_cell_length_a       8.7446
_cell_length_b       8.81357
_cell_length_c       9.1684
_cell_angle_alpha    81.4146
_cell_angle_beta     88.7322
_cell_angle_gamma    83.3881

_space_group_name_H-M_alt    "P 1"
_space_group_IT_number       1

loop_
  _space_group_symop_operation_xyz
  'x, y, z'

loop_
  _atom_site_type_symbol
  _atom_site_label
  _atom_site_symmetry_multiplicity
  _atom_site_fract_x
  _atom_site_fract_y
  _atom_site_fract_z
  _atom_site_occupancy
  Cu  Cu1       1.0  0.34916  0.31728  0.67656  1.0000
  Cu  Cu2       1.0  0.65084  0.68272  0.32343  1.0000
  Cu  Cu3       1.0  0.95410  0.63260  0.71759  1.0000
  Cu  Cu4       1.0  0.04590  0.36739  0.28241  1.0000
  H   H1        1.0  0.52958  0.63399  0.00781  1.0000
  H   H2        1.0  0.47042  0.36601  0.99219  1.0000
  H   H3        1.0  0.25605  0.63177  0.09180  1.0000
  H   H4        1.0  0.74395  0.36823  0.90820  1.0000
  H   H5        1.0  0.06058  0.84990  0.00879  1.0000
  H   H6        1.0  0.93942  0.15010  0.99121  1.0000
  H   H7        1.0  0.12969  0.08246  0.83894  1.0000
  H   H8        1.0  0.87031  0.91753  0.16107  1.0000
  H   H9        1.0  0.52974  0.20762  0.44801  1.0000
  H   H10       1.0  0.47026  0.79238  0.55199  1.0000
  H   H11       1.0  0.72392  0.32852  0.28150  1.0000
  H   H12       1.0  0.27608  0.67148  0.71850  1.0000
  H   H13       1.0  0.07793  0.14850  0.57376  1.0000
  H   H14       1.0  0.92207  0.85150  0.42624  1.0000
  H   H15       1.0  0.89831  0.02154  0.75223  1.0000
  H   H16       1.0  0.10170  0.97847  0.24777  1.0000
  H   H17       1.0  0.71599  0.82599  0.81201  1.0000
  H   H18       1.0  0.28401  0.17401  0.18800  1.0000
  C   C1        1.0  0.58344  0.03572  0.71489  1.0000
  C   C2        1.0  0.41656  0.96428  0.28511  1.0000
  C   C3        1.0  0.47914  0.85962  0.87412  1.0000
  C   C4        1.0  0.52086  0.14038  0.12587  1.0000
  C   C5        1.0  0.44293  0.72994  0.97035  1.0000
  C   C6        1.0  0.55707  0.27006  0.02965  1.0000
  C   C7        1.0  0.29027  0.73023  0.01698  1.0000
  C   C8        1.0  0.70973  0.26977  0.98302  1.0000
  C   C9        1.0  0.17861  0.85579  0.97033  1.0000
  C   C10       1.0  0.82139  0.14421  0.02967  1.0000
  C   C11       1.0  0.21505  0.98489  0.87524  1.0000
  C   C12       1.0  0.78495  0.01511  0.12476  1.0000
  C   C13       1.0  0.36741  0.98590  0.82560  1.0000
  C   C14       1.0  0.63259  0.01409  0.17440  1.0000
  C   C15       1.0  0.69687  0.10556  0.61581  1.0000
  C   C16       1.0  0.30313  0.89444  0.38419  1.0000
  C   C17       1.0  0.65014  0.19287  0.48028  1.0000
  C   C18       1.0  0.34985  0.80713  0.51973  1.0000
  C   C19       1.0  0.75820  0.25982  0.38678  1.0000
  C   C20       1.0  0.24179  0.74018  0.61323  1.0000
  C   C21       1.0  0.95529  0.15961  0.54945  1.0000
  C   C22       1.0  0.04471  0.84039  0.45055  1.0000
  C   C23       1.0  0.85429  0.08817  0.64906  1.0000
  C   C24       1.0  0.14571  0.91183  0.35094  1.0000
  C   C25       1.0  0.12181  0.36257  0.95794  1.0000
  C   C26       1.0  0.87820  0.63744  0.04206  1.0000
  C   C27       1.0  0.38566  0.48441  0.35824  1.0000
  C   C28       1.0  0.61434  0.51559  0.64176  1.0000
  S   S1        1.0  0.11275  0.39160  0.77760  1.0000
  S   S2        1.0  0.88725  0.60839  0.22239  1.0000
  S   S3        1.0  0.24754  0.38832  0.43547  1.0000
  S   S4        1.0  0.75246  0.61167  0.56453  1.0000
  N   N1        1.0  0.43545  0.09414  0.72711  1.0000
  N   N2        1.0  0.56455  0.90586  0.27290  1.0000
  N   N3        1.0  0.61379  0.89656  0.80365  1.0000
  N   N4        1.0  0.38621  0.10344  0.19635  1.0000
  N   N5        1.0  0.90984  0.24516  0.41966  1.0000
  N   N6        1.0  0.09015  0.75484  0.58034  1.0000
  N   N7        1.0  0.12297  0.33871  0.08879  1.0000
  N   N8        1.0  0.87703  0.66130  0.91120  1.0000
  N   N9        1.0  0.49015  0.55108  0.31087  1.0000
  N   N10       1.0  0.50985  0.44892  0.68913  1.0000
