data_image0
_chemical_formula_structural       Cu4H18C28S4N10
_chemical_formula_sum              "Cu4 H18 C28 S4 N10"
_cell_length_a       5.83503
_cell_length_b       8.536
_cell_length_c       14.1527
_cell_angle_alpha    90.001
_cell_angle_beta     90.0002
_cell_angle_gamma    96.2992

_space_group_name_H-M_alt    "P 1"
_space_group_IT_number       1

loop_
  _space_group_symop_operation_xyz
  'x, y, z'

loop_
  _atom_site_type_symbol
  _atom_site_label
  _atom_site_symmetry_multiplicity
  _atom_site_fract_x
  _atom_site_fract_y
  _atom_site_fract_z
  _atom_site_occupancy
  Cu  Cu1       1.0  0.30432  0.91853  0.16372  1.0000
  Cu  Cu2       1.0  0.69571  0.08147  0.66371  1.0000
  Cu  Cu3       1.0  0.97612  0.89266  0.40628  1.0000
  Cu  Cu4       1.0  0.02388  0.10734  0.90628  1.0000
  H   H1        1.0  0.84626  0.83575  0.07393  1.0000
  H   H2        1.0  0.15373  0.16425  0.57394  1.0000
  H   H3        1.0  0.51968  0.67527  0.99763  1.0000
  H   H4        1.0  0.48031  0.32472  0.49763  1.0000
  H   H5        1.0  0.48139  0.38270  0.00474  1.0000
  H   H6        1.0  0.51860  0.61729  0.50474  1.0000
  H   H7        1.0  0.76996  0.24251  0.08946  1.0000
  H   H8        1.0  0.23004  0.75749  0.58946  1.0000
  H   H9        1.0  0.53502  0.80482  0.29898  1.0000
  H   H10       1.0  0.46498  0.19518  0.79898  1.0000
  H   H11       1.0  0.03814  0.55952  0.41885  1.0000
  H   H12       1.0  0.96185  0.44049  0.91884  1.0000
  H   H13       1.0  0.83812  0.30171  0.36404  1.0000
  H   H14       1.0  0.16187  0.69830  0.86404  1.0000
  H   H15       1.0  0.49134  0.29919  0.26272  1.0000
  H   H16       1.0  0.50866  0.70081  0.76271  1.0000
  H   H17       1.0  0.16914  0.31110  0.20547  1.0000
  H   H18       1.0  0.83087  0.68890  0.70547  1.0000
  C   C1        1.0  0.99903  0.62922  0.12404  1.0000
  C   C2        1.0  0.00097  0.37078  0.62404  1.0000
  C   C3        1.0  0.83521  0.70779  0.07613  1.0000
  C   C4        1.0  0.16479  0.29221  0.57614  1.0000
  C   C5        1.0  0.65129  0.61646  0.03361  1.0000
  C   C6        1.0  0.34870  0.38353  0.53362  1.0000
  C   C7        1.0  0.62850  0.45046  0.03814  1.0000
  C   C8        1.0  0.37149  0.54953  0.53815  1.0000
  C   C9        1.0  0.78875  0.37028  0.08579  1.0000
  C   C10       1.0  0.21124  0.62972  0.58579  1.0000
  C   C11       1.0  0.97293  0.46244  0.12802  1.0000
  C   C12       1.0  0.02707  0.53756  0.62803  1.0000
  C   C13       1.0  0.28257  0.55955  0.21039  1.0000
  C   C14       1.0  0.71743  0.44046  0.71040  1.0000
  C   C15       1.0  0.48538  0.55448  0.27024  1.0000
  C   C16       1.0  0.51462  0.44553  0.77024  1.0000
  C   C17       1.0  0.60162  0.69216  0.30920  1.0000
  C   C18       1.0  0.39838  0.30784  0.80920  1.0000
  C   C19       1.0  0.87946  0.55410  0.37786  1.0000
  C   C20       1.0  0.12053  0.44591  0.87786  1.0000
  C   C21       1.0  0.76861  0.41137  0.34630  1.0000
  C   C22       1.0  0.23138  0.58863  0.84630  1.0000
  C   C23       1.0  0.57208  0.41090  0.29056  1.0000
  C   C24       1.0  0.42791  0.58911  0.79057  1.0000
  C   C25       1.0  0.79988  0.03420  0.21878  1.0000
  C   C26       1.0  0.20014  0.96581  0.71877  1.0000
  C   C27       1.0  0.52068  0.02785  0.96688  1.0000
  C   C28       1.0  0.47932  0.97216  0.46689  1.0000
  S   S1        1.0  0.06473  0.05572  0.25912  1.0000
  S   S2        1.0  0.93529  0.94428  0.75912  1.0000
  S   S3        1.0  0.25481  0.96336  0.99681  1.0000
  S   S4        1.0  0.74519  0.03665  0.49681  1.0000
  N   N1        1.0  0.19495  0.68671  0.17496  1.0000
  N   N2        1.0  0.80506  0.31329  0.67496  1.0000
  N   N3        1.0  0.15402  0.42341  0.18214  1.0000
  N   N4        1.0  0.84598  0.57659  0.68215  1.0000
  N   N5        1.0  0.79749  0.69351  0.35990  1.0000
  N   N6        1.0  0.20251  0.30649  0.85990  1.0000
  N   N7        1.0  0.60611  0.01297  0.19291  1.0000
  N   N8        1.0  0.39392  0.98703  0.69291  1.0000
  N   N9        1.0  0.71320  0.07181  0.94612  1.0000
  N   N10       1.0  0.28679  0.92819  0.44613  1.0000
