data_image0
_chemical_formula_structural       Zn2H24C28N12O14
_chemical_formula_sum              "Zn2 H24 C28 N12 O14"
_cell_length_a       9.61187
_cell_length_b       9.60141
_cell_length_c       10.1971
_cell_angle_alpha    83.1287
_cell_angle_beta     68.5385
_cell_angle_gamma    74.4634

_space_group_name_H-M_alt    "P 1"
_space_group_IT_number       1

loop_
  _space_group_symop_operation_xyz
  'x, y, z'

loop_
  _atom_site_type_symbol
  _atom_site_label
  _atom_site_symmetry_multiplicity
  _atom_site_fract_x
  _atom_site_fract_y
  _atom_site_fract_z
  _atom_site_occupancy
  Zn  Zn1       1.0  0.30303  0.39453  0.03202  1.0000
  Zn  Zn2       1.0  0.69696  0.60548  0.96798  1.0000
  H   H1        1.0  0.41858  0.02346  0.18389  1.0000
  H   H2        1.0  0.58142  0.97654  0.81611  1.0000
  H   H3        1.0  0.47278  0.14969  0.22844  1.0000
  H   H4        1.0  0.52722  0.85031  0.77155  1.0000
  H   H5        1.0  0.58085  0.67925  0.41201  1.0000
  H   H6        1.0  0.41915  0.32074  0.58799  1.0000
  H   H7        1.0  0.68072  0.55592  0.27234  1.0000
  H   H8        1.0  0.31929  0.44408  0.72766  1.0000
  H   H9        1.0  0.95178  0.45254  0.22646  1.0000
  H   H10       1.0  0.04823  0.54745  0.77355  1.0000
  H   H11       1.0  0.78731  0.83592  0.66419  1.0000
  H   H12       1.0  0.21270  0.16408  0.33581  1.0000
  H   H13       1.0  0.98452  0.78485  0.64153  1.0000
  H   H14       1.0  0.01549  0.21515  0.35847  1.0000
  H   H15       1.0  0.26487  0.65965  0.44972  1.0000
  H   H16       1.0  0.73514  0.34035  0.55027  1.0000
  H   H17       1.0  0.43677  0.49004  0.24780  1.0000
  H   H18       1.0  0.56324  0.50996  0.75219  1.0000
  H   H19       1.0  0.79430  0.90717  0.15573  1.0000
  H   H20       1.0  0.20569  0.09284  0.84428  1.0000
  H   H21       1.0  0.88657  0.02414  0.30226  1.0000
  H   H22       1.0  0.11343  0.97586  0.69775  1.0000
  H   H23       1.0  0.17066  0.96178  0.26204  1.0000
  H   H24       1.0  0.82934  0.03822  0.73796  1.0000
  C   C1        1.0  0.80858  0.62480  0.36686  1.0000
  C   C2        1.0  0.19143  0.37520  0.63314  1.0000
  C   C3        1.0  0.07507  0.55598  0.29775  1.0000
  C   C4        1.0  0.92494  0.44402  0.70225  1.0000
  C   C5        1.0  0.07025  0.63899  0.40236  1.0000
  C   C6        1.0  0.92976  0.36101  0.59764  1.0000
  C   C7        1.0  0.92395  0.71920  0.49046  1.0000
  C   C8        1.0  0.07606  0.28080  0.50954  1.0000
  C   C9        1.0  0.31171  0.52651  0.28174  1.0000
  C   C10       1.0  0.68829  0.47349  0.71825  1.0000
  C   C11       1.0  0.23282  0.82878  0.08604  1.0000
  C   C12       1.0  0.76718  0.17122  0.91396  1.0000
  C   C13       1.0  0.18176  0.77015  0.99633  1.0000
  C   C14       1.0  0.81824  0.22985  0.00367  1.0000
  C   C15       1.0  0.02168  0.79796  0.02600  1.0000
  C   C16       1.0  0.97830  0.20204  0.97401  1.0000
  C   C17       1.0  0.91699  0.88747  0.13688  1.0000
  C   C18       1.0  0.08301  0.11253  0.86313  1.0000
  C   C19       1.0  0.96909  0.95150  0.21923  1.0000
  C   C20       1.0  0.03090  0.04850  0.78078  1.0000
  C   C21       1.0  0.12650  0.91979  0.19468  1.0000
  C   C22       1.0  0.87349  0.08021  0.80532  1.0000
  C   C23       1.0  0.39783  0.78372  0.07812  1.0000
  C   C24       1.0  0.60217  0.21629  0.92188  1.0000
  C   C25       1.0  0.29554  0.68337  0.86860  1.0000
  C   C26       1.0  0.70446  0.31662  0.13140  1.0000
  C   C27       1.0  0.95767  0.73015  0.94366  1.0000
  C   C28       1.0  0.04232  0.26986  0.05635  1.0000
  N   N1        1.0  0.79815  0.71117  0.46483  1.0000
  N   N2        1.0  0.20186  0.28882  0.53517  1.0000
  N   N3        1.0  0.67865  0.60881  0.35596  1.0000
  N   N4        1.0  0.32136  0.39118  0.64405  1.0000
  N   N5        1.0  0.94566  0.54473  0.27981  1.0000
  N   N6        1.0  0.05435  0.45527  0.72018  1.0000
  N   N7        1.0  0.90257  0.80077  0.59627  1.0000
  N   N8        1.0  0.09744  0.19923  0.40372  1.0000
  N   N9        1.0  0.22372  0.61746  0.38899  1.0000
  N   N10       1.0  0.77629  0.38254  0.61100  1.0000
  N   N11       1.0  0.22375  0.48814  0.22269  1.0000
  N   N12       1.0  0.77625  0.51185  0.77731  1.0000
  O   O1        1.0  0.47733  0.66965  0.00464  1.0000
  O   O2        1.0  0.52266  0.33036  0.99535  1.0000
  O   O3        1.0  0.44833  0.84696  0.14517  1.0000
  O   O4        1.0  0.55166  0.15304  0.85484  1.0000
  O   O5        1.0  0.30838  0.54418  0.87319  1.0000
  O   O6        1.0  0.69162  0.45582  0.12681  1.0000
  O   O7        1.0  0.36724  0.74916  0.76352  1.0000
  O   O8        1.0  0.63275  0.25083  0.23647  1.0000
  O   O9        1.0  0.03471  0.70191  0.81504  1.0000
  O   O10       1.0  0.96529  0.29809  0.18497  1.0000
  O   O11       1.0  0.82643  0.70300  0.01378  1.0000
  O   O12       1.0  0.17356  0.29701  0.98623  1.0000
  O   O13       1.0  0.38636  0.12533  0.21452  1.0000
  O   O14       1.0  0.61364  0.87466  0.78548  1.0000
