data_image0
_chemical_formula_structural       Cu4H32C56N8O16F16
_chemical_formula_sum              "Cu4 H32 C56 N8 O16 F16"
_cell_length_a       10.4744
_cell_length_b       10.4744
_cell_length_c       14.853
_cell_angle_alpha    105.451
_cell_angle_beta     105.45
_cell_angle_gamma    104.129

_space_group_name_H-M_alt    "P 1"
_space_group_IT_number       1

loop_
  _space_group_symop_operation_xyz
  'x, y, z'

loop_
  _atom_site_type_symbol
  _atom_site_label
  _atom_site_symmetry_multiplicity
  _atom_site_fract_x
  _atom_site_fract_y
  _atom_site_fract_z
  _atom_site_occupancy
  Cu  Cu1       1.0  0.48215  0.17740  0.87386  1.0000
  Cu  Cu2       1.0  0.82259  0.51784  0.12614  1.0000
  Cu  Cu3       1.0  0.94657  0.14175  0.37388  1.0000
  Cu  Cu4       1.0  0.85825  0.05344  0.62612  1.0000
  H   H1        1.0  0.75511  0.11450  0.90540  1.0000
  H   H2        1.0  0.88551  0.24489  0.09460  1.0000
  H   H3        1.0  0.04115  0.90045  0.40561  1.0000
  H   H4        1.0  0.09955  0.95885  0.59440  1.0000
  H   H5        1.0  0.83079  0.91603  0.93998  1.0000
  H   H6        1.0  0.08398  0.16922  0.06003  1.0000
  H   H7        1.0  0.27426  0.85948  0.44034  1.0000
  H   H8        1.0  0.14052  0.72574  0.55965  1.0000
  H   H9        1.0  0.65005  0.70844  0.94086  1.0000
  H   H10       1.0  0.29156  0.34995  0.05914  1.0000
  H   H11       1.0  0.48265  0.04103  0.44111  1.0000
  H   H12       1.0  0.95896  0.51735  0.55889  1.0000
  H   H13       1.0  0.40384  0.70613  0.90725  1.0000
  H   H14       1.0  0.29387  0.59616  0.09274  1.0000
  H   H15       1.0  0.45133  0.25356  0.40740  1.0000
  H   H16       1.0  0.74645  0.54868  0.59260  1.0000
  H   H17       1.0  0.19673  0.72500  0.88018  1.0000
  H   H18       1.0  0.27500  0.80327  0.11982  1.0000
  H   H19       1.0  0.40539  0.43351  0.38025  1.0000
  H   H20       1.0  0.56650  0.59463  0.61976  1.0000
  H   H21       1.0  0.97375  0.77597  0.85735  1.0000
  H   H22       1.0  0.22403  0.02625  0.14264  1.0000
  H   H23       1.0  0.33164  0.63368  0.35737  1.0000
  H   H24       1.0  0.36632  0.66837  0.64264  1.0000
  H   H25       1.0  0.96677  0.00962  0.83906  1.0000
  H   H26       1.0  0.99038  0.03322  0.16093  1.0000
  H   H27       1.0  0.07981  0.62251  0.33923  1.0000
  H   H28       1.0  0.37749  0.92019  0.66077  1.0000
  H   H29       1.0  0.18415  0.17568  0.84237  1.0000
  H   H30       1.0  0.82433  0.81584  0.15763  1.0000
  H   H31       1.0  0.91700  0.40851  0.34258  1.0000
  H   H32       1.0  0.59148  0.08301  0.65741  1.0000
  C   C1        1.0  0.68230  0.02290  0.90867  1.0000
  C   C2        1.0  0.97710  0.31769  0.09133  1.0000
  C   C3        1.0  0.13599  0.97654  0.40887  1.0000
  C   C4        1.0  0.02347  0.86401  0.59113  1.0000
  C   C5        1.0  0.72205  0.91160  0.92604  1.0000
  C   C6        1.0  0.08841  0.27795  0.07396  1.0000
  C   C7        1.0  0.26471  0.95422  0.42632  1.0000
  C   C8        1.0  0.04578  0.73529  0.57368  1.0000
  C   C9        1.0  0.62197  0.79692  0.92707  1.0000
  C   C10       1.0  0.20308  0.37803  0.07293  1.0000
  C   C11       1.0  0.38036  0.05528  0.42728  1.0000
  C   C12       1.0  0.94472  0.61965  0.57272  1.0000
  C   C13       1.0  0.48411  0.79583  0.90870  1.0000
  C   C14       1.0  0.20417  0.51589  0.09130  1.0000
  C   C15       1.0  0.36307  0.17475  0.40886  1.0000
  C   C16       1.0  0.82525  0.63693  0.59114  1.0000
  C   C17       1.0  0.45069  0.91089  0.89265  1.0000
  C   C18       1.0  0.08911  0.54931  0.10735  1.0000
  C   C19       1.0  0.23194  0.19209  0.39276  1.0000
  C   C20       1.0  0.80791  0.76806  0.60725  1.0000
  C   C21       1.0  0.31009  0.92438  0.87535  1.0000
  C   C22       1.0  0.07562  0.68991  0.12465  1.0000
  C   C23       1.0  0.20113  0.31537  0.37542  1.0000
  C   C24       1.0  0.68463  0.79887  0.62458  1.0000
  C   C25       1.0  0.19189  0.82443  0.87269  1.0000
  C   C26       1.0  0.17557  0.80811  0.12731  1.0000
  C   C27       1.0  0.29848  0.43088  0.37277  1.0000
  C   C28       1.0  0.56912  0.70153  0.62724  1.0000
  C   C29       1.0  0.06654  0.85351  0.85991  1.0000
  C   C30       1.0  0.14649  0.93346  0.14010  1.0000
  C   C31       1.0  0.25664  0.54346  0.35994  1.0000
  C   C32       1.0  0.45654  0.74336  0.64006  1.0000
  C   C33       1.0  0.06161  0.98105  0.84982  1.0000
  C   C34       1.0  0.01895  0.93839  0.15018  1.0000
  C   C35       1.0  0.11909  0.53840  0.34995  1.0000
  C   C36       1.0  0.46160  0.88092  0.65005  1.0000
  C   C37       1.0  0.18250  0.07544  0.85140  1.0000
  C   C38       1.0  0.92456  0.81751  0.14860  1.0000
  C   C39       1.0  0.02621  0.41914  0.35154  1.0000
  C   C40       1.0  0.58086  0.97379  0.64846  1.0000
  C   C41       1.0  0.36004  0.26537  0.72672  1.0000
  C   C42       1.0  0.73463  0.63995  0.27328  1.0000
  C   C43       1.0  0.71139  0.11668  0.22676  1.0000
  C   C44       1.0  0.88331  0.28861  0.77323  1.0000
  C   C45       1.0  0.33475  0.38920  0.69362  1.0000
  C   C46       1.0  0.61080  0.66525  0.30638  1.0000
  C   C47       1.0  0.55452  0.10894  0.19374  1.0000
  C   C48       1.0  0.89106  0.44548  0.80626  1.0000
  C   C49       1.0  0.19243  0.40878  0.69083  1.0000
  C   C50       1.0  0.59122  0.80757  0.30916  1.0000
  C   C51       1.0  0.53211  0.24846  0.19093  1.0000
  C   C52       1.0  0.75154  0.46789  0.80907  1.0000
  C   C53       1.0  0.06348  0.27891  0.61380  1.0000
  C   C54       1.0  0.72109  0.93652  0.38620  1.0000
  C   C55       1.0  0.58490  0.30036  0.11383  1.0000
  C   C56       1.0  0.69963  0.41509  0.88616  1.0000
  N   N1        1.0  0.30218  0.04644  0.86340  1.0000
  N   N2        1.0  0.95357  0.69783  0.13660  1.0000
  N   N3        1.0  0.06715  0.31138  0.36349  1.0000
  N   N4        1.0  0.68861  0.93285  0.63651  1.0000
  N   N5        1.0  0.55027  0.02268  0.89391  1.0000
  N   N6        1.0  0.97733  0.44972  0.10609  1.0000
  N   N7        1.0  0.12142  0.09376  0.39403  1.0000
  N   N8        1.0  0.90624  0.87858  0.60598  1.0000
  O   O1        1.0  0.39451  0.30038  0.82195  1.0000
  O   O2        1.0  0.69961  0.60548  0.17805  1.0000
  O   O3        1.0  0.77175  0.17756  0.32198  1.0000
  O   O4        1.0  0.82243  0.22826  0.67801  1.0000
  O   O5        1.0  0.34779  0.15438  0.66352  1.0000
  O   O6        1.0  0.84562  0.65220  0.33648  1.0000
  O   O7        1.0  0.75905  0.06548  0.16356  1.0000
  O   O8        1.0  0.93451  0.24095  0.83644  1.0000
  O   O9        1.0  0.04730  0.17295  0.64258  1.0000
  O   O10       1.0  0.82706  0.95269  0.35742  1.0000
  O   O11       1.0  0.71963  0.34528  0.14258  1.0000
  O   O12       1.0  0.65471  0.28036  0.85740  1.0000
  O   O13       1.0  0.99566  0.29056  0.53587  1.0000
  O   O14       1.0  0.70945  0.00434  0.46413  1.0000
  O   O15       1.0  0.49534  0.29019  0.03589  1.0000
  O   O16       1.0  0.70980  0.50464  0.96411  1.0000
  F   F1        1.0  0.44070  0.51423  0.75710  1.0000
  F   F2        1.0  0.48577  0.55930  0.24290  1.0000
  F   F3        1.0  0.49295  0.06645  0.25721  1.0000
  F   F4        1.0  0.93355  0.50705  0.74279  1.0000
  F   F5        1.0  0.34046  0.37108  0.59942  1.0000
  F   F6        1.0  0.62892  0.65954  0.40058  1.0000
  F   F7        1.0  0.47849  0.00910  0.09952  1.0000
  F   F8        1.0  0.99088  0.52151  0.90048  1.0000
  F   F9        1.0  0.18718  0.43654  0.78556  1.0000
  F   F10       1.0  0.56347  0.81282  0.21444  1.0000
  F   F11       1.0  0.59900  0.34843  0.28563  1.0000
  F   F12       1.0  0.65156  0.40100  0.71437  1.0000
  F   F13       1.0  0.19099  0.52841  0.66801  1.0000
  F   F14       1.0  0.47160  0.80902  0.33200  1.0000
  F   F15       1.0  0.38966  0.22702  0.16812  1.0000
  F   F16       1.0  0.77297  0.61034  0.83188  1.0000
