data_image0
_chemical_formula_structural       Cu2H16C36N4O8F8
_chemical_formula_sum              "Cu2 H16 C36 N4 O8 F8"
_cell_length_a       8.17842
_cell_length_b       9.52229
_cell_length_c       11.3209
_cell_angle_alpha    74.3699
_cell_angle_beta     70.4536
_cell_angle_gamma    75.0806

_space_group_name_H-M_alt    "P 1"
_space_group_IT_number       1

loop_
  _space_group_symop_operation_xyz
  'x, y, z'

loop_
  _atom_site_type_symbol
  _atom_site_label
  _atom_site_symmetry_multiplicity
  _atom_site_fract_x
  _atom_site_fract_y
  _atom_site_fract_z
  _atom_site_occupancy
  Cu  Cu1       1.0  0.53237  0.80867  0.57388  1.0000
  Cu  Cu2       1.0  0.46764  0.19133  0.42612  1.0000
  H   H1        1.0  0.44721  0.70693  0.86429  1.0000
  H   H2        1.0  0.55280  0.29305  0.13572  1.0000
  H   H3        1.0  0.27132  0.52055  0.02701  1.0000
  H   H4        1.0  0.72870  0.47943  0.97299  1.0000
  H   H5        1.0  0.11375  0.38641  0.94972  1.0000
  H   H6        1.0  0.88626  0.61358  0.05027  1.0000
  H   H7        1.0  0.13340  0.44044  0.71798  1.0000
  H   H8        1.0  0.86660  0.55957  0.28202  1.0000
  H   H9        1.0  0.16426  0.49876  0.52119  1.0000
  H   H10       1.0  0.83573  0.50124  0.47881  1.0000
  H   H11       1.0  0.22592  0.57330  0.28615  1.0000
  H   H12       1.0  0.77406  0.42671  0.71386  1.0000
  H   H13       1.0  0.42348  0.76285  0.16672  1.0000
  H   H14       1.0  0.57651  0.23716  0.83329  1.0000
  H   H15       1.0  0.54397  0.87028  0.29176  1.0000
  H   H16       1.0  0.45603  0.12972  0.70824  1.0000
  C   C1        1.0  0.37575  0.64512  0.83692  1.0000
  C   C2        1.0  0.62427  0.35486  0.16309  1.0000
  C   C3        1.0  0.27820  0.54250  0.92599  1.0000
  C   C4        1.0  0.72181  0.45748  0.07401  1.0000
  C   C5        1.0  0.19040  0.46785  0.88276  1.0000
  C   C6        1.0  0.80960  0.53214  0.11724  1.0000
  C   C7        1.0  0.20082  0.49776  0.75338  1.0000
  C   C8        1.0  0.79918  0.50225  0.24661  1.0000
  C   C9        1.0  0.30192  0.60136  0.66918  1.0000
  C   C10       1.0  0.69808  0.39863  0.33082  1.0000
  C   C11       1.0  0.32562  0.64085  0.53048  1.0000
  C   C12       1.0  0.67438  0.35915  0.46952  1.0000
  C   C13       1.0  0.24758  0.58065  0.46814  1.0000
  C   C14       1.0  0.75242  0.41935  0.53187  1.0000
  C   C15       1.0  0.28208  0.62371  0.33564  1.0000
  C   C16       1.0  0.71791  0.37630  0.66436  1.0000
  C   C17       1.0  0.39092  0.72757  0.27004  1.0000
  C   C18       1.0  0.60908  0.27244  0.72996  1.0000
  C   C19       1.0  0.46165  0.78629  0.33829  1.0000
  C   C20       1.0  0.53834  0.21371  0.66171  1.0000
  C   C21       1.0  0.82388  0.86625  0.37447  1.0000
  C   C22       1.0  0.17612  0.13375  0.62553  1.0000
  C   C23       1.0  0.95720  0.95279  0.27422  1.0000
  C   C24       1.0  0.04280  0.04722  0.72578  1.0000
  C   C25       1.0  0.01716  0.06331  0.29948  1.0000
  C   C26       1.0  0.98284  0.93669  0.70052  1.0000
  C   C27       1.0  0.15947  0.12862  0.21723  1.0000
  C   C28       1.0  0.84053  0.87138  0.78277  1.0000
  C   C29       1.0  0.23686  0.08645  0.09977  1.0000
  C   C30       1.0  0.76314  0.91356  0.90023  1.0000
  C   C31       1.0  0.18075  0.97950  0.06724  1.0000
  C   C32       1.0  0.81924  0.02051  0.93276  1.0000
  C   C33       1.0  0.04462  0.91179  0.15598  1.0000
  C   C34       1.0  0.95538  0.08822  0.84401  1.0000
  C   C35       1.0  0.24178  0.22542  0.26078  1.0000
  C   C36       1.0  0.75822  0.77459  0.73922  1.0000
  N   N1        1.0  0.38751  0.67307  0.71195  1.0000
  N   N2        1.0  0.61250  0.32692  0.28805  1.0000
  N   N3        1.0  0.43101  0.74253  0.46523  1.0000
  N   N4        1.0  0.56899  0.25746  0.53477  1.0000
  O   O1        1.0  0.67352  0.94223  0.42669  1.0000
  O   O2        1.0  0.32648  0.05777  0.57331  1.0000
  O   O3        1.0  0.86744  0.72885  0.40078  1.0000
  O   O4        1.0  0.13256  0.27115  0.59923  1.0000
  O   O5        1.0  0.19866  0.36238  0.23789  1.0000
  O   O6        1.0  0.80134  0.63763  0.76210  1.0000
  O   O7        1.0  0.35580  0.14212  0.31806  1.0000
  O   O8        1.0  0.64421  0.85789  0.68194  1.0000
  F   F1        1.0  0.93964  0.10517  0.41386  1.0000
  F   F2        1.0  0.06037  0.89482  0.58614  1.0000
  F   F3        1.0  0.37567  0.14649  0.01483  1.0000
  F   F4        1.0  0.62433  0.85351  0.98517  1.0000
  F   F5        1.0  0.26174  0.93865  0.95268  1.0000
  F   F6        1.0  0.73826  0.06137  0.04731  1.0000
  F   F7        1.0  0.99836  0.80306  0.12401  1.0000
  F   F8        1.0  0.00163  0.19695  0.87598  1.0000
