data_image0
_chemical_formula_structural       Zn2H20C36N4O10F8
_chemical_formula_sum              "Zn2 H20 C36 N4 O10 F8"
_cell_length_a       8.75292
_cell_length_b       10.2752
_cell_length_c       10.4774
_cell_angle_alpha    77.9861
_cell_angle_beta     79.55
_cell_angle_gamma    69.8815

_space_group_name_H-M_alt    "P 1"
_space_group_IT_number       1

loop_
  _space_group_symop_operation_xyz
  'x, y, z'

loop_
  _atom_site_type_symbol
  _atom_site_label
  _atom_site_symmetry_multiplicity
  _atom_site_fract_x
  _atom_site_fract_y
  _atom_site_fract_z
  _atom_site_occupancy
  Zn  Zn1       1.0  0.51568  0.80008  0.74197  1.0000
  Zn  Zn2       1.0  0.48431  0.19992  0.25803  1.0000
  H   H1        1.0  0.72590  0.98736  0.57799  1.0000
  H   H2        1.0  0.27410  0.01264  0.42201  1.0000
  H   H3        1.0  0.89890  0.11339  0.62777  1.0000
  H   H4        1.0  0.10109  0.88661  0.37222  1.0000
  H   H5        1.0  0.93281  0.10000  0.86526  1.0000
  H   H6        1.0  0.06719  0.89999  0.13474  1.0000
  H   H7        1.0  0.79432  0.95847  0.03967  1.0000
  H   H8        1.0  0.20568  0.04153  0.96032  1.0000
  H   H9        1.0  0.66980  0.84129  0.17280  1.0000
  H   H10       1.0  0.33019  0.15872  0.82720  1.0000
  H   H11       1.0  0.51903  0.69170  0.31941  1.0000
  H   H12       1.0  0.48097  0.30830  0.68059  1.0000
  H   H13       1.0  0.37187  0.57198  0.22090  1.0000
  H   H14       1.0  0.62813  0.42802  0.77911  1.0000
  H   H15       1.0  0.36921  0.62408  0.97473  1.0000
  H   H16       1.0  0.63078  0.37592  0.02527  1.0000
  H   H17       1.0  0.34694  0.06336  0.63291  1.0000
  H   H18       1.0  0.65305  0.93665  0.36709  1.0000
  H   H19       1.0  0.25002  0.95038  0.66381  1.0000
  H   H20       1.0  0.74997  0.04962  0.33618  1.0000
  C   C1        1.0  0.74592  0.98214  0.67874  1.0000
  C   C2        1.0  0.25408  0.01785  0.32126  1.0000
  C   C3        1.0  0.84204  0.05296  0.70773  1.0000
  C   C4        1.0  0.15796  0.94704  0.29227  1.0000
  C   C5        1.0  0.86039  0.04409  0.83900  1.0000
  C   C6        1.0  0.13961  0.95591  0.16100  1.0000
  C   C7        1.0  0.78369  0.96462  0.93643  1.0000
  C   C8        1.0  0.21631  0.03538  0.06357  1.0000
  C   C9        1.0  0.69001  0.89518  0.89973  1.0000
  C   C10       1.0  0.30998  0.10482  0.10026  1.0000
  C   C11       1.0  0.60367  0.80802  0.99549  1.0000
  C   C12       1.0  0.39633  0.19198  0.00451  1.0000
  C   C13       1.0  0.60582  0.78887  0.13137  1.0000
  C   C14       1.0  0.39418  0.21113  0.86863  1.0000
  C   C15       1.0  0.52095  0.70486  0.21353  1.0000
  C   C16       1.0  0.47904  0.29514  0.78647  1.0000
  C   C17       1.0  0.43677  0.64039  0.15954  1.0000
  C   C18       1.0  0.56323  0.35961  0.84046  1.0000
  C   C19       1.0  0.43649  0.66693  0.02387  1.0000
  C   C20       1.0  0.56351  0.33307  0.97613  1.0000
  C   C21       1.0  0.23216  0.73085  0.67502  1.0000
  C   C22       1.0  0.76785  0.26914  0.32499  1.0000
  C   C23       1.0  0.16933  0.61250  0.66694  1.0000
  C   C24       1.0  0.83068  0.38749  0.33306  1.0000
  C   C25       1.0  0.23161  0.53445  0.56441  1.0000
  C   C26       1.0  0.76839  0.46555  0.43559  1.0000
  C   C27       1.0  0.06124  0.56803  0.76648  1.0000
  C   C28       1.0  0.93878  0.43196  0.23353  1.0000
  C   C29       1.0  0.19941  0.41142  0.55993  1.0000
  C   C30       1.0  0.80058  0.58858  0.44007  1.0000
  C   C31       1.0  0.01747  0.45033  0.76428  1.0000
  C   C32       1.0  0.98254  0.54967  0.23572  1.0000
  C   C33       1.0  0.08817  0.37354  0.66186  1.0000
  C   C34       1.0  0.91182  0.62646  0.33814  1.0000
  C   C35       1.0  0.29709  0.31525  0.46250  1.0000
  C   C36       1.0  0.70290  0.68476  0.53750  1.0000
  N   N1        1.0  0.67237  0.90540  0.77212  1.0000
  N   N2        1.0  0.32763  0.09460  0.22788  1.0000
  N   N3        1.0  0.51789  0.74819  0.94450  1.0000
  N   N4        1.0  0.48211  0.25181  0.05550  1.0000
  O   O1        1.0  0.35078  0.69214  0.74382  1.0000
  O   O2        1.0  0.64922  0.30787  0.25619  1.0000
  O   O3        1.0  0.16625  0.85134  0.61492  1.0000
  O   O4        1.0  0.83375  0.14865  0.38508  1.0000
  O   O5        1.0  0.30344  0.36574  0.34077  1.0000
  O   O6        1.0  0.69655  0.63426  0.65922  1.0000
  O   O7        1.0  0.37564  0.18968  0.50665  1.0000
  O   O8        1.0  0.62435  0.81032  0.49335  1.0000
  O   O9        1.0  0.32416  0.98633  0.70101  1.0000
  O   O10       1.0  0.67584  0.01367  0.29899  1.0000
  F   F1        1.0  0.33914  0.57670  0.46790  1.0000
  F   F2        1.0  0.66085  0.42330  0.53209  1.0000
  F   F3        1.0  0.04572  0.25831  0.66266  1.0000
  F   F4        1.0  0.95427  0.74169  0.33733  1.0000
  F   F5        1.0  0.91075  0.40963  0.86098  1.0000
  F   F6        1.0  0.08927  0.59036  0.13903  1.0000
  F   F7        1.0  0.99676  0.63895  0.86919  1.0000
  F   F8        1.0  0.00328  0.36103  0.13082  1.0000
