data_image0
_chemical_formula_structural       Cd2H32C40S4N8Cl4
_chemical_formula_sum              "Cd2 H32 C40 S4 N8 Cl4"
_cell_length_a       7.59425
_cell_length_b       9.46011
_cell_length_c       15.5769
_cell_angle_alpha    90.0001
_cell_angle_beta     90
_cell_angle_gamma    97.6582

_space_group_name_H-M_alt    "P 1"
_space_group_IT_number       1

loop_
  _space_group_symop_operation_xyz
  'x, y, z'

loop_
  _atom_site_type_symbol
  _atom_site_label
  _atom_site_symmetry_multiplicity
  _atom_site_fract_x
  _atom_site_fract_y
  _atom_site_fract_z
  _atom_site_occupancy
  Cd  Cd1       1.0  0.50000  0.50000  0.50000  1.0000
  Cd  Cd2       1.0  0.50000  1.00000  0.00000  1.0000
  H   H1        1.0  0.88049  0.58346  0.41415  1.0000
  H   H2        1.0  0.11951  0.91654  0.91415  1.0000
  H   H3        1.0  0.11951  0.41654  0.58585  1.0000
  H   H4        1.0  0.88049  0.08346  0.08585  1.0000
  H   H5        1.0  0.06096  0.55060  0.28646  1.0000
  H   H6        1.0  0.93904  0.94940  0.78646  1.0000
  H   H7        1.0  0.93904  0.44940  0.71354  1.0000
  H   H8        1.0  0.06096  0.05060  0.21354  1.0000
  H   H9        1.0  0.58528  0.32117  0.16971  1.0000
  H   H10       1.0  0.41472  0.17883  0.66971  1.0000
  H   H11       1.0  0.41472  0.67883  0.83029  1.0000
  H   H12       1.0  0.58529  0.82117  0.33029  1.0000
  H   H13       1.0  0.42236  0.37461  0.30223  1.0000
  H   H14       1.0  0.57764  0.12539  0.80223  1.0000
  H   H15       1.0  0.57764  0.62539  0.69777  1.0000
  H   H16       1.0  0.42236  0.87461  0.19777  1.0000
  H   H17       1.0  0.50456  0.66286  0.02101  1.0000
  H   H18       1.0  0.49543  0.83714  0.52101  1.0000
  H   H19       1.0  0.49544  0.33714  0.97899  1.0000
  H   H20       1.0  0.50456  0.16286  0.47899  1.0000
  H   H21       1.0  0.32288  0.43464  0.07406  1.0000
  H   H22       1.0  0.67712  0.06536  0.57406  1.0000
  H   H23       1.0  0.67711  0.56536  0.92594  1.0000
  H   H24       1.0  0.32289  0.93464  0.42594  1.0000
  H   H25       1.0  0.89593  0.68460  0.12326  1.0000
  H   H26       1.0  0.10407  0.81539  0.62326  1.0000
  H   H27       1.0  0.10407  0.31540  0.87674  1.0000
  H   H28       1.0  0.89593  0.18460  0.37674  1.0000
  H   H29       1.0  0.09611  0.89823  0.07084  1.0000
  H   H30       1.0  0.90389  0.60176  0.57084  1.0000
  H   H31       1.0  0.90389  0.10177  0.92916  1.0000
  H   H32       1.0  0.09611  0.39824  0.42916  1.0000
  C   C1        1.0  0.81808  0.52908  0.35802  1.0000
  C   C2        1.0  0.18192  0.97092  0.85802  1.0000
  C   C3        1.0  0.18191  0.47092  0.64198  1.0000
  C   C4        1.0  0.81808  0.02908  0.14198  1.0000
  C   C5        1.0  0.91972  0.50957  0.28608  1.0000
  C   C6        1.0  0.08028  0.99043  0.78608  1.0000
  C   C7        1.0  0.08028  0.49043  0.71392  1.0000
  C   C8        1.0  0.91972  0.00958  0.21392  1.0000
  C   C9        1.0  0.83776  0.43204  0.21683  1.0000
  C   C10       1.0  0.16224  0.06796  0.71683  1.0000
  C   C11       1.0  0.16224  0.56796  0.78317  1.0000
  C   C12       1.0  0.83776  0.93204  0.28317  1.0000
  C   C13       1.0  0.65579  0.38166  0.22188  1.0000
  C   C14       1.0  0.34421  0.11834  0.72188  1.0000
  C   C15       1.0  0.34421  0.61834  0.77812  1.0000
  C   C16       1.0  0.65579  0.88166  0.27812  1.0000
  C   C17       1.0  0.56453  0.40999  0.29623  1.0000
  C   C18       1.0  0.43547  0.09001  0.79623  1.0000
  C   C19       1.0  0.43547  0.59001  0.70377  1.0000
  C   C20       1.0  0.56453  0.90999  0.20377  1.0000
  C   C21       1.0  0.36870  0.66088  0.04454  1.0000
  C   C22       1.0  0.63130  0.83912  0.54454  1.0000
  C   C23       1.0  0.63130  0.33912  0.95546  1.0000
  C   C24       1.0  0.36870  0.16088  0.45546  1.0000
  C   C25       1.0  0.26928  0.53612  0.07376  1.0000
  C   C26       1.0  0.73072  0.96388  0.57376  1.0000
  C   C27       1.0  0.73072  0.46388  0.92624  1.0000
  C   C28       1.0  0.26928  0.03612  0.42624  1.0000
  C   C29       1.0  0.09578  0.54236  0.10300  1.0000
  C   C30       1.0  0.90422  0.95764  0.60300  1.0000
  C   C31       1.0  0.90422  0.45764  0.89700  1.0000
  C   C32       1.0  0.09578  0.04236  0.39700  1.0000
  C   C33       1.0  0.03059  0.67426  0.10250  1.0000
  C   C34       1.0  0.96941  0.82574  0.60249  1.0000
  C   C35       1.0  0.96941  0.32574  0.89750  1.0000
  C   C36       1.0  0.03059  0.17426  0.39750  1.0000
  C   C37       1.0  0.14054  0.79321  0.07256  1.0000
  C   C38       1.0  0.85945  0.70679  0.57256  1.0000
  C   C39       1.0  0.85946  0.20679  0.92744  1.0000
  C   C40       1.0  0.14054  0.29321  0.42744  1.0000
  S   S1        1.0  0.96333  0.38155  0.12977  1.0000
  S   S2        1.0  0.03667  0.11845  0.62977  1.0000
  S   S3        1.0  0.03667  0.61845  0.87023  1.0000
  S   S4        1.0  0.96334  0.88155  0.37023  1.0000
  N   N1        1.0  0.64374  0.48047  0.36373  1.0000
  N   N2        1.0  0.35626  0.01953  0.86373  1.0000
  N   N3        1.0  0.35626  0.51953  0.63627  1.0000
  N   N4        1.0  0.64374  0.98047  0.13627  1.0000
  N   N5        1.0  0.30644  0.78748  0.04365  1.0000
  N   N6        1.0  0.69356  0.71252  0.54365  1.0000
  N   N7        1.0  0.69356  0.21252  0.95635  1.0000
  N   N8        1.0  0.30644  0.28748  0.45635  1.0000
  Cl  Cl1       1.0  0.71852  0.34352  0.57103  1.0000
  Cl  Cl2       1.0  0.28148  0.15648  0.07103  1.0000
  Cl  Cl3       1.0  0.28148  0.65648  0.42897  1.0000
  Cl  Cl4       1.0  0.71852  0.84351  0.92897  1.0000
