data_image0
_chemical_formula_structural       H44Pb2C36O12
_chemical_formula_sum              "H44 Pb2 C36 O12"
_cell_length_a       8.04708
_cell_length_b       9.97428
_cell_length_c       12.8346
_cell_angle_alpha    112.804
_cell_angle_beta     96.2128
_cell_angle_gamma    90.0428

_space_group_name_H-M_alt    "P 1"
_space_group_IT_number       1

loop_
  _space_group_symop_operation_xyz
  'x, y, z'

loop_
  _atom_site_type_symbol
  _atom_site_label
  _atom_site_symmetry_multiplicity
  _atom_site_fract_x
  _atom_site_fract_y
  _atom_site_fract_z
  _atom_site_occupancy
  H   H1        1.0  0.49969  0.17506  0.07391  1.0000
  H   H2        1.0  0.99999  0.10137  0.92662  1.0000
  H   H3        1.0  0.50031  0.82492  0.92609  1.0000
  H   H4        1.0  0.00000  0.89864  0.07340  1.0000
  H   H5        1.0  0.39882  0.03310  0.17975  1.0000
  H   H6        1.0  0.10079  0.85379  0.82083  1.0000
  H   H7        1.0  0.60119  0.96688  0.82026  1.0000
  H   H8        1.0  0.89919  0.14621  0.17918  1.0000
  H   H9        1.0  0.45504  0.13327  0.39134  1.0000
  H   H10       1.0  0.04458  0.74274  0.60928  1.0000
  H   H11       1.0  0.54498  0.86673  0.60867  1.0000
  H   H12       1.0  0.95541  0.25727  0.39073  1.0000
  H   H13       1.0  0.61424  0.36908  0.49444  1.0000
  H   H14       1.0  0.88554  0.87545  0.50606  1.0000
  H   H15       1.0  0.38577  0.63093  0.50556  1.0000
  H   H16       1.0  0.11449  0.12457  0.49395  1.0000
  H   H17       1.0  0.69872  0.63455  0.38534  1.0000
  H   H18       1.0  0.80130  0.24955  0.61484  1.0000
  H   H19       1.0  0.30127  0.36545  0.61466  1.0000
  H   H20       1.0  0.19872  0.75046  0.38516  1.0000
  H   H21       1.0  0.88038  0.54264  0.39819  1.0000
  H   H22       1.0  0.61950  0.14496  0.60228  1.0000
  H   H23       1.0  0.11962  0.45735  0.60180  1.0000
  H   H24       1.0  0.38052  0.85505  0.39772  1.0000
  H   H25       1.0  0.73843  0.58110  0.50247  1.0000
  H   H26       1.0  0.76114  0.07909  0.49785  1.0000
  H   H27       1.0  0.26157  0.41889  0.49752  1.0000
  H   H28       1.0  0.23888  0.92092  0.50215  1.0000
  H   H29       1.0  0.31021  0.49444  0.28676  1.0000
  H   H30       1.0  0.18933  0.20799  0.71317  1.0000
  H   H31       1.0  0.68979  0.50555  0.71323  1.0000
  H   H32       1.0  0.81067  0.79200  0.28681  1.0000
  H   H33       1.0  0.21816  0.34764  0.31153  1.0000
  H   H34       1.0  0.28191  0.03681  0.68848  1.0000
  H   H35       1.0  0.78185  0.65235  0.68846  1.0000
  H   H36       1.0  0.71810  0.96318  0.31152  1.0000
  H   H37       1.0  0.11412  0.51503  0.34260  1.0000
  H   H38       1.0  0.38555  0.17355  0.65751  1.0000
  H   H39       1.0  0.88589  0.48497  0.65741  1.0000
  H   H40       1.0  0.61447  0.82645  0.34249  1.0000
  H   H41       1.0  0.99427  0.42147  0.17209  1.0000
  H   H42       1.0  0.50549  0.24963  0.82799  1.0000
  H   H43       1.0  0.00571  0.57854  0.82793  1.0000
  H   H44       1.0  0.49450  0.75037  0.17202  1.0000
  Pb  Pb1       1.0  0.24997  0.41752  0.00016  1.0000
  Pb  Pb2       1.0  0.75000  0.58248  0.99983  1.0000
  C   C1        1.0  0.67296  0.42670  0.15405  1.0000
  C   C2        1.0  0.82687  0.27278  0.84613  1.0000
  C   C3        1.0  0.32702  0.57329  0.84594  1.0000
  C   C4        1.0  0.17312  0.72723  0.15387  1.0000
  C   C5        1.0  0.61895  0.34802  0.22398  1.0000
  C   C6        1.0  0.88090  0.12432  0.77641  1.0000
  C   C7        1.0  0.38106  0.65197  0.77601  1.0000
  C   C8        1.0  0.11910  0.87568  0.22359  1.0000
  C   C9        1.0  0.52624  0.21534  0.16638  1.0000
  C   C10       1.0  0.97347  0.04928  0.83414  1.0000
  C   C11       1.0  0.47376  0.78463  0.83361  1.0000
  C   C12       1.0  0.02654  0.95074  0.16587  1.0000
  C   C13       1.0  0.46941  0.13634  0.22531  1.0000
  C   C14       1.0  0.03026  0.91154  0.77528  1.0000
  C   C15       1.0  0.53060  0.86365  0.77470  1.0000
  C   C16       1.0  0.96972  0.08846  0.22472  1.0000
  C   C17       1.0  0.50217  0.19216  0.34382  1.0000
  C   C18       1.0  0.99754  0.84903  0.65678  1.0000
  C   C19       1.0  0.49785  0.80783  0.65618  1.0000
  C   C20       1.0  0.00246  0.15099  0.34324  1.0000
  C   C21       1.0  0.59234  0.32475  0.40165  1.0000
  C   C22       1.0  0.90747  0.92375  0.59885  1.0000
  C   C23       1.0  0.40766  0.67526  0.59835  1.0000
  C   C24       1.0  0.09255  0.07625  0.40115  1.0000
  C   C25       1.0  0.65392  0.40470  0.34392  1.0000
  C   C26       1.0  0.84588  0.06121  0.65648  1.0000
  C   C27       1.0  0.34607  0.59529  0.65608  1.0000
  C   C28       1.0  0.15414  0.93880  0.34352  1.0000
  C   C29       1.0  0.74749  0.54814  0.41139  1.0000
  C   C30       1.0  0.75232  0.13718  0.58894  1.0000
  C   C31       1.0  0.25251  0.45185  0.58860  1.0000
  C   C32       1.0  0.24771  0.86283  0.41107  1.0000
  C   C33       1.0  0.19170  0.43734  0.28361  1.0000
  C   C34       1.0  0.30797  0.15445  0.71643  1.0000
  C   C35       1.0  0.80830  0.56266  0.71639  1.0000
  C   C36       1.0  0.69203  0.84555  0.28356  1.0000
  O   O1        1.0  0.57675  0.41482  0.06433  1.0000
  O   O2        1.0  0.92292  0.35069  0.93586  1.0000
  O   O3        1.0  0.42322  0.58518  0.93567  1.0000
  O   O4        1.0  0.07706  0.64934  0.06415  1.0000
  O   O5        1.0  0.81095  0.50193  0.18284  1.0000
  O   O6        1.0  0.68912  0.31916  0.81698  1.0000
  O   O7        1.0  0.18902  0.49808  0.81716  1.0000
  O   O8        1.0  0.31088  0.68084  0.18301  1.0000
  O   O9        1.0  0.10770  0.38110  0.17012  1.0000
  O   O10       1.0  0.39172  0.21177  0.82997  1.0000
  O   O11       1.0  0.89227  0.61890  0.82988  1.0000
  O   O12       1.0  0.60825  0.78824  0.17003  1.0000
