data_image0
_chemical_formula_structural       H32Pb2C32O10
_chemical_formula_sum              "H32 Pb2 C32 O10"
_cell_length_a       7.14345
_cell_length_b       10.1844
_cell_length_c       11.5463
_cell_angle_alpha    90.3279
_cell_angle_beta     103.966
_cell_angle_gamma    105.872

_space_group_name_H-M_alt    "P 1"
_space_group_IT_number       1

loop_
  _space_group_symop_operation_xyz
  'x, y, z'

loop_
  _atom_site_type_symbol
  _atom_site_label
  _atom_site_symmetry_multiplicity
  _atom_site_fract_x
  _atom_site_fract_y
  _atom_site_fract_z
  _atom_site_occupancy
  H   H1        1.0  0.13300  0.27296  0.31782  1.0000
  H   H2        1.0  0.86701  0.72706  0.68218  1.0000
  H   H3        1.0  0.19723  0.12391  0.48182  1.0000
  H   H4        1.0  0.80278  0.87611  0.51818  1.0000
  H   H5        1.0  0.01320  0.10826  0.64322  1.0000
  H   H6        1.0  0.98681  0.89174  0.35678  1.0000
  H   H7        1.0  0.76527  0.23957  0.63399  1.0000
  H   H8        1.0  0.23474  0.76044  0.36601  1.0000
  H   H9        1.0  0.78185  0.58051  0.79930  1.0000
  H   H10       1.0  0.21815  0.41949  0.20069  1.0000
  H   H11       1.0  0.56577  0.59532  0.80630  1.0000
  H   H12       1.0  0.43422  0.40467  0.19369  1.0000
  H   H13       1.0  0.41757  0.23579  0.73215  1.0000
  H   H14       1.0  0.58245  0.76422  0.26786  1.0000
  H   H15       1.0  0.34176  0.01458  0.60988  1.0000
  H   H16       1.0  0.65824  0.98543  0.39012  1.0000
  H   H17       1.0  0.49531  0.83403  0.69626  1.0000
  H   H18       1.0  0.50467  0.16597  0.30374  1.0000
  H   H19       1.0  0.71158  0.86877  0.90067  1.0000
  H   H20       1.0  0.28841  0.13122  0.09933  1.0000
  H   H21       1.0  0.84569  0.99045  0.08746  1.0000
  H   H22       1.0  0.15431  0.00955  0.91255  1.0000
  H   H23       1.0  0.76762  0.13379  0.12256  1.0000
  H   H24       1.0  0.23239  0.86622  0.87744  1.0000
  H   H25       1.0  0.98275  0.15889  0.06758  1.0000
  H   H26       1.0  0.01724  0.84111  0.93242  1.0000
  H   H27       1.0  0.50891  0.35907  0.40331  1.0000
  H   H28       1.0  0.49110  0.64093  0.59669  1.0000
  H   H29       1.0  0.70297  0.51230  0.45089  1.0000
  H   H30       1.0  0.29702  0.48770  0.54911  1.0000
  H   H31       1.0  0.61754  0.40400  0.55897  1.0000
  H   H32       1.0  0.38245  0.59599  0.44103  1.0000
  Pb  Pb1       1.0  0.82476  0.59588  0.07187  1.0000
  Pb  Pb2       1.0  0.17523  0.40412  0.92810  1.0000
  C   C1        1.0  0.05221  0.26511  0.38748  1.0000
  C   C2        1.0  0.94780  0.73489  0.61252  1.0000
  C   C3        1.0  0.08869  0.18154  0.48000  1.0000
  C   C4        1.0  0.91131  0.81848  0.52000  1.0000
  C   C5        1.0  0.98564  0.17286  0.56956  1.0000
  C   C6        1.0  0.01437  0.82714  0.43045  1.0000
  C   C7        1.0  0.84535  0.24616  0.56394  1.0000
  C   C8        1.0  0.15465  0.75385  0.43605  1.0000
  C   C9        1.0  0.80364  0.32969  0.47041  1.0000
  C   C10       1.0  0.19635  0.67031  0.52959  1.0000
  C   C11       1.0  0.88856  0.43120  0.28126  1.0000
  C   C12       1.0  0.11143  0.56880  0.71874  1.0000
  C   C13       1.0  0.66392  0.31478  0.94772  1.0000
  C   C14       1.0  0.33608  0.68521  0.05229  1.0000
  C   C15       1.0  0.61514  0.17802  0.88267  1.0000
  C   C16       1.0  0.38486  0.82198  0.11734  1.0000
  C   C17       1.0  0.48379  0.15511  0.76773  1.0000
  C   C18       1.0  0.51622  0.84489  0.23227  1.0000
  C   C19       1.0  0.44191  0.03247  0.69952  1.0000
  C   C20       1.0  0.55810  0.96752  0.30049  1.0000
  C   C21       1.0  0.52813  0.93101  0.74774  1.0000
  C   C22       1.0  0.47184  0.06898  0.25226  1.0000
  C   C23       1.0  0.65252  0.95173  0.86353  1.0000
  C   C24       1.0  0.34748  0.04827  0.13648  1.0000
  C   C25       1.0  0.70069  0.07504  0.93326  1.0000
  C   C26       1.0  0.29931  0.92496  0.06673  1.0000
  C   C27       1.0  0.83091  0.09049  0.05892  1.0000
  C   C28       1.0  0.16909  0.90951  0.94108  1.0000
  C   C29       1.0  0.65055  0.40540  0.47099  1.0000
  C   C30       1.0  0.34946  0.59460  0.52900  1.0000
  C   C31       1.0  0.91182  0.33976  0.38165  1.0000
  C   C32       1.0  0.08818  0.66025  0.61834  1.0000
  O   O1        1.0  0.71668  0.45041  0.23509  1.0000
  O   O2        1.0  0.28331  0.54958  0.76492  1.0000
  O   O3        1.0  0.04315  0.48859  0.24337  1.0000
  O   O4        1.0  0.95683  0.51141  0.75661  1.0000
  O   O5        1.0  0.52920  0.37291  0.94982  1.0000
  O   O6        1.0  0.47079  0.62710  0.05018  1.0000
  O   O7        1.0  0.84901  0.37562  0.99978  1.0000
  O   O8        1.0  0.15098  0.62436  0.00024  1.0000
  O   O9        1.0  0.71212  0.63061  0.84082  1.0000
  O   O10       1.0  0.28787  0.36938  0.15917  1.0000
