data_image0
_chemical_formula_structural       Na2H18C14S2O16
_chemical_formula_sum              "Na2 H18 C14 S2 O16"
_cell_length_a       6.55347
_cell_length_b       7.03476
_cell_length_c       11.6175
_cell_angle_alpha    78.0745
_cell_angle_beta     83.7355
_cell_angle_gamma    78.4428

_space_group_name_H-M_alt    "P 1"
_space_group_IT_number       1

loop_
  _space_group_symop_operation_xyz
  'x, y, z'

loop_
  _atom_site_type_symbol
  _atom_site_label
  _atom_site_symmetry_multiplicity
  _atom_site_fract_x
  _atom_site_fract_y
  _atom_site_fract_z
  _atom_site_occupancy
  Na  Na1       1.0  0.23976  0.94069  0.57736  1.0000
  Na  Na2       1.0  0.76024  0.05931  0.42264  1.0000
  H   H1        1.0  0.74929  0.36831  0.19641  1.0000
  H   H2        1.0  0.25071  0.63169  0.80358  1.0000
  H   H3        1.0  0.74569  0.82227  0.18914  1.0000
  H   H4        1.0  0.25432  0.17773  0.81086  1.0000
  H   H5        1.0  0.73876  0.35242  0.90177  1.0000
  H   H6        1.0  0.26124  0.64758  0.09823  1.0000
  H   H7        1.0  0.78111  0.63029  0.92668  1.0000
  H   H8        1.0  0.21889  0.36971  0.07332  1.0000
  H   H9        1.0  0.78275  0.85701  0.73020  1.0000
  H   H10       1.0  0.21725  0.14299  0.26980  1.0000
  H   H11       1.0  0.09258  0.53844  0.67914  1.0000
  H   H12       1.0  0.90741  0.46156  0.32086  1.0000
  H   H13       1.0  0.33924  0.50795  0.65987  1.0000
  H   H14       1.0  0.66077  0.49205  0.34013  1.0000
  H   H15       1.0  0.43829  0.26342  0.52149  1.0000
  H   H16       1.0  0.56171  0.73658  0.47851  1.0000
  H   H17       1.0  0.30321  0.32349  0.41247  1.0000
  H   H18       1.0  0.69679  0.67651  0.58753  1.0000
  C   C1        1.0  0.76260  0.11820  0.80479  1.0000
  C   C2        1.0  0.23740  0.88180  0.19521  1.0000
  C   C3        1.0  0.74643  0.19514  0.90682  1.0000
  C   C4        1.0  0.25357  0.80486  0.09318  1.0000
  C   C5        1.0  0.74244  0.06955  0.01753  1.0000
  C   C6        1.0  0.25756  0.93045  0.98248  1.0000
  C   C7        1.0  0.75639  0.86350  0.02375  1.0000
  C   C8        1.0  0.24362  0.13650  0.97625  1.0000
  C   C9        1.0  0.77000  0.78857  0.91937  1.0000
  C   C10       1.0  0.23000  0.21143  0.08063  1.0000
  C   C11       1.0  0.77193  0.91475  0.81107  1.0000
  C   C12       1.0  0.22807  0.08525  0.18893  1.0000
  C   C13       1.0  0.73239  0.14411  0.12751  1.0000
  C   C14       1.0  0.26761  0.85589  0.87249  1.0000
  S   S1        1.0  0.76932  0.27407  0.66446  1.0000
  S   S2        1.0  0.23068  0.72593  0.33554  1.0000
  O   O1        1.0  0.89974  0.15443  0.58485  1.0000
  O   O2        1.0  0.10026  0.84556  0.41515  1.0000
  O   O3        1.0  0.85065  0.44901  0.67745  1.0000
  O   O4        1.0  0.14935  0.55099  0.32255  1.0000
  O   O5        1.0  0.55059  0.33267  0.62971  1.0000
  O   O6        1.0  0.44941  0.66733  0.37029  1.0000
  O   O7        1.0  0.72789  0.33499  0.11610  1.0000
  O   O8        1.0  0.27212  0.66501  0.88390  1.0000
  O   O9        1.0  0.73079  0.02973  0.22645  1.0000
  O   O10       1.0  0.26921  0.97027  0.77355  1.0000
  O   O11       1.0  0.75916  0.73711  0.12706  1.0000
  O   O12       1.0  0.24084  0.26289  0.87294  1.0000
  O   O13       1.0  0.21287  0.60390  0.67887  1.0000
  O   O14       1.0  0.78713  0.39610  0.32113  1.0000
  O   O15       1.0  0.38625  0.20839  0.46078  1.0000
  O   O16       1.0  0.61375  0.79161  0.53922  1.0000
