data_image0
_chemical_formula_structural       Zn4H36C46N8O14
_chemical_formula_sum              "Zn4 H36 C46 N8 O14"
_cell_length_a       9.21228
_cell_length_b       10.2277
_cell_length_c       13.4183
_cell_angle_alpha    83.5531
_cell_angle_beta     71.3638
_cell_angle_gamma    74.0766

_space_group_name_H-M_alt    "P 1"
_space_group_IT_number       1

loop_
  _space_group_symop_operation_xyz
  'x, y, z'

loop_
  _atom_site_type_symbol
  _atom_site_label
  _atom_site_symmetry_multiplicity
  _atom_site_fract_x
  _atom_site_fract_y
  _atom_site_fract_z
  _atom_site_occupancy
  Zn  Zn1       1.0  0.37386  0.68976  0.27222  1.0000
  Zn  Zn2       1.0  0.62614  0.31024  0.72778  1.0000
  Zn  Zn3       1.0  0.47786  0.24475  0.55087  1.0000
  Zn  Zn4       1.0  0.52214  0.75525  0.44913  1.0000
  H   H1        1.0  0.61016  0.95087  0.04991  1.0000
  H   H2        1.0  0.38984  0.04913  0.95009  1.0000
  H   H3        1.0  0.63157  0.15899  0.93690  1.0000
  H   H4        1.0  0.36843  0.84100  0.06310  1.0000
  H   H5        1.0  0.56375  0.38283  0.02139  1.0000
  H   H6        1.0  0.43625  0.61716  0.97861  1.0000
  H   H7        1.0  0.12027  0.30150  0.55972  1.0000
  H   H8        1.0  0.87974  0.69850  0.44028  1.0000
  H   H9        1.0  0.90400  0.55395  0.61775  1.0000
  H   H10       1.0  0.09601  0.44606  0.38224  1.0000
  H   H11       1.0  0.35144  0.56105  0.63837  1.0000
  H   H12       1.0  0.64856  0.43896  0.36164  1.0000
  H   H13       1.0  0.13386  0.79393  0.63684  1.0000
  H   H14       1.0  0.86613  0.20607  0.36315  1.0000
  H   H15       1.0  0.94119  0.78064  0.64258  1.0000
  H   H16       1.0  0.05881  0.21936  0.35742  1.0000
  H   H17       1.0  0.77803  0.68050  0.81160  1.0000
  H   H18       1.0  0.22198  0.31949  0.18840  1.0000
  H   H19       1.0  0.71456  0.65077  0.00623  1.0000
  H   H20       1.0  0.28545  0.34922  0.99377  1.0000
  H   H21       1.0  0.13447  0.77200  0.98973  1.0000
  H   H22       1.0  0.86552  0.22801  0.01027  1.0000
  H   H23       1.0  0.20215  0.79163  0.79615  1.0000
  H   H24       1.0  0.79785  0.20838  0.20384  1.0000
  H   H25       1.0  0.90926  0.57379  0.14779  1.0000
  H   H26       1.0  0.09074  0.42621  0.85222  1.0000
  H   H27       1.0  0.75804  0.72605  0.16868  1.0000
  H   H28       1.0  0.24196  0.27395  0.83132  1.0000
  H   H29       1.0  0.16891  0.56433  0.17401  1.0000
  H   H30       1.0  0.83109  0.43568  0.82599  1.0000
  H   H31       1.0  0.08706  0.96361  0.27082  1.0000
  H   H32       1.0  0.91294  0.03640  0.72918  1.0000
  H   H33       1.0  0.83854  0.94838  0.20067  1.0000
  H   H34       1.0  0.16145  0.05163  0.79933  1.0000
  H   H35       1.0  0.33331  0.61197  0.45374  1.0000
  H   H36       1.0  0.66669  0.38803  0.54626  1.0000
  C   C1        1.0  0.51852  0.92631  0.25806  1.0000
  C   C2        1.0  0.48147  0.07369  0.74195  1.0000
  C   C3        1.0  0.53365  0.05548  0.19533  1.0000
  C   C4        1.0  0.46634  0.94452  0.80468  1.0000
  C   C5        1.0  0.58273  0.04897  0.08523  1.0000
  C   C6        1.0  0.41728  0.95103  0.91478  1.0000
  C   C7        1.0  0.59536  0.16532  0.02213  1.0000
  C   C8        1.0  0.40464  0.83467  0.97787  1.0000
  C   C9        1.0  0.55713  0.28997  0.06930  1.0000
  C   C10       1.0  0.44287  0.71003  0.93070  1.0000
  C   C11       1.0  0.50665  0.29871  0.17912  1.0000
  C   C12       1.0  0.49335  0.70129  0.82088  1.0000
  C   C13       1.0  0.49562  0.18065  0.24375  1.0000
  C   C14       1.0  0.50438  0.81935  0.75626  1.0000
  C   C15       1.0  0.44023  0.18952  0.36257  1.0000
  C   C16       1.0  0.55977  0.81048  0.63742  1.0000
  C   C17       1.0  0.45198  0.43606  0.22655  1.0000
  C   C18       1.0  0.54802  0.56395  0.77344  1.0000
  C   C19       1.0  0.13404  0.39231  0.58626  1.0000
  C   C20       1.0  0.86596  0.60769  0.41374  1.0000
  C   C21       1.0  0.02839  0.51644  0.61250  1.0000
  C   C22       1.0  0.97162  0.48356  0.38749  1.0000
  C   C23       1.0  0.26155  0.52221  0.62408  1.0000
  C   C24       1.0  0.73846  0.47779  0.37592  1.0000
  C   C25       1.0  0.04336  0.73732  0.67218  1.0000
  C   C26       1.0  0.95664  0.26268  0.32782  1.0000
  C   C27       1.0  0.99565  0.73583  0.79086  1.0000
  C   C28       1.0  0.00435  0.26417  0.20914  1.0000
  C   C29       1.0  0.85759  0.69769  0.85111  1.0000
  C   C30       1.0  0.14241  0.30230  0.14889  1.0000
  C   C31       1.0  0.82115  0.68242  0.96016  1.0000
  C   C32       1.0  0.17885  0.31757  0.03984  1.0000
  C   C33       1.0  0.92176  0.70750  0.01116  1.0000
  C   C34       1.0  0.07824  0.29250  0.98884  1.0000
  C   C35       1.0  0.05627  0.74995  0.95150  1.0000
  C   C36       1.0  0.94373  0.25005  0.04850  1.0000
  C   C37       1.0  0.09392  0.76275  0.84214  1.0000
  C   C38       1.0  0.90607  0.23726  0.15786  1.0000
  C   C39       1.0  0.88429  0.68370  0.12902  1.0000
  C   C40       1.0  0.11570  0.31630  0.87098  1.0000
  C   C41       1.0  0.11618  0.67111  0.19044  1.0000
  C   C42       1.0  0.88382  0.32890  0.80956  1.0000
  C   C43       1.0  0.06749  0.87859  0.24005  1.0000
  C   C44       1.0  0.93251  0.12141  0.75995  1.0000
  C   C45       1.0  0.94454  0.87259  0.20534  1.0000
  C   C46       1.0  0.05546  0.12741  0.79466  1.0000
  N   N1        1.0  0.27858  0.39704  0.59375  1.0000
  N   N2        1.0  0.72142  0.60296  0.40625  1.0000
  N   N3        1.0  0.11115  0.59722  0.63496  1.0000
  N   N4        1.0  0.88885  0.40278  0.36504  1.0000
  N   N5        1.0  0.17382  0.75204  0.23034  1.0000
  N   N6        1.0  0.82618  0.24797  0.76966  1.0000
  N   N7        1.0  0.97704  0.74028  0.17479  1.0000
  N   N8        1.0  0.02296  0.25973  0.82521  1.0000
  O   O1        1.0  0.48304  0.83984  0.21415  1.0000
  O   O2        1.0  0.51695  0.16016  0.78586  1.0000
  O   O3        1.0  0.54624  0.91114  0.34611  1.0000
  O   O4        1.0  0.45376  0.08886  0.65389  1.0000
  O   O5        1.0  0.30679  0.17510  0.41366  1.0000
  O   O6        1.0  0.69321  0.82491  0.58634  1.0000
  O   O7        1.0  0.54497  0.21217  0.40002  1.0000
  O   O8        1.0  0.45502  0.78783  0.59998  1.0000
  O   O9        1.0  0.34297  0.45632  0.31310  1.0000
  O   O10       1.0  0.65703  0.54369  0.68689  1.0000
  O   O11       1.0  0.51349  0.53252  0.17481  1.0000
  O   O12       1.0  0.48651  0.46748  0.82518  1.0000
  O   O13       1.0  0.35197  0.69785  0.42054  1.0000
  O   O14       1.0  0.64803  0.30215  0.57946  1.0000
