data_image0
_chemical_formula_structural       Cd2H16C24N4O12
_chemical_formula_sum              "Cd2 H16 C24 N4 O12"
_cell_length_a       6.73164
_cell_length_b       10.1835
_cell_length_c       10.1835
_cell_angle_alpha    90.8193
_cell_angle_beta     88.009
_cell_angle_gamma    88.0118

_space_group_name_H-M_alt    "P 1"
_space_group_IT_number       1

loop_
  _space_group_symop_operation_xyz
  'x, y, z'

loop_
  _atom_site_type_symbol
  _atom_site_label
  _atom_site_symmetry_multiplicity
  _atom_site_fract_x
  _atom_site_fract_y
  _atom_site_fract_z
  _atom_site_occupancy
  Cd  Cd1       1.0  0.25000  0.57666  0.42335  1.0000
  Cd  Cd2       1.0  0.75000  0.42335  0.57665  1.0000
  H   H1        1.0  0.09530  0.21966  0.65306  1.0000
  H   H2        1.0  0.59531  0.65305  0.21966  1.0000
  H   H3        1.0  0.90470  0.78034  0.34692  1.0000
  H   H4        1.0  0.40468  0.34695  0.78035  1.0000
  H   H5        1.0  0.21884  0.30379  0.26237  1.0000
  H   H6        1.0  0.71881  0.26236  0.30379  1.0000
  H   H7        1.0  0.78117  0.69621  0.73762  1.0000
  H   H8        1.0  0.28120  0.73763  0.69621  1.0000
  H   H9        1.0  0.21168  0.98209  0.61863  1.0000
  H   H10       1.0  0.71168  0.61861  0.98209  1.0000
  H   H11       1.0  0.78831  0.01790  0.38136  1.0000
  H   H12       1.0  0.28831  0.38139  0.01792  1.0000
  H   H13       1.0  0.34946  0.06731  0.21376  1.0000
  H   H14       1.0  0.84943  0.21374  0.06732  1.0000
  H   H15       1.0  0.65055  0.93269  0.78623  1.0000
  H   H16       1.0  0.15057  0.78626  0.93269  1.0000
  C   C1        1.0  0.28747  0.00641  0.41270  1.0000
  C   C2        1.0  0.78746  0.41267  0.00642  1.0000
  C   C3        1.0  0.71253  0.99358  0.58729  1.0000
  C   C4        1.0  0.21253  0.58733  0.99359  1.0000
  C   C5        1.0  0.15332  0.17892  0.55895  1.0000
  C   C6        1.0  0.65332  0.55894  0.17892  1.0000
  C   C7        1.0  0.84667  0.82107  0.44104  1.0000
  C   C8        1.0  0.34668  0.44106  0.82108  1.0000
  C   C9        1.0  0.22486  0.22606  0.33474  1.0000
  C   C10       1.0  0.72484  0.33473  0.22606  1.0000
  C   C11       1.0  0.77515  0.77395  0.66525  1.0000
  C   C12       1.0  0.27515  0.66526  0.77395  1.0000
  C   C13       1.0  0.34693  0.86389  0.38600  1.0000
  C   C14       1.0  0.84692  0.38598  0.86389  1.0000
  C   C15       1.0  0.65307  0.13610  0.61400  1.0000
  C   C16       1.0  0.15307  0.61403  0.13611  1.0000
  C   C17       1.0  0.21725  0.04983  0.53720  1.0000
  C   C18       1.0  0.71724  0.53718  0.04983  1.0000
  C   C19       1.0  0.78276  0.95016  0.46279  1.0000
  C   C20       1.0  0.28275  0.46282  0.95018  1.0000
  C   C21       1.0  0.29373  0.09808  0.31153  1.0000
  C   C22       1.0  0.79370  0.31151  0.09808  1.0000
  C   C23       1.0  0.70628  0.90192  0.68846  1.0000
  C   C24       1.0  0.20630  0.68849  0.90192  1.0000
  N   N1        1.0  0.15399  0.26333  0.45712  1.0000
  N   N2        1.0  0.65398  0.45712  0.26333  1.0000
  N   N3        1.0  0.84601  0.73667  0.54287  1.0000
  N   N4        1.0  0.34601  0.54288  0.73668  1.0000
  O   O1        1.0  0.44162  0.83227  0.28235  1.0000
  O   O2        1.0  0.94160  0.28232  0.83226  1.0000
  O   O3        1.0  0.55839  0.16772  0.71765  1.0000
  O   O4        1.0  0.05840  0.71769  0.16774  1.0000
  O   O5        1.0  0.07849  0.38452  0.47681  1.0000
  O   O6        1.0  0.57849  0.47681  0.38452  1.0000
  O   O7        1.0  0.92151  0.61548  0.52318  1.0000
  O   O8        1.0  0.42151  0.52319  0.61549  1.0000
  O   O9        1.0  0.28727  0.78574  0.47761  1.0000
  O   O10       1.0  0.78728  0.47759  0.78574  1.0000
  O   O11       1.0  0.71274  0.21426  0.52238  1.0000
  O   O12       1.0  0.21271  0.52242  0.21427  1.0000
