data_image0
_chemical_formula_structural       Zn2H44C48N20
_chemical_formula_sum              "Zn2 H44 C48 N20"
_cell_length_a       9.61496
_cell_length_b       10.275
_cell_length_c       13.3221
_cell_angle_alpha    98.67
_cell_angle_beta     105.643
_cell_angle_gamma    109.519

_space_group_name_H-M_alt    "P 1"
_space_group_IT_number       1

loop_
  _space_group_symop_operation_xyz
  'x, y, z'

loop_
  _atom_site_type_symbol
  _atom_site_label
  _atom_site_symmetry_multiplicity
  _atom_site_fract_x
  _atom_site_fract_y
  _atom_site_fract_z
  _atom_site_occupancy
  Zn  Zn1       1.0  0.60671  0.98532  0.70222  1.0000
  Zn  Zn2       1.0  0.39329  0.01468  0.29778  1.0000
  H   H1        1.0  0.36146  0.32501  0.07947  1.0000
  H   H2        1.0  0.63854  0.67499  0.92053  1.0000
  H   H3        1.0  0.31288  0.47656  0.08015  1.0000
  H   H4        1.0  0.68712  0.52344  0.91985  1.0000
  H   H5        1.0  0.36208  0.48592  0.90289  1.0000
  H   H6        1.0  0.63791  0.51408  0.09711  1.0000
  H   H7        1.0  0.16249  0.08799  0.97288  1.0000
  H   H8        1.0  0.83751  0.91200  0.02712  1.0000
  H   H9        1.0  0.88549  0.94310  0.84833  1.0000
  H   H10       1.0  0.11451  0.05690  0.15167  1.0000
  H   H11       1.0  0.81638  0.30539  0.79256  1.0000
  H   H12       1.0  0.18362  0.69460  0.20745  1.0000
  H   H13       1.0  0.08741  0.46662  0.91665  1.0000
  H   H14       1.0  0.91259  0.53338  0.08335  1.0000
  H   H15       1.0  0.56406  0.26372  0.04122  1.0000
  H   H16       1.0  0.43594  0.73628  0.95878  1.0000
  H   H17       1.0  0.62559  0.08545  0.93219  1.0000
  H   H18       1.0  0.37441  0.91455  0.06781  1.0000
  H   H19       1.0  0.40120  0.15220  0.64519  1.0000
  H   H20       1.0  0.59881  0.84780  0.35481  1.0000
  H   H21       1.0  0.33829  0.34212  0.74236  1.0000
  H   H22       1.0  0.66171  0.65788  0.25764  1.0000
  H   H23       1.0  0.04485  0.71917  0.46014  1.0000
  H   H24       1.0  0.95515  0.28084  0.53986  1.0000
  H   H25       1.0  0.86004  0.58888  0.36860  1.0000
  H   H26       1.0  0.13996  0.41112  0.63139  1.0000
  H   H27       1.0  0.82733  0.44533  0.49122  1.0000
  H   H28       1.0  0.17267  0.55467  0.50877  1.0000
  H   H29       1.0  0.61757  0.55537  0.44319  1.0000
  H   H30       1.0  0.38243  0.44463  0.55681  1.0000
  H   H31       1.0  0.50412  0.69512  0.54289  1.0000
  H   H32       1.0  0.49588  0.30488  0.45711  1.0000
  H   H33       1.0  0.91603  0.05812  0.65102  1.0000
  H   H34       1.0  0.08396  0.94188  0.34897  1.0000
  H   H35       1.0  0.05270  0.92835  0.56821  1.0000
  H   H36       1.0  0.94730  0.07165  0.43179  1.0000
  H   H37       1.0  0.78147  0.46608  0.65633  1.0000
  H   H38       1.0  0.21853  0.53393  0.34367  1.0000
  H   H39       1.0  0.86564  0.59423  0.84971  1.0000
  H   H40       1.0  0.13436  0.40578  0.15029  1.0000
  H   H41       1.0  0.29320  0.86397  0.84573  1.0000
  H   H42       1.0  0.70680  0.13603  0.15426  1.0000
  H   H43       1.0  0.22643  0.75216  0.65268  1.0000
  H   H44       1.0  0.77357  0.24784  0.34732  1.0000
  C   C1        1.0  0.31316  0.38360  0.02726  1.0000
  C   C2        1.0  0.68684  0.61640  0.97274  1.0000
  C   C3        1.0  0.42033  0.43981  0.96218  1.0000
  C   C4        1.0  0.57967  0.56019  0.03783  1.0000
  C   C5        1.0  0.14819  0.29000  0.95503  1.0000
  C   C6        1.0  0.85181  0.70999  0.04497  1.0000
  C   C7        1.0  0.08960  0.14077  0.93475  1.0000
  C   C8        1.0  0.91040  0.85922  0.06525  1.0000
  C   C9        1.0  0.93600  0.05960  0.86576  1.0000
  C   C10       1.0  0.06400  0.94039  0.13424  1.0000
  C   C11       1.0  0.89659  0.26239  0.83562  1.0000
  C   C12       1.0  0.10341  0.73760  0.16438  1.0000
  C   C13       1.0  0.04797  0.35079  0.90379  1.0000
  C   C14       1.0  0.95203  0.64920  0.09621  1.0000
  C   C15       1.0  0.44647  0.31977  0.90017  1.0000
  C   C16       1.0  0.55353  0.68022  0.09983  1.0000
  C   C17       1.0  0.52519  0.24341  0.95347  1.0000
  C   C18       1.0  0.47481  0.75659  0.04653  1.0000
  C   C19       1.0  0.55895  0.14276  0.89341  1.0000
  C   C20       1.0  0.44105  0.85724  0.10658  1.0000
  C   C21       1.0  0.43382  0.18055  0.73285  1.0000
  C   C22       1.0  0.56618  0.81945  0.26715  1.0000
  C   C23       1.0  0.39749  0.28421  0.78722  1.0000
  C   C24       1.0  0.60251  0.71579  0.21278  1.0000
  C   C25       1.0  0.92761  0.64600  0.45415  1.0000
  C   C26       1.0  0.07238  0.35400  0.54585  1.0000
  C   C27       1.0  0.94461  0.53220  0.51618  1.0000
  C   C28       1.0  0.05539  0.46780  0.48382  1.0000
  C   C29       1.0  0.84666  0.72977  0.49926  1.0000
  C   C30       1.0  0.15334  0.27023  0.50075  1.0000
  C   C31       1.0  0.68905  0.66557  0.49128  1.0000
  C   C32       1.0  0.31095  0.33443  0.50871  1.0000
  C   C33       1.0  0.62464  0.74356  0.54463  1.0000
  C   C34       1.0  0.37536  0.25644  0.45537  1.0000
  C   C35       1.0  0.85475  0.94555  0.60619  1.0000
  C   C36       1.0  0.14525  0.05446  0.39381  1.0000
  C   C37       1.0  0.92933  0.87343  0.55823  1.0000
  C   C38       1.0  0.07066  0.12658  0.44177  1.0000
  C   C39       1.0  0.99722  0.59702  0.63681  1.0000
  C   C40       1.0  0.00278  0.40298  0.36319  1.0000
  C   C41       1.0  0.89659  0.55413  0.69510  1.0000
  C   C42       1.0  0.10341  0.44587  0.30490  1.0000
  C   C43       1.0  0.94420  0.62578  0.80392  1.0000
  C   C44       1.0  0.05580  0.37422  0.19608  1.0000
  C   C45       1.0  0.17990  0.77465  0.80196  1.0000
  C   C46       1.0  0.82010  0.22536  0.19803  1.0000
  C   C47       1.0  0.14301  0.71033  0.69309  1.0000
  C   C48       1.0  0.85699  0.28967  0.30691  1.0000
  N   N1        1.0  0.66393  0.17224  0.60999  1.0000
  N   N2        1.0  0.33607  0.82776  0.39001  1.0000
  N   N3        1.0  0.64215  0.14334  0.51645  1.0000
  N   N4        1.0  0.35785  0.85666  0.48355  1.0000
  N   N5        1.0  0.62319  0.11737  0.42238  1.0000
  N   N6        1.0  0.37680  0.88263  0.57762  1.0000
  N   N7        1.0  0.57922  0.83792  0.79554  1.0000
  N   N8        1.0  0.42077  0.16208  0.20446  1.0000
  N   N9        1.0  0.50072  0.71251  0.75660  1.0000
  N   N10       1.0  0.49928  0.28749  0.24340  1.0000
  N   N11       1.0  0.42513  0.58886  0.72241  1.0000
  N   N12       1.0  0.57487  0.41114  0.27759  1.0000
  N   N13       1.0  0.84109  0.11894  0.81639  1.0000
  N   N14       1.0  0.15891  0.88106  0.18361  1.0000
  N   N15       1.0  0.51592  0.11308  0.78503  1.0000
  N   N16       1.0  0.48408  0.88693  0.21497  1.0000
  N   N17       1.0  0.70553  0.88164  0.60202  1.0000
  N   N18       1.0  0.29447  0.11836  0.39798  1.0000
  N   N19       1.0  0.08345  0.73495  0.85844  1.0000
  N   N20       1.0  0.91655  0.26506  0.14156  1.0000
