data_image0
_chemical_formula_structural       Gd4H12C4S4O28
_chemical_formula_sum              "Gd4 H12 C4 S4 O28"
_cell_length_a       6.87505
_cell_length_b       6.87547
_cell_length_c       11.5241
_cell_angle_alpha    90
_cell_angle_beta     90.0001
_cell_angle_gamma    90.0017

_space_group_name_H-M_alt    "P 1"
_space_group_IT_number       1

loop_
  _space_group_symop_operation_xyz
  'x, y, z'

loop_
  _atom_site_type_symbol
  _atom_site_label
  _atom_site_symmetry_multiplicity
  _atom_site_fract_x
  _atom_site_fract_y
  _atom_site_fract_z
  _atom_site_occupancy
  Gd  Gd1       1.0  0.12336  0.61766  0.21013  1.0000
  Gd  Gd2       1.0  0.87664  0.38234  0.71013  1.0000
  Gd  Gd3       1.0  0.38245  0.12349  0.46010  1.0000
  Gd  Gd4       1.0  0.61755  0.87651  0.96010  1.0000
  H   H1        1.0  0.62792  0.52637  0.25225  1.0000
  H   H2        1.0  0.37208  0.47363  0.75225  1.0000
  H   H3        1.0  0.47373  0.62822  0.50219  1.0000
  H   H4        1.0  0.52627  0.37177  0.00219  1.0000
  H   H5        1.0  0.95767  0.89051  0.38988  1.0000
  H   H6        1.0  0.04234  0.10949  0.88988  1.0000
  H   H7        1.0  0.10957  0.95759  0.63977  1.0000
  H   H8        1.0  0.89043  0.04241  0.13977  1.0000
  H   H9        1.0  0.90057  0.67769  0.43189  1.0000
  H   H10       1.0  0.09943  0.32231  0.93189  1.0000
  H   H11       1.0  0.32242  0.90034  0.68170  1.0000
  H   H12       1.0  0.67758  0.09966  0.18170  1.0000
  C   C1        1.0  0.62534  0.61755  0.17380  1.0000
  C   C2        1.0  0.37466  0.38245  0.67380  1.0000
  C   C3        1.0  0.38252  0.62581  0.42374  1.0000
  C   C4        1.0  0.61748  0.37418  0.92374  1.0000
  S   S1        1.0  0.11235  0.72628  0.90295  1.0000
  S   S2        1.0  0.88765  0.27372  0.40295  1.0000
  S   S3        1.0  0.27358  0.11256  0.15279  1.0000
  S   S4        1.0  0.72642  0.88744  0.65279  1.0000
  O   O1        1.0  0.11529  0.59605  0.00515  1.0000
  O   O2        1.0  0.88471  0.40395  0.50515  1.0000
  O   O3        1.0  0.40379  0.11585  0.25504  1.0000
  O   O4        1.0  0.59621  0.88415  0.75504  1.0000
  O   O5        1.0  0.07083  0.61107  0.79834  1.0000
  O   O6        1.0  0.92917  0.38893  0.29834  1.0000
  O   O7        1.0  0.38895  0.07095  0.04827  1.0000
  O   O8        1.0  0.61105  0.92905  0.54827  1.0000
  O   O9        1.0  0.30216  0.82012  0.88596  1.0000
  O   O10       1.0  0.69784  0.17987  0.38596  1.0000
  O   O11       1.0  0.17955  0.30220  0.13564  1.0000
  O   O12       1.0  0.82046  0.69780  0.63564  1.0000
  O   O13       1.0  0.95799  0.87908  0.91855  1.0000
  O   O14       1.0  0.04201  0.12093  0.41855  1.0000
  O   O15       1.0  0.12092  0.95807  0.16840  1.0000
  O   O16       1.0  0.87908  0.04193  0.66840  1.0000
  O   O17       1.0  0.46194  0.67048  0.13094  1.0000
  O   O18       1.0  0.53806  0.32952  0.63094  1.0000
  O   O19       1.0  0.32954  0.46250  0.38076  1.0000
  O   O20       1.0  0.67046  0.53750  0.88077  1.0000
  O   O21       1.0  0.78454  0.66411  0.12575  1.0000
  O   O22       1.0  0.21546  0.33589  0.62575  1.0000
  O   O23       1.0  0.33603  0.78512  0.37580  1.0000
  O   O24       1.0  0.66397  0.21488  0.87581  1.0000
  O   O25       1.0  0.92667  0.75727  0.36291  1.0000
  O   O26       1.0  0.07333  0.24273  0.86291  1.0000
  O   O27       1.0  0.24279  0.92658  0.61277  1.0000
  O   O28       1.0  0.75721  0.07342  0.11277  1.0000
