data_image0
_chemical_formula_structural       Gd8H28C4S10O60
_chemical_formula_sum              "Gd8 H28 C4 S10 O60"
_cell_length_a       9.76599
_cell_length_b       11.5155
_cell_length_c       11.5155
_cell_angle_alpha    66.9004
_cell_angle_beta     87.7634
_cell_angle_gamma    87.7635

_space_group_name_H-M_alt    "P 1"
_space_group_IT_number       1

loop_
  _space_group_symop_operation_xyz
  'x, y, z'

loop_
  _atom_site_type_symbol
  _atom_site_label
  _atom_site_symmetry_multiplicity
  _atom_site_fract_x
  _atom_site_fract_y
  _atom_site_fract_z
  _atom_site_occupancy
  Gd  Gd1       1.0  0.09857  0.99833  0.33423  1.0000
  Gd  Gd2       1.0  0.40143  0.66577  0.00167  1.0000
  Gd  Gd3       1.0  0.90143  0.00167  0.66577  1.0000
  Gd  Gd4       1.0  0.59856  0.33423  0.99833  1.0000
  Gd  Gd5       1.0  0.00148  0.52429  0.23260  1.0000
  Gd  Gd6       1.0  0.49852  0.76740  0.47571  1.0000
  Gd  Gd7       1.0  0.99852  0.47571  0.76740  1.0000
  Gd  Gd8       1.0  0.50148  0.23260  0.52429  1.0000
  H   H1        1.0  0.94109  0.80707  0.20779  1.0000
  H   H2        1.0  0.55891  0.79221  0.19293  1.0000
  H   H3        1.0  0.05891  0.19293  0.79221  1.0000
  H   H4        1.0  0.44110  0.20779  0.80707  1.0000
  H   H5        1.0  0.81538  0.74169  0.17777  1.0000
  H   H6        1.0  0.68462  0.82223  0.25831  1.0000
  H   H7        1.0  0.18463  0.25831  0.82222  1.0000
  H   H8        1.0  0.31538  0.17776  0.74170  1.0000
  H   H9        1.0  0.78325  0.43648  0.42945  1.0000
  H   H10       1.0  0.71675  0.57055  0.56352  1.0000
  H   H11       1.0  0.21675  0.56352  0.57055  1.0000
  H   H12       1.0  0.28325  0.42945  0.43648  1.0000
  H   H13       1.0  0.92079  0.37710  0.49718  1.0000
  H   H14       1.0  0.57921  0.50282  0.62290  1.0000
  H   H15       1.0  0.07921  0.62289  0.50282  1.0000
  H   H16       1.0  0.42079  0.49718  0.37711  1.0000
  H   H17       1.0  0.84589  0.05500  0.16705  1.0000
  H   H18       1.0  0.65411  0.83295  0.94500  1.0000
  H   H19       1.0  0.15411  0.94500  0.83294  1.0000
  H   H20       1.0  0.34589  0.16705  0.05500  1.0000
  H   H21       1.0  0.81250  0.94056  0.29682  1.0000
  H   H22       1.0  0.68750  0.70318  0.05944  1.0000
  H   H23       1.0  0.18750  0.05944  0.70318  1.0000
  H   H24       1.0  0.31249  0.29682  0.94056  1.0000
  H   H25       1.0  0.25723  0.82292  0.68528  1.0000
  H   H26       1.0  0.24277  0.31471  0.17707  1.0000
  H   H27       1.0  0.74277  0.17708  0.31472  1.0000
  H   H28       1.0  0.75723  0.68529  0.82293  1.0000
  C   C1        1.0  0.21606  0.87637  0.59085  1.0000
  C   C2        1.0  0.28395  0.40915  0.12362  1.0000
  C   C3        1.0  0.78394  0.12362  0.40915  1.0000
  C   C4        1.0  0.71605  0.59085  0.87638  1.0000
  S   S1        1.0  0.96491  0.28341  0.09959  1.0000
  S   S2        1.0  0.53508  0.90041  0.71659  1.0000
  S   S3        1.0  0.03509  0.71659  0.90041  1.0000
  S   S4        1.0  0.46492  0.09959  0.28341  1.0000
  S   S5        1.0  0.86334  0.76670  0.53295  1.0000
  S   S6        1.0  0.63666  0.46705  0.23330  1.0000
  S   S7        1.0  0.13666  0.23330  0.46705  1.0000
  S   S8        1.0  0.36335  0.53295  0.76670  1.0000
  S   S9        1.0  0.25000  0.75411  0.24589  1.0000
  S   S10       1.0  0.75000  0.24589  0.75411  1.0000
  O   O1        1.0  0.90361  0.72567  0.21816  1.0000
  O   O2        1.0  0.59640  0.78184  0.27434  1.0000
  O   O3        1.0  0.09639  0.27434  0.78184  1.0000
  O   O4        1.0  0.40360  0.21816  0.72566  1.0000
  O   O5        1.0  0.74539  0.80573  0.44650  1.0000
  O   O6        1.0  0.75462  0.55350  0.19427  1.0000
  O   O7        1.0  0.25462  0.19427  0.55350  1.0000
  O   O8        1.0  0.24538  0.44650  0.80573  1.0000
  O   O9        1.0  0.88180  0.45318  0.43149  1.0000
  O   O10       1.0  0.61820  0.56851  0.54681  1.0000
  O   O11       1.0  0.11820  0.54681  0.56852  1.0000
  O   O12       1.0  0.38180  0.43149  0.45319  1.0000
  O   O13       1.0  0.87835  0.97050  0.22485  1.0000
  O   O14       1.0  0.62165  0.77515  0.02950  1.0000
  O   O15       1.0  0.12165  0.02950  0.77514  1.0000
  O   O16       1.0  0.37835  0.22485  0.97050  1.0000
  O   O17       1.0  0.10523  0.94097  0.57842  1.0000
  O   O18       1.0  0.39476  0.42158  0.05904  1.0000
  O   O19       1.0  0.89477  0.05904  0.42158  1.0000
  O   O20       1.0  0.60524  0.57842  0.94096  1.0000
  O   O21       1.0  0.99300  0.79854  0.45570  1.0000
  O   O22       1.0  0.50700  0.54430  0.20146  1.0000
  O   O23       1.0  0.00700  0.20146  0.54430  1.0000
  O   O24       1.0  0.49300  0.45570  0.79854  1.0000
  O   O25       1.0  0.05825  0.17041  0.14975  1.0000
  O   O26       1.0  0.44175  0.85025  0.82958  1.0000
  O   O27       1.0  0.94175  0.82959  0.85025  1.0000
  O   O28       1.0  0.55825  0.14975  0.17042  1.0000
  O   O29       1.0  0.95170  0.34608  0.19051  1.0000
  O   O30       1.0  0.54830  0.80949  0.65392  1.0000
  O   O31       1.0  0.04830  0.65392  0.80949  1.0000
  O   O32       1.0  0.45170  0.19051  0.34608  1.0000
  O   O33       1.0  0.27888  0.87229  0.49344  1.0000
  O   O34       1.0  0.22112  0.50656  0.12771  1.0000
  O   O35       1.0  0.72112  0.12771  0.50656  1.0000
  O   O36       1.0  0.77888  0.49344  0.87229  1.0000
  O   O37       1.0  0.82953  0.24070  0.07792  1.0000
  O   O38       1.0  0.67047  0.92208  0.75929  1.0000
  O   O39       1.0  0.17047  0.75929  0.92208  1.0000
  O   O40       1.0  0.32953  0.07792  0.24071  1.0000
  O   O41       1.0  0.02762  0.37141  0.98003  1.0000
  O   O42       1.0  0.47238  0.01997  0.62859  1.0000
  O   O43       1.0  0.97238  0.62859  0.01997  1.0000
  O   O44       1.0  0.52762  0.98003  0.37141  1.0000
  O   O45       1.0  0.16227  0.64378  0.27417  1.0000
  O   O46       1.0  0.33773  0.72583  0.35621  1.0000
  O   O47       1.0  0.83773  0.35622  0.72583  1.0000
  O   O48       1.0  0.66227  0.27417  0.64379  1.0000
  O   O49       1.0  0.86158  0.62705  0.60510  1.0000
  O   O50       1.0  0.63842  0.39490  0.37295  1.0000
  O   O51       1.0  0.13843  0.37295  0.39490  1.0000
  O   O52       1.0  0.36158  0.60510  0.62705  1.0000
  O   O53       1.0  0.16375  0.86932  0.22538  1.0000
  O   O54       1.0  0.33625  0.77462  0.13069  1.0000
  O   O55       1.0  0.83625  0.13068  0.77462  1.0000
  O   O56       1.0  0.66375  0.22538  0.86932  1.0000
  O   O57       1.0  0.85117  0.82832  0.62282  1.0000
  O   O58       1.0  0.64883  0.37718  0.17168  1.0000
  O   O59       1.0  0.14883  0.17168  0.37718  1.0000
  O   O60       1.0  0.35117  0.62282  0.82832  1.0000
