data_image0
_chemical_formula_structural       Ho2H38C60N10O14
_chemical_formula_sum              "Ho2 H38 C60 N10 O14"
_cell_length_a       10.4224
_cell_length_b       11.2014
_cell_length_c       13.3892
_cell_angle_alpha    109.883
_cell_angle_beta     101.345
_cell_angle_gamma    108.195

_space_group_name_H-M_alt    "P 1"
_space_group_IT_number       1

loop_
  _space_group_symop_operation_xyz
  'x, y, z'

loop_
  _atom_site_type_symbol
  _atom_site_label
  _atom_site_symmetry_multiplicity
  _atom_site_fract_x
  _atom_site_fract_y
  _atom_site_fract_z
  _atom_site_occupancy
  Ho  Ho1       1.0  0.50019  0.08489  0.37590  1.0000
  Ho  Ho2       1.0  0.49981  0.91511  0.62410  1.0000
  H   H1        1.0  0.41440  0.56255  0.98843  1.0000
  H   H2        1.0  0.58560  0.43745  0.01157  1.0000
  H   H3        1.0  0.27024  0.32020  0.95907  1.0000
  H   H4        1.0  0.72976  0.67980  0.04093  1.0000
  H   H5        1.0  0.96103  0.45122  0.38680  1.0000
  H   H6        1.0  0.03897  0.54879  0.61320  1.0000
  H   H7        1.0  0.03019  0.30847  0.47782  1.0000
  H   H8        1.0  0.96980  0.69153  0.52218  1.0000
  H   H9        1.0  0.23870  0.24836  0.44891  1.0000
  H   H10       1.0  0.76130  0.75164  0.55109  1.0000
  H   H11       1.0  0.92754  0.31112  0.70665  1.0000
  H   H12       1.0  0.07248  0.68889  0.29336  1.0000
  H   H13       1.0  0.19560  0.44058  0.78755  1.0000
  H   H14       1.0  0.80441  0.55943  0.21245  1.0000
  H   H15       1.0  0.34461  0.32452  0.70530  1.0000
  H   H16       1.0  0.65539  0.67548  0.29471  1.0000
  H   H17       1.0  0.14961  0.93872  0.22839  1.0000
  H   H18       1.0  0.85039  0.06128  0.77161  1.0000
  H   H19       1.0  0.96422  0.78018  0.03367  1.0000
  H   H20       1.0  0.03578  0.21982  0.96633  1.0000
  H   H21       1.0  0.04535  0.68465  0.87333  1.0000
  H   H22       1.0  0.95465  0.31535  0.12667  1.0000
  H   H23       1.0  0.25354  0.68088  0.80293  1.0000
  H   H24       1.0  0.74647  0.31913  0.19707  1.0000
  H   H25       1.0  0.51368  0.74967  0.84394  1.0000
  H   H26       1.0  0.48632  0.25033  0.15606  1.0000
  H   H27       1.0  0.76478  0.88308  0.98428  1.0000
  H   H28       1.0  0.23522  0.11692  0.01572  1.0000
  H   H29       1.0  0.92655  0.03961  0.18679  1.0000
  H   H30       1.0  0.07345  0.96039  0.81321  1.0000
  H   H31       1.0  0.81437  0.10983  0.33362  1.0000
  H   H32       1.0  0.18563  0.89017  0.66638  1.0000
  H   H33       1.0  0.49163  0.75748  0.18227  1.0000
  H   H34       1.0  0.50836  0.24251  0.81773  1.0000
  H   H35       1.0  0.74005  0.34809  0.47021  1.0000
  H   H36       1.0  0.25995  0.65191  0.52979  1.0000
  H   H37       1.0  0.63594  0.35338  0.37041  1.0000
  H   H38       1.0  0.36406  0.64662  0.62959  1.0000
  C   C1        1.0  0.42660  0.74620  0.35951  1.0000
  C   C2        1.0  0.57340  0.25380  0.64049  1.0000
  C   C3        1.0  0.37990  0.62435  0.24728  1.0000
  C   C4        1.0  0.62010  0.37564  0.75272  1.0000
  C   C5        1.0  0.38317  0.54321  0.05629  1.0000
  C   C6        1.0  0.61683  0.45679  0.94371  1.0000
  C   C7        1.0  0.30269  0.40890  0.04038  1.0000
  C   C8        1.0  0.69731  0.59110  0.95962  1.0000
  C   C9        1.0  0.29719  0.48533  0.22243  1.0000
  C   C10       1.0  0.70281  0.51467  0.77757  1.0000
  C   C11       1.0  0.23437  0.44293  0.30261  1.0000
  C   C12       1.0  0.76562  0.55707  0.69739  1.0000
  C   C13       1.0  0.05244  0.42559  0.37818  1.0000
  C   C14       1.0  0.94756  0.57441  0.62181  1.0000
  C   C15       1.0  0.09035  0.34512  0.42834  1.0000
  C   C16       1.0  0.90964  0.65488  0.57166  1.0000
  C   C17       1.0  0.20572  0.31254  0.41311  1.0000
  C   C18       1.0  0.79428  0.68746  0.58689  1.0000
  C   C19       1.0  0.28062  0.36313  0.34987  1.0000
  C   C20       1.0  0.71937  0.63687  0.65012  1.0000
  C   C21       1.0  0.40582  0.32892  0.33437  1.0000
  C   C22       1.0  0.59417  0.67107  0.66563  1.0000
  C   C23       1.0  0.77299  0.06083  0.54230  1.0000
  C   C24       1.0  0.22702  0.93919  0.45770  1.0000
  C   C25       1.0  0.93473  0.12763  0.58785  1.0000
  C   C26       1.0  0.06528  0.87238  0.41216  1.0000
  C   C27       1.0  0.99640  0.26218  0.67608  1.0000
  C   C28       1.0  0.00361  0.73783  0.32393  1.0000
  C   C29       1.0  0.14498  0.33477  0.72052  1.0000
  C   C30       1.0  0.85503  0.66524  0.27949  1.0000
  C   C31       1.0  0.22806  0.26966  0.67514  1.0000
  C   C32       1.0  0.77194  0.73034  0.32486  1.0000
  C   C33       1.0  0.02732  0.07007  0.54750  1.0000
  C   C34       1.0  0.97268  0.92994  0.45251  1.0000
  C   C35       1.0  0.18041  0.89561  0.15543  1.0000
  C   C36       1.0  0.81959  0.10439  0.84457  1.0000
  C   C37       1.0  0.07793  0.80744  0.04724  1.0000
  C   C38       1.0  0.92207  0.19256  0.95276  1.0000
  C   C39       1.0  0.12288  0.75494  0.95792  1.0000
  C   C40       1.0  0.87712  0.24506  0.04208  1.0000
  C   C41       1.0  0.27123  0.79339  0.97699  1.0000
  C   C42       1.0  0.72877  0.20661  0.02300  1.0000
  C   C43       1.0  0.36696  0.88341  0.08925  1.0000
  C   C44       1.0  0.63304  0.11659  0.91075  1.0000
  C   C45       1.0  0.32781  0.74674  0.88920  1.0000
  C   C46       1.0  0.67219  0.25326  0.11080  1.0000
  C   C47       1.0  0.47225  0.78607  0.91168  1.0000
  C   C48       1.0  0.52775  0.21393  0.08832  1.0000
  C   C49       1.0  0.57159  0.87580  0.02400  1.0000
  C   C50       1.0  0.42841  0.12420  0.97600  1.0000
  C   C51       1.0  0.51943  0.92523  0.11320  1.0000
  C   C52       1.0  0.48057  0.07476  0.88680  1.0000
  C   C53       1.0  0.72171  0.91862  0.05133  1.0000
  C   C54       1.0  0.27829  0.08137  0.94867  1.0000
  C   C55       1.0  0.81019  0.00330  0.16225  1.0000
  C   C56       1.0  0.18981  0.99670  0.83775  1.0000
  C   C57       1.0  0.74857  0.04485  0.24518  1.0000
  C   C58       1.0  0.25143  0.95514  0.75482  1.0000
  C   C59       1.0  0.42383  0.65101  0.16217  1.0000
  C   C60       1.0  0.57617  0.34900  0.83783  1.0000
  N   N1        1.0  0.26116  0.37953  0.12108  1.0000
  N   N2        1.0  0.73884  0.62047  0.87892  1.0000
  N   N3        1.0  0.12197  0.47364  0.31592  1.0000
  N   N4        1.0  0.87803  0.52636  0.68407  1.0000
  N   N5        1.0  0.17105  0.14093  0.59211  1.0000
  N   N6        1.0  0.82895  0.85908  0.40789  1.0000
  N   N7        1.0  0.32075  0.93134  0.17651  1.0000
  N   N8        1.0  0.67925  0.06865  0.82349  1.0000
  N   N9        1.0  0.60771  0.00783  0.22204  1.0000
  N   N10       1.0  0.39229  0.99216  0.77796  1.0000
  O   O1        1.0  0.45636  0.86476  0.35869  1.0000
  O   O2        1.0  0.54363  0.13524  0.64131  1.0000
  O   O3        1.0  0.43560  0.72606  0.44779  1.0000
  O   O4        1.0  0.56440  0.27394  0.55222  1.0000
  O   O5        1.0  0.51830  0.41997  0.33950  1.0000
  O   O6        1.0  0.48170  0.58003  0.66050  1.0000
  O   O7        1.0  0.38736  0.20409  0.31712  1.0000
  O   O8        1.0  0.61264  0.79591  0.68288  1.0000
  O   O9        1.0  0.71675  0.10179  0.47483  1.0000
  O   O10       1.0  0.28326  0.89822  0.52518  1.0000
  O   O11       1.0  0.70915  0.98596  0.58505  1.0000
  O   O12       1.0  0.29084  0.01404  0.41495  1.0000
  O   O13       1.0  0.68911  0.29766  0.38896  1.0000
  O   O14       1.0  0.31090  0.70234  0.61103  1.0000
