data_image0
_chemical_formula_structural       Er2H38C60N10O14
_chemical_formula_sum              "Er2 H38 C60 N10 O14"
_cell_length_a       10.4083
_cell_length_b       11.1969
_cell_length_c       13.3674
_cell_angle_alpha    109.843
_cell_angle_beta     101.378
_cell_angle_gamma    108.158

_space_group_name_H-M_alt    "P 1"
_space_group_IT_number       1

loop_
  _space_group_symop_operation_xyz
  'x, y, z'

loop_
  _atom_site_type_symbol
  _atom_site_label
  _atom_site_symmetry_multiplicity
  _atom_site_fract_x
  _atom_site_fract_y
  _atom_site_fract_z
  _atom_site_occupancy
  Er  Er1       1.0  0.50068  0.08549  0.37608  1.0000
  Er  Er2       1.0  0.49932  0.91451  0.62392  1.0000
  H   H1        1.0  0.41360  0.56127  0.98723  1.0000
  H   H2        1.0  0.58640  0.43874  0.01277  1.0000
  H   H3        1.0  0.26991  0.31948  0.95924  1.0000
  H   H4        1.0  0.73010  0.68053  0.04076  1.0000
  H   H5        1.0  0.96107  0.45231  0.38688  1.0000
  H   H6        1.0  0.03893  0.54768  0.61312  1.0000
  H   H7        1.0  0.02950  0.30866  0.47770  1.0000
  H   H8        1.0  0.97049  0.69134  0.52230  1.0000
  H   H9        1.0  0.23850  0.24850  0.44915  1.0000
  H   H10       1.0  0.76151  0.75151  0.55085  1.0000
  H   H11       1.0  0.92688  0.31033  0.70749  1.0000
  H   H12       1.0  0.07313  0.68967  0.29251  1.0000
  H   H13       1.0  0.19509  0.43994  0.78865  1.0000
  H   H14       1.0  0.80492  0.56006  0.21134  1.0000
  H   H15       1.0  0.34451  0.32475  0.70547  1.0000
  H   H16       1.0  0.65549  0.67525  0.29452  1.0000
  H   H17       1.0  0.14999  0.94230  0.22975  1.0000
  H   H18       1.0  0.85001  0.05770  0.77025  1.0000
  H   H19       1.0  0.96375  0.78312  0.03505  1.0000
  H   H20       1.0  0.03625  0.21689  0.96495  1.0000
  H   H21       1.0  0.04421  0.68597  0.87436  1.0000
  H   H22       1.0  0.95579  0.31403  0.12564  1.0000
  H   H23       1.0  0.25199  0.68052  0.80367  1.0000
  H   H24       1.0  0.74802  0.31948  0.19633  1.0000
  H   H25       1.0  0.51236  0.74894  0.84419  1.0000
  H   H26       1.0  0.48764  0.25106  0.15582  1.0000
  H   H27       1.0  0.76399  0.88249  0.98417  1.0000
  H   H28       1.0  0.23601  0.11752  0.01583  1.0000
  H   H29       1.0  0.92656  0.03897  0.18691  1.0000
  H   H30       1.0  0.07344  0.96104  0.81310  1.0000
  H   H31       1.0  0.81482  0.11029  0.33415  1.0000
  H   H32       1.0  0.18518  0.88971  0.66586  1.0000
  H   H33       1.0  0.49114  0.75730  0.18073  1.0000
  H   H34       1.0  0.50886  0.24271  0.81927  1.0000
  H   H35       1.0  0.74105  0.34675  0.47054  1.0000
  H   H36       1.0  0.25895  0.65325  0.52946  1.0000
  H   H37       1.0  0.63658  0.35291  0.37100  1.0000
  H   H38       1.0  0.36342  0.64709  0.62900  1.0000
  C   C1        1.0  0.42674  0.74755  0.35892  1.0000
  C   C2        1.0  0.57325  0.25245  0.64108  1.0000
  C   C3        1.0  0.38011  0.62512  0.24698  1.0000
  C   C4        1.0  0.61989  0.37488  0.75302  1.0000
  C   C5        1.0  0.38276  0.54264  0.05556  1.0000
  C   C6        1.0  0.61724  0.45737  0.94444  1.0000
  C   C7        1.0  0.30263  0.40860  0.04040  1.0000
  C   C8        1.0  0.69737  0.59141  0.95961  1.0000
  C   C9        1.0  0.29784  0.48622  0.22283  1.0000
  C   C10       1.0  0.70216  0.51378  0.77717  1.0000
  C   C11       1.0  0.23523  0.44421  0.30331  1.0000
  C   C12       1.0  0.76477  0.55578  0.69669  1.0000
  C   C13       1.0  0.05263  0.42658  0.37849  1.0000
  C   C14       1.0  0.94737  0.57341  0.62150  1.0000
  C   C15       1.0  0.09008  0.34553  0.42839  1.0000
  C   C16       1.0  0.90992  0.65447  0.57161  1.0000
  C   C17       1.0  0.20569  0.31297  0.41340  1.0000
  C   C18       1.0  0.79431  0.68703  0.58661  1.0000
  C   C19       1.0  0.28122  0.36391  0.35046  1.0000
  C   C20       1.0  0.71878  0.63609  0.64954  1.0000
  C   C21       1.0  0.40664  0.32960  0.33515  1.0000
  C   C22       1.0  0.59336  0.67039  0.66485  1.0000
  C   C23       1.0  0.77224  0.06051  0.54230  1.0000
  C   C24       1.0  0.22776  0.93949  0.45769  1.0000
  C   C25       1.0  0.93423  0.12726  0.58815  1.0000
  C   C26       1.0  0.06577  0.87274  0.41184  1.0000
  C   C27       1.0  0.99590  0.26155  0.67672  1.0000
  C   C28       1.0  0.00410  0.73846  0.32327  1.0000
  C   C29       1.0  0.14459  0.33435  0.72129  1.0000
  C   C30       1.0  0.85541  0.66564  0.27870  1.0000
  C   C31       1.0  0.22785  0.26965  0.67551  1.0000
  C   C32       1.0  0.77215  0.73034  0.32448  1.0000
  C   C33       1.0  0.02709  0.07001  0.54759  1.0000
  C   C34       1.0  0.97290  0.92999  0.45240  1.0000
  C   C35       1.0  0.18034  0.89836  0.15660  1.0000
  C   C36       1.0  0.81966  0.10164  0.84340  1.0000
  C   C37       1.0  0.07750  0.80983  0.04845  1.0000
  C   C38       1.0  0.92250  0.19017  0.95155  1.0000
  C   C39       1.0  0.12203  0.75645  0.95894  1.0000
  C   C40       1.0  0.87797  0.24355  0.04106  1.0000
  C   C41       1.0  0.27046  0.79439  0.97787  1.0000
  C   C42       1.0  0.72953  0.20561  0.02214  1.0000
  C   C43       1.0  0.36657  0.88482  0.09006  1.0000
  C   C44       1.0  0.63343  0.11518  0.90995  1.0000
  C   C45       1.0  0.32668  0.74683  0.88986  1.0000
  C   C46       1.0  0.67333  0.25317  0.11015  1.0000
  C   C47       1.0  0.47126  0.78596  0.91210  1.0000
  C   C48       1.0  0.52875  0.21404  0.08790  1.0000
  C   C49       1.0  0.57099  0.87607  0.02438  1.0000
  C   C50       1.0  0.42901  0.12393  0.97562  1.0000
  C   C51       1.0  0.51918  0.92614  0.11379  1.0000
  C   C52       1.0  0.48082  0.07386  0.88621  1.0000
  C   C53       1.0  0.72128  0.91846  0.05150  1.0000
  C   C54       1.0  0.27873  0.08154  0.94850  1.0000
  C   C55       1.0  0.81006  0.00313  0.16245  1.0000
  C   C56       1.0  0.18994  0.99687  0.83756  1.0000
  C   C57       1.0  0.74877  0.04526  0.24566  1.0000
  C   C58       1.0  0.25123  0.95474  0.75435  1.0000
  C   C59       1.0  0.42360  0.65098  0.16127  1.0000
  C   C60       1.0  0.57640  0.34902  0.83874  1.0000
  N   N1        1.0  0.26172  0.37990  0.12166  1.0000
  N   N2        1.0  0.73828  0.62009  0.87834  1.0000
  N   N3        1.0  0.12281  0.47517  0.31665  1.0000
  N   N4        1.0  0.87719  0.52483  0.68335  1.0000
  N   N5        1.0  0.17097  0.14112  0.59222  1.0000
  N   N6        1.0  0.82902  0.85888  0.40777  1.0000
  N   N7        1.0  0.32078  0.93354  0.17751  1.0000
  N   N8        1.0  0.67922  0.06645  0.82250  1.0000
  N   N9        1.0  0.60778  0.00882  0.22268  1.0000
  N   N10       1.0  0.39222  0.99118  0.77733  1.0000
  O   O1        1.0  0.45658  0.86569  0.35721  1.0000
  O   O2        1.0  0.54341  0.13431  0.64279  1.0000
  O   O3        1.0  0.43558  0.72818  0.44769  1.0000
  O   O4        1.0  0.56442  0.27182  0.55231  1.0000
  O   O5        1.0  0.51914  0.42018  0.33975  1.0000
  O   O6        1.0  0.48086  0.57982  0.66025  1.0000
  O   O7        1.0  0.38825  0.20497  0.31869  1.0000
  O   O8        1.0  0.61174  0.79502  0.68131  1.0000
  O   O9        1.0  0.71630  0.10171  0.47467  1.0000
  O   O10       1.0  0.28370  0.89828  0.52532  1.0000
  O   O11       1.0  0.70794  0.98536  0.58473  1.0000
  O   O12       1.0  0.29205  0.01464  0.41527  1.0000
  O   O13       1.0  0.68924  0.29660  0.38931  1.0000
  O   O14       1.0  0.31076  0.70340  0.61070  1.0000
