data_image0
_chemical_formula_structural       Tm2H38C60N10O14
_chemical_formula_sum              "Tm2 H38 C60 N10 O14"
_cell_length_a       10.3981
_cell_length_b       11.1947
_cell_length_c       13.3367
_cell_angle_alpha    109.867
_cell_angle_beta     101.512
_cell_angle_gamma    107.873

_space_group_name_H-M_alt    "P 1"
_space_group_IT_number       1

loop_
  _space_group_symop_operation_xyz
  'x, y, z'

loop_
  _atom_site_type_symbol
  _atom_site_label
  _atom_site_symmetry_multiplicity
  _atom_site_fract_x
  _atom_site_fract_y
  _atom_site_fract_z
  _atom_site_occupancy
  Tm  Tm1       1.0  0.49944  0.91519  0.62425  1.0000
  Tm  Tm2       1.0  0.50056  0.08481  0.37575  1.0000
  H   H1        1.0  0.58832  0.43911  0.01353  1.0000
  H   H2        1.0  0.41167  0.56089  0.98647  1.0000
  H   H3        1.0  0.73190  0.68008  0.04092  1.0000
  H   H4        1.0  0.26809  0.31992  0.95908  1.0000
  H   H5        1.0  0.03759  0.54651  0.61175  1.0000
  H   H6        1.0  0.96241  0.45349  0.38825  1.0000
  H   H7        1.0  0.96973  0.69193  0.52201  1.0000
  H   H8        1.0  0.03027  0.30807  0.47799  1.0000
  H   H9        1.0  0.76011  0.75187  0.55049  1.0000
  H   H10       1.0  0.23988  0.24813  0.44951  1.0000
  H   H11       1.0  0.92537  0.30881  0.70901  1.0000
  H   H12       1.0  0.07463  0.69119  0.29099  1.0000
  H   H13       1.0  0.19322  0.43876  0.78988  1.0000
  H   H14       1.0  0.80678  0.56124  0.21012  1.0000
  H   H15       1.0  0.34343  0.32434  0.70544  1.0000
  H   H16       1.0  0.65657  0.67566  0.29456  1.0000
  H   H17       1.0  0.84933  0.05418  0.77061  1.0000
  H   H18       1.0  0.15067  0.94582  0.22939  1.0000
  H   H19       1.0  0.03558  0.21376  0.96582  1.0000
  H   H20       1.0  0.96442  0.78624  0.03418  1.0000
  H   H21       1.0  0.95489  0.31344  0.12640  1.0000
  H   H22       1.0  0.04511  0.68656  0.87360  1.0000
  H   H23       1.0  0.74712  0.31983  0.19703  1.0000
  H   H24       1.0  0.25288  0.68017  0.80297  1.0000
  H   H25       1.0  0.48666  0.25121  0.15614  1.0000
  H   H26       1.0  0.51334  0.74879  0.84385  1.0000
  H   H27       1.0  0.23558  0.11772  0.01573  1.0000
  H   H28       1.0  0.76442  0.88228  0.98427  1.0000
  H   H29       1.0  0.07334  0.96087  0.81233  1.0000
  H   H30       1.0  0.92666  0.03913  0.18767  1.0000
  H   H31       1.0  0.18566  0.89010  0.66489  1.0000
  H   H32       1.0  0.81434  0.10990  0.33511  1.0000
  H   H33       1.0  0.50991  0.24286  0.81934  1.0000
  H   H34       1.0  0.49008  0.75714  0.18066  1.0000
  H   H35       1.0  0.36151  0.64829  0.62681  1.0000
  H   H36       1.0  0.63849  0.35171  0.37319  1.0000
  H   H37       1.0  0.25589  0.65860  0.52984  1.0000
  H   H38       1.0  0.74411  0.34140  0.47016  1.0000
  C   C1        1.0  0.57273  0.25107  0.64060  1.0000
  C   C2        1.0  0.42727  0.74893  0.35940  1.0000
  C   C3        1.0  0.61962  0.37408  0.75236  1.0000
  C   C4        1.0  0.38038  0.62591  0.24764  1.0000
  C   C5        1.0  0.61841  0.45734  0.94468  1.0000
  C   C6        1.0  0.38159  0.54266  0.05532  1.0000
  C   C7        1.0  0.69829  0.59088  0.95941  1.0000
  C   C8        1.0  0.30171  0.40912  0.04059  1.0000
  C   C9        1.0  0.70111  0.51252  0.77589  1.0000
  C   C10       1.0  0.29889  0.48748  0.22411  1.0000
  C   C11       1.0  0.76293  0.55434  0.69493  1.0000
  C   C12       1.0  0.23707  0.44566  0.30507  1.0000
  C   C13       1.0  0.94601  0.57253  0.62023  1.0000
  C   C14       1.0  0.05399  0.42747  0.37978  1.0000
  C   C15       1.0  0.90875  0.65436  0.57081  1.0000
  C   C16       1.0  0.09125  0.34564  0.42919  1.0000
  C   C17       1.0  0.79282  0.68680  0.58574  1.0000
  C   C18       1.0  0.20718  0.31320  0.41426  1.0000
  C   C19       1.0  0.71686  0.63509  0.64806  1.0000
  C   C20       1.0  0.28314  0.36491  0.35194  1.0000
  C   C21       1.0  0.59126  0.66973  0.66299  1.0000
  C   C22       1.0  0.40874  0.33027  0.33701  1.0000
  C   C23       1.0  0.77144  0.05962  0.54306  1.0000
  C   C24       1.0  0.22856  0.94038  0.45694  1.0000
  C   C25       1.0  0.93345  0.12633  0.58888  1.0000
  C   C26       1.0  0.06655  0.87367  0.41112  1.0000
  C   C27       1.0  0.99464  0.26035  0.67780  1.0000
  C   C28       1.0  0.00536  0.73966  0.32220  1.0000
  C   C29       1.0  0.14321  0.33337  0.72223  1.0000
  C   C30       1.0  0.85679  0.66663  0.27777  1.0000
  C   C31       1.0  0.22690  0.26924  0.67583  1.0000
  C   C32       1.0  0.77310  0.73076  0.32417  1.0000
  C   C33       1.0  0.02680  0.06974  0.54780  1.0000
  C   C34       1.0  0.97320  0.93026  0.45220  1.0000
  C   C35       1.0  0.81907  0.09901  0.84381  1.0000
  C   C36       1.0  0.18093  0.90099  0.15619  1.0000
  C   C37       1.0  0.92187  0.18775  0.95223  1.0000
  C   C38       1.0  0.07813  0.81225  0.04777  1.0000
  C   C39       1.0  0.87727  0.24251  0.04164  1.0000
  C   C40       1.0  0.12273  0.75749  0.95836  1.0000
  C   C41       1.0  0.72896  0.20523  0.02254  1.0000
  C   C42       1.0  0.27104  0.79477  0.97746  1.0000
  C   C43       1.0  0.63303  0.11464  0.91010  1.0000
  C   C44       1.0  0.36697  0.88536  0.08990  1.0000
  C   C45       1.0  0.67258  0.25329  0.11058  1.0000
  C   C46       1.0  0.32742  0.74671  0.88942  1.0000
  C   C47       1.0  0.52807  0.21424  0.08818  1.0000
  C   C48       1.0  0.47193  0.78576  0.91182  1.0000
  C   C49       1.0  0.42858  0.12412  0.97556  1.0000
  C   C50       1.0  0.57142  0.87589  0.02444  1.0000
  C   C51       1.0  0.48062  0.07396  0.88610  1.0000
  C   C52       1.0  0.51937  0.92604  0.11390  1.0000
  C   C53       1.0  0.27838  0.08176  0.94823  1.0000
  C   C54       1.0  0.72162  0.91824  0.05177  1.0000
  C   C55       1.0  0.18980  0.99700  0.83693  1.0000
  C   C56       1.0  0.81020  0.00300  0.16307  1.0000
  C   C57       1.0  0.25143  0.95508  0.75366  1.0000
  C   C58       1.0  0.74857  0.04492  0.24634  1.0000
  C   C59       1.0  0.57711  0.34891  0.83873  1.0000
  C   C60       1.0  0.42289  0.65108  0.16127  1.0000
  N   N1        1.0  0.73795  0.61897  0.87740  1.0000
  N   N2        1.0  0.26205  0.38103  0.12260  1.0000
  N   N3        1.0  0.87560  0.52339  0.68165  1.0000
  N   N4        1.0  0.12440  0.47661  0.31835  1.0000
  N   N5        1.0  0.17045  0.14101  0.59217  1.0000
  N   N6        1.0  0.82955  0.85899  0.40783  1.0000
  N   N7        1.0  0.67874  0.06496  0.82260  1.0000
  N   N8        1.0  0.32126  0.93504  0.17740  1.0000
  N   N9        1.0  0.39240  0.99159  0.77687  1.0000
  N   N10       1.0  0.60760  0.00841  0.22313  1.0000
  O   O1        1.0  0.54338  0.13354  0.64315  1.0000
  O   O2        1.0  0.45662  0.86646  0.35685  1.0000
  O   O3        1.0  0.56334  0.26951  0.55119  1.0000
  O   O4        1.0  0.43666  0.73049  0.44881  1.0000
  O   O5        1.0  0.47835  0.57939  0.65742  1.0000
  O   O6        1.0  0.52165  0.42061  0.34258  1.0000
  O   O7        1.0  0.60994  0.79453  0.68012  1.0000
  O   O8        1.0  0.39006  0.20547  0.31988  1.0000
  O   O9        1.0  0.71496  0.10084  0.47533  1.0000
  O   O10       1.0  0.28504  0.89916  0.52467  1.0000
  O   O11       1.0  0.70758  0.98454  0.58558  1.0000
  O   O12       1.0  0.29242  0.01546  0.41442  1.0000
  O   O13       1.0  0.31002  0.70677  0.61092  1.0000
  O   O14       1.0  0.68998  0.29323  0.38909  1.0000
