data_image0
_chemical_formula_structural       Cu6H36C18S6N12Cl6
_chemical_formula_sum              "Cu6 H36 C18 S6 N12 Cl6"
_cell_length_a       7.45501
_cell_length_b       11.728
_cell_length_c       11.9194
_cell_angle_alpha    66.1197
_cell_angle_beta     75.9378
_cell_angle_gamma    87.3835

_space_group_name_H-M_alt    "P 1"
_space_group_IT_number       1

loop_
  _space_group_symop_operation_xyz
  'x, y, z'

loop_
  _atom_site_type_symbol
  _atom_site_label
  _atom_site_symmetry_multiplicity
  _atom_site_fract_x
  _atom_site_fract_y
  _atom_site_fract_z
  _atom_site_occupancy
  Cu  Cu1       1.0  0.04269  0.00746  0.09769  1.0000
  Cu  Cu2       1.0  0.95730  0.99254  0.90231  1.0000
  Cu  Cu3       1.0  0.86331  0.79162  0.26799  1.0000
  Cu  Cu4       1.0  0.13669  0.20838  0.73201  1.0000
  Cu  Cu5       1.0  0.04101  0.38377  0.95472  1.0000
  Cu  Cu6       1.0  0.95898  0.61623  0.04528  1.0000
  H   H1        1.0  0.83708  0.99879  0.36303  1.0000
  H   H2        1.0  0.16291  0.00122  0.63697  1.0000
  H   H3        1.0  0.96100  0.37297  0.21393  1.0000
  H   H4        1.0  0.03901  0.62703  0.78607  1.0000
  H   H5        1.0  0.53085  0.66067  0.40484  1.0000
  H   H6        1.0  0.46914  0.33933  0.59516  1.0000
  H   H7        1.0  0.59329  0.49706  0.15622  1.0000
  H   H8        1.0  0.40671  0.50294  0.84378  1.0000
  H   H9        1.0  0.64797  0.15292  0.93016  1.0000
  H   H10       1.0  0.35204  0.84708  0.06983  1.0000
  H   H11       1.0  0.53569  0.95826  0.31143  1.0000
  H   H12       1.0  0.46430  0.04175  0.68857  1.0000
  H   H13       1.0  0.65403  0.10620  0.49703  1.0000
  H   H14       1.0  0.34598  0.89381  0.50297  1.0000
  H   H15       1.0  0.85943  0.05405  0.55255  1.0000
  H   H16       1.0  0.14058  0.94595  0.44745  1.0000
  H   H17       1.0  0.01007  0.25966  0.44118  1.0000
  H   H18       1.0  0.98995  0.74034  0.55882  1.0000
  H   H19       1.0  0.77779  0.30855  0.45067  1.0000
  H   H20       1.0  0.22223  0.69145  0.54933  1.0000
  H   H21       1.0  0.20372  0.62720  0.38283  1.0000
  H   H22       1.0  0.79628  0.37279  0.61717  1.0000
  H   H23       1.0  0.26682  0.47541  0.47818  1.0000
  H   H24       1.0  0.73318  0.52459  0.52181  1.0000
  H   H25       1.0  0.25523  0.42604  0.30383  1.0000
  H   H26       1.0  0.74478  0.57395  0.69617  1.0000
  H   H27       1.0  0.27529  0.58645  0.19665  1.0000
  H   H28       1.0  0.72471  0.41355  0.80335  1.0000
  H   H29       1.0  0.56097  0.30127  0.04801  1.0000
  H   H30       1.0  0.43903  0.69873  0.95199  1.0000
  H   H31       1.0  0.35457  0.24748  0.02778  1.0000
  H   H32       1.0  0.64544  0.75253  0.97221  1.0000
  H   H33       1.0  0.42877  0.18698  0.27147  1.0000
  H   H34       1.0  0.57122  0.81302  0.72853  1.0000
  H   H35       1.0  0.26667  0.10114  0.24141  1.0000
  H   H36       1.0  0.73332  0.89886  0.75859  1.0000
  C   C1        1.0  0.91374  0.18690  0.25397  1.0000
  C   C2        1.0  0.08626  0.81310  0.74603  1.0000
  C   C3        1.0  0.80672  0.11377  0.47106  1.0000
  C   C4        1.0  0.19329  0.88623  0.52894  1.0000
  C   C5        1.0  0.87856  0.25105  0.41773  1.0000
  C   C6        1.0  0.12145  0.74895  0.58228  1.0000
  C   C7        1.0  0.61504  0.57437  0.28083  1.0000
  C   C8        1.0  0.38495  0.42563  0.71917  1.0000
  C   C9        1.0  0.30503  0.55598  0.38605  1.0000
  C   C10       1.0  0.69497  0.44402  0.61395  1.0000
  C   C11       1.0  0.32622  0.51676  0.27512  1.0000
  C   C12       1.0  0.67378  0.48323  0.72488  1.0000
  C   C13       1.0  0.61811  0.03201  0.11691  1.0000
  C   C14       1.0  0.38189  0.96799  0.88307  1.0000
  C   C15       1.0  0.47349  0.21831  0.06987  1.0000
  C   C16       1.0  0.52652  0.78170  0.93013  1.0000
  C   C17       1.0  0.41160  0.13716  0.21385  1.0000
  C   C18       1.0  0.58839  0.86284  0.78615  1.0000
  S   S1        1.0  0.96063  0.19137  0.10552  1.0000
  S   S2        1.0  0.03937  0.80863  0.89449  1.0000
  S   S3        1.0  0.85047  0.60599  0.24287  1.0000
  S   S4        1.0  0.14953  0.39401  0.75713  1.0000
  S   S5        1.0  0.75114  0.91485  0.09691  1.0000
  S   S6        1.0  0.24886  0.08515  0.90309  1.0000
  N   N1        1.0  0.87737  0.08172  0.36175  1.0000
  N   N2        1.0  0.12263  0.91828  0.63825  1.0000
  N   N3        1.0  0.90594  0.28759  0.28137  1.0000
  N   N4        1.0  0.09407  0.71241  0.71863  1.0000
  N   N5        1.0  0.49249  0.60739  0.36341  1.0000
  N   N6        1.0  0.50750  0.39261  0.63659  1.0000
  N   N7        1.0  0.52784  0.51087  0.23577  1.0000
  N   N8        1.0  0.47216  0.48913  0.76423  1.0000
  N   N9        1.0  0.58156  0.13234  0.02274  1.0000
  N   N10       1.0  0.41844  0.86765  0.97728  1.0000
  N   N11       1.0  0.53501  0.03359  0.22904  1.0000
  N   N12       1.0  0.46498  0.96640  0.77097  1.0000
  Cl  Cl1       1.0  0.16921  0.85330  0.24832  1.0000
  Cl  Cl2       1.0  0.83078  0.14670  0.75168  1.0000
  Cl  Cl3       1.0  0.67468  0.79676  0.45481  1.0000
  Cl  Cl4       1.0  0.32532  0.20324  0.54519  1.0000
  Cl  Cl5       1.0  0.77685  0.50876  0.97471  1.0000
  Cl  Cl6       1.0  0.22315  0.49124  0.02529  1.0000
