data_image0
_chemical_formula_structural       Cu4H36C36S8I4N12
_chemical_formula_sum              "Cu4 H36 C36 S8 I4 N12"
_cell_length_a       5.58878
_cell_length_b       13.7493
_cell_length_c       15.3344
_cell_angle_alpha    93.4387
_cell_angle_beta     89.9993
_cell_angle_gamma    90

_space_group_name_H-M_alt    "P 1"
_space_group_IT_number       1

loop_
  _space_group_symop_operation_xyz
  'x, y, z'

loop_
  _atom_site_type_symbol
  _atom_site_label
  _atom_site_symmetry_multiplicity
  _atom_site_fract_x
  _atom_site_fract_y
  _atom_site_fract_z
  _atom_site_occupancy
  Cu  Cu1       1.0  0.23580  0.49228  0.49408  1.0000
  Cu  Cu2       1.0  0.73581  0.50772  0.00592  1.0000
  Cu  Cu3       1.0  0.76418  0.50771  0.50592  1.0000
  Cu  Cu4       1.0  0.26419  0.49229  0.99409  1.0000
  H   H1        1.0  0.20923  0.76814  0.68219  1.0000
  H   H2        1.0  0.70927  0.23187  0.81781  1.0000
  H   H3        1.0  0.79075  0.23186  0.31781  1.0000
  H   H4        1.0  0.29075  0.76814  0.18220  1.0000
  H   H5        1.0  0.71087  0.70161  0.55797  1.0000
  H   H6        1.0  0.21089  0.29839  0.94203  1.0000
  H   H7        1.0  0.28912  0.29838  0.44203  1.0000
  H   H8        1.0  0.78913  0.70161  0.05798  1.0000
  H   H9        1.0  0.00911  0.57066  0.66616  1.0000
  H   H10       1.0  0.50915  0.42934  0.83384  1.0000
  H   H11       1.0  0.99087  0.42933  0.33384  1.0000
  H   H12       1.0  0.49086  0.57066  0.16617  1.0000
  H   H13       1.0  0.91268  0.66854  0.73956  1.0000
  H   H14       1.0  0.41270  0.33147  0.76044  1.0000
  H   H15       1.0  0.08730  0.33146  0.26044  1.0000
  H   H16       1.0  0.58730  0.66854  0.23957  1.0000
  H   H17       1.0  0.15232  0.59119  0.76942  1.0000
  H   H18       1.0  0.65235  0.40881  0.73058  1.0000
  H   H19       1.0  0.84767  0.40880  0.23058  1.0000
  H   H20       1.0  0.34766  0.59120  0.26943  1.0000
  H   H21       1.0  0.83779  0.12693  0.56708  1.0000
  H   H22       1.0  0.33778  0.87306  0.93292  1.0000
  H   H23       1.0  0.16221  0.87305  0.43292  1.0000
  H   H24       1.0  0.66224  0.12694  0.06707  1.0000
  H   H25       1.0  0.55043  0.24975  0.62682  1.0000
  H   H26       1.0  0.05041  0.75026  0.87318  1.0000
  H   H27       1.0  0.44958  0.75025  0.37318  1.0000
  H   H28       1.0  0.94960  0.24975  0.12682  1.0000
  H   H29       1.0  0.17153  0.19973  0.69696  1.0000
  H   H30       1.0  0.67153  0.80027  0.80303  1.0000
  H   H31       1.0  0.82847  0.80026  0.30303  1.0000
  H   H32       1.0  0.32848  0.19974  0.19696  1.0000
  H   H33       1.0  0.07402  0.02366  0.70634  1.0000
  H   H34       1.0  0.57403  0.97635  0.79365  1.0000
  H   H35       1.0  0.92597  0.97634  0.29366  1.0000
  H   H36       1.0  0.42598  0.02366  0.20634  1.0000
  C   C1        1.0  0.42452  0.66308  0.63056  1.0000
  C   C2        1.0  0.92453  0.33692  0.86944  1.0000
  C   C3        1.0  0.57546  0.33691  0.36943  1.0000
  C   C4        1.0  0.07546  0.66309  0.13057  1.0000
  C   C5        1.0  0.06844  0.62716  0.71513  1.0000
  C   C6        1.0  0.56845  0.37284  0.78487  1.0000
  C   C7        1.0  0.93155  0.37284  0.28487  1.0000
  C   C8        1.0  0.43155  0.62716  0.21513  1.0000
  C   C9        1.0  0.55169  0.83014  0.60514  1.0000
  C   C10       1.0  0.05171  0.16987  0.89486  1.0000
  C   C11       1.0  0.44830  0.16986  0.39486  1.0000
  C   C12       1.0  0.94832  0.83014  0.10515  1.0000
  C   C13       1.0  0.61639  0.00540  0.60274  1.0000
  C   C14       1.0  0.11640  0.99460  0.89725  1.0000
  C   C15       1.0  0.38360  0.99459  0.39726  1.0000
  C   C16       1.0  0.88362  0.00540  0.10274  1.0000
  C   C17       1.0  0.67288  0.10375  0.59749  1.0000
  C   C18       1.0  0.17289  0.89624  0.90251  1.0000
  C   C19       1.0  0.32711  0.89623  0.40251  1.0000
  C   C20       1.0  0.82714  0.10376  0.09748  1.0000
  C   C21       1.0  0.51040  0.17272  0.63205  1.0000
  C   C22       1.0  0.01039  0.82729  0.86794  1.0000
  C   C23       1.0  0.48961  0.82728  0.36795  1.0000
  C   C24       1.0  0.98962  0.17272  0.13205  1.0000
  C   C25       1.0  0.29695  0.14430  0.67145  1.0000
  C   C26       1.0  0.79695  0.85570  0.82854  1.0000
  C   C27       1.0  0.70305  0.85569  0.32855  1.0000
  C   C28       1.0  0.20306  0.14430  0.17145  1.0000
  C   C29       1.0  0.23963  0.04628  0.67637  1.0000
  C   C30       1.0  0.73963  0.95373  0.82362  1.0000
  C   C31       1.0  0.76036  0.95372  0.32363  1.0000
  C   C32       1.0  0.26039  0.04628  0.17637  1.0000
  C   C33       1.0  0.39978  0.97573  0.64181  1.0000
  C   C34       1.0  0.89979  0.02427  0.85818  1.0000
  C   C35       1.0  0.60020  0.02426  0.35819  1.0000
  C   C36       1.0  0.10022  0.97574  0.14181  1.0000
  S   S1        1.0  0.49023  0.54162  0.61396  1.0000
  S   S2        1.0  0.99024  0.45839  0.88605  1.0000
  S   S3        1.0  0.50976  0.45838  0.38604  1.0000
  S   S4        1.0  0.00975  0.54162  0.11397  1.0000
  S   S5        1.0  0.78171  0.90357  0.56690  1.0000
  S   S6        1.0  0.28172  0.09643  0.93310  1.0000
  S   S7        1.0  0.21828  0.09642  0.43310  1.0000
  S   S8        1.0  0.71830  0.90357  0.06690  1.0000
  I   I1        1.0  0.01325  0.64928  0.44267  1.0000
  I   I2        1.0  0.51324  0.35072  0.05733  1.0000
  I   I3        1.0  0.98672  0.35071  0.55733  1.0000
  I   I4        1.0  0.48673  0.64929  0.94268  1.0000
  N   N1        1.0  0.23426  0.69349  0.67646  1.0000
  N   N2        1.0  0.73428  0.30651  0.82354  1.0000
  N   N3        1.0  0.76573  0.30650  0.32354  1.0000
  N   N4        1.0  0.26573  0.69350  0.17647  1.0000
  N   N5        1.0  0.57363  0.73048  0.59658  1.0000
  N   N6        1.0  0.07365  0.26953  0.90342  1.0000
  N   N7        1.0  0.42636  0.26952  0.40341  1.0000
  N   N8        1.0  0.92637  0.73048  0.09659  1.0000
  N   N9        1.0  0.36951  0.87592  0.64265  1.0000
  N   N10       1.0  0.86954  0.12409  0.85735  1.0000
  N   N11       1.0  0.63047  0.12407  0.35735  1.0000
  N   N12       1.0  0.13049  0.87592  0.14266  1.0000
