data_image0
_chemical_formula_structural       Cd6H28C36N8O24
_chemical_formula_sum              "Cd6 H28 C36 N8 O24"
_cell_length_a       8.85435
_cell_length_b       8.85432
_cell_length_c       16.2351
_cell_angle_alpha    72.701
_cell_angle_beta     72.7011
_cell_angle_gamma    75.9962

_space_group_name_H-M_alt    "P 1"
_space_group_IT_number       1

loop_
  _space_group_symop_operation_xyz
  'x, y, z'

loop_
  _atom_site_type_symbol
  _atom_site_label
  _atom_site_symmetry_multiplicity
  _atom_site_fract_x
  _atom_site_fract_y
  _atom_site_fract_z
  _atom_site_occupancy
  Cd  Cd1       1.0  0.33699  0.23965  0.84462  1.0000
  Cd  Cd2       1.0  0.76035  0.66302  0.65538  1.0000
  Cd  Cd3       1.0  0.66302  0.76035  0.15538  1.0000
  Cd  Cd4       1.0  0.23966  0.33699  0.34462  1.0000
  Cd  Cd5       1.0  0.02445  0.97555  0.75000  1.0000
  Cd  Cd6       1.0  0.97555  0.02445  0.25000  1.0000
  H   H1        1.0  0.30368  0.35450  0.03546  1.0000
  H   H2        1.0  0.64550  0.69633  0.46454  1.0000
  H   H3        1.0  0.69633  0.64551  0.96454  1.0000
  H   H4        1.0  0.35450  0.30368  0.53546  1.0000
  H   H5        1.0  0.15764  0.58874  0.74114  1.0000
  H   H6        1.0  0.41126  0.84236  0.75886  1.0000
  H   H7        1.0  0.84236  0.41126  0.25886  1.0000
  H   H8        1.0  0.58874  0.15763  0.24114  1.0000
  H   H9        1.0  0.96982  0.90356  0.97412  1.0000
  H   H10       1.0  0.09644  0.03018  0.52587  1.0000
  H   H11       1.0  0.03018  0.09644  0.02587  1.0000
  H   H12       1.0  0.90356  0.96983  0.47412  1.0000
  H   H13       1.0  0.26238  0.98127  0.02834  1.0000
  H   H14       1.0  0.01879  0.73762  0.47170  1.0000
  H   H15       1.0  0.73762  0.01880  0.97170  1.0000
  H   H16       1.0  0.98126  0.26238  0.52834  1.0000
  H   H17       1.0  0.43605  0.93188  0.97630  1.0000
  H   H18       1.0  0.06799  0.56384  0.52368  1.0000
  H   H19       1.0  0.56384  0.06799  0.02368  1.0000
  H   H20       1.0  0.93189  0.43605  0.47630  1.0000
  H   H21       1.0  0.66257  0.23268  0.86720  1.0000
  H   H22       1.0  0.76732  0.33743  0.63280  1.0000
  H   H23       1.0  0.33744  0.76732  0.13280  1.0000
  H   H24       1.0  0.23268  0.66257  0.36720  1.0000
  H   H25       1.0  0.55439  0.40034  0.87412  1.0000
  H   H26       1.0  0.59966  0.44562  0.62588  1.0000
  H   H27       1.0  0.44562  0.59966  0.12588  1.0000
  H   H28       1.0  0.40033  0.55439  0.37412  1.0000
  C   C1        1.0  0.21225  0.48660  0.17448  1.0000
  C   C2        1.0  0.51340  0.78775  0.32552  1.0000
  C   C3        1.0  0.78775  0.51340  0.82552  1.0000
  C   C4        1.0  0.48660  0.21225  0.67448  1.0000
  C   C5        1.0  0.17502  0.56138  0.08585  1.0000
  C   C6        1.0  0.43863  0.82498  0.41415  1.0000
  C   C7        1.0  0.82498  0.43863  0.91415  1.0000
  C   C8        1.0  0.56138  0.17502  0.58585  1.0000
  C   C9        1.0  0.23096  0.47306  0.02111  1.0000
  C   C10       1.0  0.52694  0.76904  0.47889  1.0000
  C   C11       1.0  0.76904  0.52694  0.97889  1.0000
  C   C12       1.0  0.47306  0.23096  0.52111  1.0000
  C   C13       1.0  0.18821  0.53969  0.94021  1.0000
  C   C14       1.0  0.46031  0.81179  0.55979  1.0000
  C   C15       1.0  0.81179  0.46031  0.05979  1.0000
  C   C16       1.0  0.53969  0.18822  0.44021  1.0000
  C   C17       1.0  0.15195  0.59969  0.80687  1.0000
  C   C18       1.0  0.40031  0.84805  0.69313  1.0000
  C   C19       1.0  0.84806  0.40030  0.19313  1.0000
  C   C20       1.0  0.59969  0.15195  0.30687  1.0000
  C   C21       1.0  0.09487  0.69541  0.92284  1.0000
  C   C22       1.0  0.30459  0.90513  0.57716  1.0000
  C   C23       1.0  0.90513  0.30459  0.07716  1.0000
  C   C24       1.0  0.69541  0.09487  0.42284  1.0000
  C   C25       1.0  0.03948  0.78367  0.98737  1.0000
  C   C26       1.0  0.21634  0.96052  0.51263  1.0000
  C   C27       1.0  0.96053  0.21633  0.01263  1.0000
  C   C28       1.0  0.78367  0.03948  0.48737  1.0000
  C   C29       1.0  0.07877  0.71532  0.06903  1.0000
  C   C30       1.0  0.28468  0.92123  0.43097  1.0000
  C   C31       1.0  0.92123  0.28468  0.93097  1.0000
  C   C32       1.0  0.71532  0.07878  0.56903  1.0000
  C   C33       1.0  0.02679  0.81683  0.13467  1.0000
  C   C34       1.0  0.18319  0.97322  0.36532  1.0000
  C   C35       1.0  0.97322  0.18318  0.86532  1.0000
  C   C36       1.0  0.81682  0.02679  0.63467  1.0000
  N   N1        1.0  0.22068  0.48151  0.86535  1.0000
  N   N2        1.0  0.51849  0.77932  0.63465  1.0000
  N   N3        1.0  0.77932  0.51849  0.13465  1.0000
  N   N4        1.0  0.48151  0.22068  0.36535  1.0000
  N   N5        1.0  0.07385  0.73050  0.83787  1.0000
  N   N6        1.0  0.26949  0.92614  0.66213  1.0000
  N   N7        1.0  0.92614  0.26950  0.16213  1.0000
  N   N8        1.0  0.73050  0.07386  0.33787  1.0000
  O   O1        1.0  0.35132  0.40516  0.17777  1.0000
  O   O2        1.0  0.59485  0.64868  0.32224  1.0000
  O   O3        1.0  0.64868  0.59485  0.82223  1.0000
  O   O4        1.0  0.40516  0.35132  0.67777  1.0000
  O   O5        1.0  0.10230  0.50776  0.24430  1.0000
  O   O6        1.0  0.49224  0.89769  0.25570  1.0000
  O   O7        1.0  0.89770  0.49224  0.75570  1.0000
  O   O8        1.0  0.50776  0.10230  0.74430  1.0000
  O   O9        1.0  0.87980  0.85947  0.16922  1.0000
  O   O10       1.0  0.14053  0.12022  0.33078  1.0000
  O   O11       1.0  0.12022  0.14052  0.83079  1.0000
  O   O12       1.0  0.85947  0.87980  0.66922  1.0000
  O   O13       1.0  0.13634  0.87275  0.14916  1.0000
  O   O14       1.0  0.12728  0.86367  0.35083  1.0000
  O   O15       1.0  0.86366  0.12727  0.85083  1.0000
  O   O16       1.0  0.87274  0.13634  0.64916  1.0000
  O   O17       1.0  0.55092  0.28432  0.88977  1.0000
  O   O18       1.0  0.71568  0.44908  0.61022  1.0000
  O   O19       1.0  0.44908  0.71569  0.11022  1.0000
  O   O20       1.0  0.28431  0.55092  0.38977  1.0000
  O   O21       1.0  0.34657  0.02170  0.97678  1.0000
  O   O22       1.0  0.97830  0.65346  0.52325  1.0000
  O   O23       1.0  0.65346  0.97831  0.02325  1.0000
  O   O24       1.0  0.02170  0.34657  0.47678  1.0000
