data_image0
_chemical_formula_structural       Mn2H16C16O16
_chemical_formula_sum              "Mn2 H16 C16 O16"
_cell_length_a       7.00938
_cell_length_b       8.1819
_cell_length_c       9.37865
_cell_angle_alpha    64.1702
_cell_angle_beta     82.9172
_cell_angle_gamma    73.5184

_space_group_name_H-M_alt    "P 1"
_space_group_IT_number       1

loop_
  _space_group_symop_operation_xyz
  'x, y, z'

loop_
  _atom_site_type_symbol
  _atom_site_label
  _atom_site_symmetry_multiplicity
  _atom_site_fract_x
  _atom_site_fract_y
  _atom_site_fract_z
  _atom_site_occupancy
  Mn  Mn1       1.0  0.24998  0.18946  0.62082  1.0000
  Mn  Mn2       1.0  0.75002  0.81053  0.37918  1.0000
  H   H1        1.0  0.29667  0.82957  0.92223  1.0000
  H   H2        1.0  0.20363  0.24791  0.92260  1.0000
  H   H3        1.0  0.70333  0.17043  0.07778  1.0000
  H   H4        1.0  0.79638  0.75209  0.07740  1.0000
  H   H5        1.0  0.53823  0.20665  0.78061  1.0000
  H   H6        1.0  0.96174  0.01252  0.78062  1.0000
  H   H7        1.0  0.46177  0.79334  0.21940  1.0000
  H   H8        1.0  0.03826  0.98748  0.21938  1.0000
  H   H9        1.0  0.63464  0.49158  0.66580  1.0000
  H   H10       1.0  0.86580  0.84215  0.66572  1.0000
  H   H11       1.0  0.36535  0.50842  0.33420  1.0000
  H   H12       1.0  0.13420  0.15785  0.33427  1.0000
  H   H13       1.0  0.59740  0.00163  0.79245  1.0000
  H   H14       1.0  0.90265  0.20563  0.79256  1.0000
  H   H15       1.0  0.40259  0.99837  0.20755  1.0000
  H   H16       1.0  0.09734  0.79437  0.20744  1.0000
  C   C1        1.0  0.47145  0.62492  0.83842  1.0000
  C   C2        1.0  0.02863  0.53643  0.83841  1.0000
  C   C3        1.0  0.52856  0.37508  0.16158  1.0000
  C   C4        1.0  0.97138  0.46358  0.16159  1.0000
  C   C5        1.0  0.38567  0.68555  0.95554  1.0000
  C   C6        1.0  0.11448  0.35883  0.95562  1.0000
  C   C7        1.0  0.61433  0.31446  0.04446  1.0000
  C   C8        1.0  0.88552  0.64118  0.04438  1.0000
  C   C9        1.0  0.58594  0.43668  0.88508  1.0000
  C   C10       1.0  0.91403  0.67802  0.88502  1.0000
  C   C11       1.0  0.41407  0.56331  0.11493  1.0000
  C   C12       1.0  0.08597  0.32199  0.11497  1.0000
  C   C13       1.0  0.44553  0.75677  0.66726  1.0000
  C   C14       1.0  0.05489  0.57569  0.66727  1.0000
  C   C15       1.0  0.55447  0.24323  0.33274  1.0000
  C   C16       1.0  0.94511  0.42432  0.33273  1.0000
  O   O1        1.0  0.33094  0.91973  0.62334  1.0000
  O   O2        1.0  0.16955  0.45660  0.62340  1.0000
  O   O3        1.0  0.66906  0.08027  0.37666  1.0000
  O   O4        1.0  0.83044  0.54340  0.37660  1.0000
  O   O5        1.0  0.54663  0.69293  0.56835  1.0000
  O   O6        1.0  0.95410  0.73853  0.56820  1.0000
  O   O7        1.0  0.45337  0.30707  0.43166  1.0000
  O   O8        1.0  0.04590  0.26148  0.43180  1.0000
  O   O9        1.0  0.66767  0.37139  0.77280  1.0000
  O   O10       1.0  0.83231  0.85545  0.77271  1.0000
  O   O11       1.0  0.33233  0.62861  0.22720  1.0000
  O   O12       1.0  0.16769  0.14455  0.22729  1.0000
  O   O13       1.0  0.48114  0.10312  0.79426  1.0000
  O   O14       1.0  0.01890  0.10237  0.79429  1.0000
  O   O15       1.0  0.51886  0.89687  0.20574  1.0000
  O   O16       1.0  0.98110  0.89763  0.20572  1.0000
