data_image0
_chemical_formula_structural       Sr2H12C16O14
_chemical_formula_sum              "Sr2 H12 C16 O14"
_cell_length_a       7.29536
_cell_length_b       8.55068
_cell_length_c       8.55064
_cell_angle_alpha    84.8444
_cell_angle_beta     66.9524
_cell_angle_gamma    66.9522

_space_group_name_H-M_alt    "P 1"
_space_group_IT_number       1

loop_
  _space_group_symop_operation_xyz
  'x, y, z'

loop_
  _atom_site_type_symbol
  _atom_site_label
  _atom_site_symmetry_multiplicity
  _atom_site_fract_x
  _atom_site_fract_y
  _atom_site_fract_z
  _atom_site_occupancy
  Sr  Sr1       1.0  0.25000  0.58038  0.41962  1.0000
  Sr  Sr2       1.0  0.75000  0.41962  0.58038  1.0000
  H   H1        1.0  0.63896  0.68398  0.00617  1.0000
  H   H2        1.0  0.86104  0.99383  0.31602  1.0000
  H   H3        1.0  0.36104  0.31601  0.99383  1.0000
  H   H4        1.0  0.13896  0.00617  0.68399  1.0000
  H   H5        1.0  0.75890  0.04485  0.61427  1.0000
  H   H6        1.0  0.74111  0.38573  0.95515  1.0000
  H   H7        1.0  0.24110  0.95515  0.38572  1.0000
  H   H8        1.0  0.25889  0.61427  0.04485  1.0000
  H   H9        1.0  0.37851  0.26670  0.65473  1.0000
  H   H10       1.0  0.12149  0.34527  0.73330  1.0000
  H   H11       1.0  0.62150  0.73330  0.34527  1.0000
  H   H12       1.0  0.87852  0.65473  0.26670  1.0000
  C   C1        1.0  0.80750  0.78706  0.69091  1.0000
  C   C2        1.0  0.69250  0.30909  0.21294  1.0000
  C   C3        1.0  0.19250  0.21293  0.30909  1.0000
  C   C4        1.0  0.30749  0.69091  0.78707  1.0000
  C   C5        1.0  0.64785  0.89586  0.85018  1.0000
  C   C6        1.0  0.85215  0.14982  0.10414  1.0000
  C   C7        1.0  0.35214  0.10414  0.14982  1.0000
  C   C8        1.0  0.14785  0.85018  0.89587  1.0000
  C   C9        1.0  0.56874  0.07557  0.84745  1.0000
  C   C10       1.0  0.93126  0.15255  0.92444  1.0000
  C   C11       1.0  0.43125  0.92443  0.15255  1.0000
  C   C12       1.0  0.06874  0.84746  0.07556  1.0000
  C   C13       1.0  0.57879  0.82202  0.00360  1.0000
  C   C14       1.0  0.92121  0.99640  0.17797  1.0000
  C   C15       1.0  0.42121  0.17798  0.99640  1.0000
  C   C16       1.0  0.07879  0.00360  0.82202  1.0000
  O   O1        1.0  0.89682  0.86089  0.56216  1.0000
  O   O2        1.0  0.60318  0.43784  0.13911  1.0000
  O   O3        1.0  0.10318  0.13911  0.43784  1.0000
  O   O4        1.0  0.39682  0.56216  0.86089  1.0000
  O   O5        1.0  0.85815  0.62720  0.68427  1.0000
  O   O6        1.0  0.64185  0.31574  0.37279  1.0000
  O   O7        1.0  0.14185  0.37279  0.31574  1.0000
  O   O8        1.0  0.35815  0.68426  0.62721  1.0000
  O   O9        1.0  0.63618  0.14880  0.69732  1.0000
  O   O10       1.0  0.86382  0.30268  0.85120  1.0000
  O   O11       1.0  0.36382  0.85120  0.30268  1.0000
  O   O12       1.0  0.13618  0.69732  0.14880  1.0000
  O   O13       1.0  0.25000  0.35573  0.64427  1.0000
  O   O14       1.0  0.75000  0.64428  0.35573  1.0000
