data_image0
_chemical_formula_structural       Ca2H8C16O12
_chemical_formula_sum              "Ca2 H8 C16 O12"
_cell_length_a       6.85339
_cell_length_b       6.85339
_cell_length_c       7.9519
_cell_angle_alpha    91.3912
_cell_angle_beta     91.391
_cell_angle_gamma    97.7928

_space_group_name_H-M_alt    "P 1"
_space_group_IT_number       1

loop_
  _space_group_symop_operation_xyz
  'x, y, z'

loop_
  _atom_site_type_symbol
  _atom_site_label
  _atom_site_symmetry_multiplicity
  _atom_site_fract_x
  _atom_site_fract_y
  _atom_site_fract_z
  _atom_site_occupancy
  Ca  Ca1       1.0  0.99858  0.00142  0.75000  1.0000
  Ca  Ca2       1.0  0.00142  0.99858  0.25000  1.0000
  H   H1        1.0  0.52676  0.84227  0.11719  1.0000
  H   H2        1.0  0.15773  0.47324  0.38281  1.0000
  H   H3        1.0  0.47324  0.15773  0.88281  1.0000
  H   H4        1.0  0.84227  0.52676  0.61719  1.0000
  H   H5        1.0  0.08910  0.45257  0.79959  1.0000
  H   H6        1.0  0.54743  0.91090  0.70041  1.0000
  H   H7        1.0  0.91090  0.54743  0.20041  1.0000
  H   H8        1.0  0.45256  0.08909  0.29959  1.0000
  C   C1        1.0  0.18414  0.73117  0.94784  1.0000
  C   C2        1.0  0.26883  0.81585  0.55216  1.0000
  C   C3        1.0  0.81586  0.26883  0.05215  1.0000
  C   C4        1.0  0.73117  0.18414  0.44785  1.0000
  C   C5        1.0  0.34495  0.61085  0.97643  1.0000
  C   C6        1.0  0.38915  0.65505  0.52356  1.0000
  C   C7        1.0  0.65506  0.38915  0.02356  1.0000
  C   C8        1.0  0.61085  0.34494  0.47644  1.0000
  C   C9        1.0  0.33077  0.41676  0.90722  1.0000
  C   C10       1.0  0.58324  0.66923  0.59278  1.0000
  C   C11       1.0  0.66923  0.58324  0.09278  1.0000
  C   C12       1.0  0.41676  0.33077  0.40721  1.0000
  C   C13       1.0  0.51488  0.69218  0.06731  1.0000
  C   C14       1.0  0.30782  0.48512  0.43269  1.0000
  C   C15       1.0  0.48512  0.30782  0.93269  1.0000
  C   C16       1.0  0.69218  0.51488  0.56731  1.0000
  O   O1        1.0  0.04645  0.66661  0.83892  1.0000
  O   O2        1.0  0.33339  0.95355  0.66108  1.0000
  O   O3        1.0  0.95355  0.33339  0.16108  1.0000
  O   O4        1.0  0.66660  0.04644  0.33892  1.0000
  O   O5        1.0  0.18629  0.89831  0.02287  1.0000
  O   O6        1.0  0.10169  0.81371  0.47713  1.0000
  O   O7        1.0  0.81371  0.10169  0.97713  1.0000
  O   O8        1.0  0.89830  0.18629  0.52287  1.0000
  O   O9        1.0  0.16759  0.33688  0.81451  1.0000
  O   O10       1.0  0.66312  0.83241  0.68549  1.0000
  O   O11       1.0  0.83242  0.66312  0.18549  1.0000
  O   O12       1.0  0.33688  0.16758  0.31451  1.0000
