data_image0
_chemical_formula_structural       Ca2Cu2H12C28N4O16
_chemical_formula_sum              "Ca2 Cu2 H12 C28 N4 O16"
_cell_length_a       4.9671
_cell_length_b       9.59129
_cell_length_c       15.3237
_cell_angle_alpha    90
_cell_angle_beta     90
_cell_angle_gamma    104.317

_space_group_name_H-M_alt    "P 1"
_space_group_IT_number       1

loop_
  _space_group_symop_operation_xyz
  'x, y, z'

loop_
  _atom_site_type_symbol
  _atom_site_label
  _atom_site_symmetry_multiplicity
  _atom_site_fract_x
  _atom_site_fract_y
  _atom_site_fract_z
  _atom_site_occupancy
  Ca  Ca1       1.0  0.00000  0.00000  0.00000  1.0000
  Ca  Ca2       1.0  1.00000  0.50000  0.50000  1.0000
  Cu  Cu1       1.0  0.50000  0.00000  0.50000  1.0000
  Cu  Cu2       1.0  0.50000  0.50000  0.00000  1.0000
  H   H1        1.0  0.78830  0.77146  0.17291  1.0000
  H   H2        1.0  0.21170  0.72854  0.67291  1.0000
  H   H3        1.0  0.21170  0.22854  0.82709  1.0000
  H   H4        1.0  0.78830  0.27146  0.32709  1.0000
  H   H5        1.0  0.96063  0.70611  0.31998  1.0000
  H   H6        1.0  0.03937  0.79389  0.81999  1.0000
  H   H7        1.0  0.03937  0.29389  0.68002  1.0000
  H   H8        1.0  0.96063  0.20611  0.18001  1.0000
  H   H9        1.0  0.33193  0.03185  0.30972  1.0000
  H   H10       1.0  0.66807  0.46815  0.80972  1.0000
  H   H11       1.0  0.66807  0.96815  0.69028  1.0000
  H   H12       1.0  0.33193  0.53185  0.19028  1.0000
  C   C1        1.0  0.54643  0.90500  0.23032  1.0000
  C   C2        1.0  0.45357  0.59500  0.73032  1.0000
  C   C3        1.0  0.45357  0.09500  0.76968  1.0000
  C   C4        1.0  0.54643  0.40500  0.26968  1.0000
  C   C5        1.0  0.74450  0.84049  0.38900  1.0000
  C   C6        1.0  0.25549  0.65951  0.88900  1.0000
  C   C7        1.0  0.25550  0.15951  0.61100  1.0000
  C   C8        1.0  0.74451  0.34049  0.11100  1.0000
  C   C9        1.0  0.47115  0.96017  0.30849  1.0000
  C   C10       1.0  0.52885  0.53983  0.80849  1.0000
  C   C11       1.0  0.52885  0.03983  0.69151  1.0000
  C   C12       1.0  0.47115  0.46017  0.19151  1.0000
  C   C13       1.0  0.82256  0.77814  0.31428  1.0000
  C   C14       1.0  0.17744  0.72186  0.81428  1.0000
  C   C15       1.0  0.17744  0.22186  0.68572  1.0000
  C   C16       1.0  0.82256  0.27814  0.18572  1.0000
  C   C17       1.0  0.72541  0.81293  0.23378  1.0000
  C   C18       1.0  0.27458  0.68707  0.73378  1.0000
  C   C19       1.0  0.27458  0.18707  0.76622  1.0000
  C   C20       1.0  0.72542  0.31293  0.26622  1.0000
  C   C21       1.0  0.44923  0.94906  0.14334  1.0000
  C   C22       1.0  0.55077  0.55094  0.64334  1.0000
  C   C23       1.0  0.55077  0.05094  0.85666  1.0000
  C   C24       1.0  0.44923  0.44906  0.35666  1.0000
  C   C25       1.0  0.84779  0.82043  0.47927  1.0000
  C   C26       1.0  0.15221  0.67958  0.97927  1.0000
  C   C27       1.0  0.15222  0.17958  0.52073  1.0000
  C   C28       1.0  0.84779  0.32042  0.02073  1.0000
  N   N1        1.0  0.57249  0.92963  0.38519  1.0000
  N   N2        1.0  0.42751  0.57037  0.88520  1.0000
  N   N3        1.0  0.42751  0.07037  0.61480  1.0000
  N   N4        1.0  0.57249  0.42963  0.11481  1.0000
  O   O1        1.0  0.75605  0.88680  0.54116  1.0000
  O   O2        1.0  0.24395  0.61320  0.04116  1.0000
  O   O3        1.0  0.24395  0.11320  0.45884  1.0000
  O   O4        1.0  0.75605  0.38680  0.95884  1.0000
  O   O5        1.0  0.23207  0.99633  0.14114  1.0000
  O   O6        1.0  0.76793  0.50367  0.64114  1.0000
  O   O7        1.0  0.76793  0.00367  0.85886  1.0000
  O   O8        1.0  0.23207  0.49633  0.35887  1.0000
  O   O9        1.0  0.02093  0.74632  0.49015  1.0000
  O   O10       1.0  0.97907  0.75368  0.99015  1.0000
  O   O11       1.0  0.97908  0.25368  0.50985  1.0000
  O   O12       1.0  0.02093  0.24632  0.00985  1.0000
  O   O13       1.0  0.59787  0.93511  0.07849  1.0000
  O   O14       1.0  0.40213  0.56489  0.57849  1.0000
  O   O15       1.0  0.40214  0.06489  0.92151  1.0000
  O   O16       1.0  0.59786  0.43511  0.42151  1.0000
