data_image0
_chemical_formula_structural       Cd2H32C44S4N20O2
_chemical_formula_sum              "Cd2 H32 C44 S4 N20 O2"
_cell_length_a       9.86117
_cell_length_b       11.3141
_cell_length_c       11.479
_cell_angle_alpha    82.2898
_cell_angle_beta     81.0806
_cell_angle_gamma    72.0422

_space_group_name_H-M_alt    "P 1"
_space_group_IT_number       1

loop_
  _space_group_symop_operation_xyz
  'x, y, z'

loop_
  _atom_site_type_symbol
  _atom_site_label
  _atom_site_symmetry_multiplicity
  _atom_site_fract_x
  _atom_site_fract_y
  _atom_site_fract_z
  _atom_site_occupancy
  Cd  Cd1       1.0  0.74081  0.97497  0.59864  1.0000
  Cd  Cd2       1.0  0.25919  0.02503  0.40136  1.0000
  H   H1        1.0  0.59730  0.19821  0.97797  1.0000
  H   H2        1.0  0.40270  0.80179  0.02203  1.0000
  H   H3        1.0  0.44714  0.19442  0.82267  1.0000
  H   H4        1.0  0.55286  0.80558  0.17733  1.0000
  H   H5        1.0  0.38736  0.37217  0.66941  1.0000
  H   H6        1.0  0.61264  0.62784  0.33059  1.0000
  H   H7        1.0  0.62150  0.56174  0.82663  1.0000
  H   H8        1.0  0.37850  0.43826  0.17337  1.0000
  H   H9        1.0  0.42460  0.55977  0.56964  1.0000
  H   H10       1.0  0.57541  0.44023  0.43037  1.0000
  H   H11       1.0  0.35371  0.65828  0.68482  1.0000
  H   H12       1.0  0.64629  0.34172  0.31518  1.0000
  H   H13       1.0  0.48056  0.81287  0.71188  1.0000
  H   H14       1.0  0.51944  0.18713  0.28812  1.0000
  H   H15       1.0  0.84918  0.68533  0.47085  1.0000
  H   H16       1.0  0.15082  0.31467  0.52915  1.0000
  H   H17       1.0  0.81919  0.67658  0.01080  1.0000
  H   H18       1.0  0.18081  0.32341  0.98920  1.0000
  H   H19       1.0  0.88677  0.92570  0.13464  1.0000
  H   H20       1.0  0.11323  0.07430  0.86536  1.0000
  H   H21       1.0  0.03598  0.86426  0.02727  1.0000
  H   H22       1.0  0.96402  0.13573  0.97273  1.0000
  H   H23       1.0  0.06704  0.75040  0.25614  1.0000
  H   H24       1.0  0.93296  0.24960  0.74386  1.0000
  H   H25       1.0  0.09948  0.53788  0.35449  1.0000
  H   H26       1.0  0.90053  0.46212  0.64551  1.0000
  H   H27       1.0  0.98879  0.39245  0.28430  1.0000
  H   H28       1.0  0.01121  0.60755  0.71570  1.0000
  H   H29       1.0  0.53133  0.98567  0.88342  1.0000
  H   H30       1.0  0.46867  0.01433  0.11658  1.0000
  H   H31       1.0  0.98204  0.87049  0.81214  1.0000
  H   H32       1.0  0.01796  0.12951  0.18786  1.0000
  C   C1        1.0  0.70771  0.37850  0.00095  1.0000
  C   C2        1.0  0.29229  0.62150  0.99905  1.0000
  C   C3        1.0  0.61883  0.38009  0.91095  1.0000
  C   C4        1.0  0.38117  0.61991  0.08905  1.0000
  C   C5        1.0  0.56885  0.27632  0.91071  1.0000
  C   C6        1.0  0.43114  0.72368  0.08930  1.0000
  C   C7        1.0  0.48544  0.27448  0.82437  1.0000
  C   C8        1.0  0.51456  0.72552  0.17563  1.0000
  C   C9        1.0  0.45098  0.37485  0.73820  1.0000
  C   C10       1.0  0.54902  0.62515  0.26180  1.0000
  C   C11       1.0  0.49796  0.47941  0.73892  1.0000
  C   C12       1.0  0.50204  0.52059  0.26108  1.0000
  C   C13       1.0  0.58236  0.48175  0.82536  1.0000
  C   C14       1.0  0.41764  0.51825  0.17464  1.0000
  C   C15       1.0  0.45124  0.58921  0.64829  1.0000
  C   C16       1.0  0.54876  0.41079  0.35172  1.0000
  C   C17       1.0  0.56432  0.75923  0.65032  1.0000
  C   C18       1.0  0.43568  0.24077  0.34968  1.0000
  C   C19       1.0  0.74914  0.69126  0.52785  1.0000
  C   C20       1.0  0.25087  0.30874  0.47215  1.0000
  C   C21       1.0  0.83192  0.44257  0.10381  1.0000
  C   C22       1.0  0.16808  0.55744  0.89619  1.0000
  C   C23       1.0  0.89741  0.52635  0.14319  1.0000
  C   C24       1.0  0.10259  0.47365  0.85681  1.0000
  C   C25       1.0  0.88084  0.64697  0.08594  1.0000
  C   C26       1.0  0.11916  0.35303  0.91406  1.0000
  C   C27       1.0  0.94164  0.72785  0.12590  1.0000
  C   C28       1.0  0.05836  0.27215  0.87410  1.0000
  C   C29       1.0  0.92929  0.85824  0.06746  1.0000
  C   C30       1.0  0.07071  0.14176  0.93254  1.0000
  C   C31       1.0  0.01934  0.68783  0.22352  1.0000
  C   C32       1.0  0.98067  0.31217  0.77647  1.0000
  C   C33       1.0  0.03704  0.56763  0.27968  1.0000
  C   C34       1.0  0.96296  0.43237  0.72032  1.0000
  C   C35       1.0  0.97648  0.48623  0.24053  1.0000
  C   C36       1.0  0.02353  0.51376  0.75947  1.0000
  C   C37       1.0  0.64457  0.95412  0.89502  1.0000
  C   C38       1.0  0.35543  0.04589  0.10498  1.0000
  C   C39       1.0  0.87273  0.89872  0.85602  1.0000
  C   C40       1.0  0.12727  0.10128  0.14398  1.0000
  C   C41       1.0  0.38240  0.04368  0.64493  1.0000
  C   C42       1.0  0.61759  0.95632  0.35507  1.0000
  C   C43       1.0  0.08459  0.83155  0.51308  1.0000
  C   C44       1.0  0.91541  0.16845  0.48693  1.0000
  S   S1        1.0  0.22741  0.79458  0.41643  1.0000
  S   S2        1.0  0.77259  0.20542  0.58357  1.0000
  S   S3        1.0  0.23180  0.01170  0.64580  1.0000
  S   S4        1.0  0.76820  0.98830  0.35420  1.0000
  N   N1        1.0  0.75541  0.28720  0.08178  1.0000
  N   N2        1.0  0.24458  0.71280  0.91822  1.0000
  N   N3        1.0  0.83552  0.32849  0.14776  1.0000
  N   N4        1.0  0.16448  0.67151  0.85223  1.0000
  N   N5        1.0  0.83644  0.89627  0.97426  1.0000
  N   N6        1.0  0.16356  0.10373  0.02574  1.0000
  N   N7        1.0  0.75283  0.93597  0.80369  1.0000
  N   N8        1.0  0.24718  0.06403  0.19631  1.0000
  N   N9        1.0  0.55900  0.65418  0.61140  1.0000
  N   N10       1.0  0.44100  0.34582  0.38860  1.0000
  N   N11       1.0  0.68390  0.78550  0.59881  1.0000
  N   N12       1.0  0.31610  0.21450  0.40119  1.0000
  N   N13       1.0  0.49314  0.06481  0.64389  1.0000
  N   N14       1.0  0.50686  0.93519  0.35611  1.0000
  N   N15       1.0  0.98230  0.85827  0.58455  1.0000
  N   N16       1.0  0.01770  0.14173  0.41545  1.0000
  N   N17       1.0  0.69069  0.93106  0.00098  1.0000
  N   N18       1.0  0.30931  0.06894  0.99902  1.0000
  N   N19       1.0  0.67709  0.60841  0.53326  1.0000
  N   N20       1.0  0.32291  0.39159  0.46674  1.0000
  O   O1        1.0  0.75242  0.48026  0.00969  1.0000
  O   O2        1.0  0.24758  0.51974  0.99031  1.0000
