data_image0
_chemical_formula_structural       KH24C18N4O6
_chemical_formula_sum              "K1 H24 C18 N4 O6"
_cell_length_a       7.30301
_cell_length_b       7.73459
_cell_length_c       10.4146
_cell_angle_alpha    71.4503
_cell_angle_beta     75.9185
_cell_angle_gamma    84.1232

_space_group_name_H-M_alt    "P 1"
_space_group_IT_number       1

loop_
  _space_group_symop_operation_xyz
  'x, y, z'

loop_
  _atom_site_type_symbol
  _atom_site_label
  _atom_site_symmetry_multiplicity
  _atom_site_fract_x
  _atom_site_fract_y
  _atom_site_fract_z
  _atom_site_occupancy
  K   K1        1.0  0.00000  0.99999  0.50000  1.0000
  H   H1        1.0  0.43192  0.82445  0.28495  1.0000
  H   H2        1.0  0.56808  0.17555  0.71504  1.0000
  H   H3        1.0  0.47505  0.98577  0.11529  1.0000
  H   H4        1.0  0.52495  0.01423  0.88471  1.0000
  H   H5        1.0  0.51432  0.37984  0.36132  1.0000
  H   H6        1.0  0.48568  0.62015  0.63868  1.0000
  H   H7        1.0  0.30121  0.41178  0.29969  1.0000
  H   H8        1.0  0.69879  0.58821  0.70032  1.0000
  H   H9        1.0  0.13060  0.99075  0.11635  1.0000
  H   H10       1.0  0.86939  0.00925  0.88365  1.0000
  H   H11       1.0  0.24948  0.77349  0.12522  1.0000
  H   H12       1.0  0.75052  0.22651  0.87478  1.0000
  H   H13       1.0  0.55525  0.23010  0.18497  1.0000
  H   H14       1.0  0.44475  0.76990  0.81503  1.0000
  H   H15       1.0  0.55006  0.06124  0.35045  1.0000
  H   H16       1.0  0.44994  0.93876  0.64955  1.0000
  H   H17       1.0  0.15317  0.46778  0.51735  1.0000
  H   H18       1.0  0.84683  0.53222  0.48265  1.0000
  H   H19       1.0  0.35201  0.39866  0.59473  1.0000
  H   H20       1.0  0.64800  0.60133  0.40528  1.0000
  H   H21       1.0  0.92678  0.65844  0.22109  1.0000
  H   H22       1.0  0.07322  0.34156  0.77891  1.0000
  H   H23       1.0  0.82568  0.87429  0.23375  1.0000
  H   H24       1.0  0.17432  0.12571  0.76625  1.0000
  C   C1        1.0  0.03997  0.65813  0.81887  1.0000
  C   C2        1.0  0.96004  0.34187  0.18113  1.0000
  C   C3        1.0  0.94971  0.57068  0.95646  1.0000
  C   C4        1.0  0.05030  0.42933  0.04354  1.0000
  C   C5        1.0  0.76222  0.61897  0.00838  1.0000
  C   C6        1.0  0.23780  0.38103  0.99162  1.0000
  C   C7        1.0  0.36777  0.93829  0.21306  1.0000
  C   C8        1.0  0.63223  0.06171  0.78694  1.0000
  C   C9        1.0  0.39207  0.30956  0.35835  1.0000
  C   C10       1.0  0.60793  0.69044  0.64165  1.0000
  C   C11       1.0  0.20009  0.87398  0.18220  1.0000
  C   C12       1.0  0.79990  0.12602  0.81779  1.0000
  C   C13       1.0  0.46487  0.16544  0.28810  1.0000
  C   C14       1.0  0.53513  0.83456  0.71189  1.0000
  C   C15       1.0  0.22825  0.34821  0.57507  1.0000
  C   C16       1.0  0.77175  0.65179  0.42493  1.0000
  C   C17       1.0  0.89746  0.74863  0.28745  1.0000
  C   C18       1.0  0.10254  0.25137  0.71254  1.0000
  N   N1        1.0  0.60593  0.65354  0.05814  1.0000
  N   N2        1.0  0.39407  0.34647  0.94186  1.0000
  N   N3        1.0  0.12435  0.72326  0.70433  1.0000
  N   N4        1.0  0.87565  0.27674  0.29568  1.0000
  O   O1        1.0  0.30815  0.08299  0.27246  1.0000
  O   O2        1.0  0.69185  0.91701  0.72754  1.0000
  O   O3        1.0  0.28739  0.22324  0.49633  1.0000
  O   O4        1.0  0.71261  0.77676  0.50367  1.0000
  O   O5        1.0  0.06961  0.79317  0.31025  1.0000
  O   O6        1.0  0.93038  0.20683  0.68975  1.0000
