data_image0
_chemical_formula_structural       Zn2H24C36N4O12F8
_chemical_formula_sum              "Zn2 H24 C36 N4 O12 F8"
_cell_length_a       8.0776
_cell_length_b       8.07773
_cell_length_c       13.9592
_cell_angle_alpha    78.3335
_cell_angle_beta     78.3328
_cell_angle_gamma    89.639

_space_group_name_H-M_alt    "P 1"
_space_group_IT_number       1

loop_
  _space_group_symop_operation_xyz
  'x, y, z'

loop_
  _atom_site_type_symbol
  _atom_site_label
  _atom_site_symmetry_multiplicity
  _atom_site_fract_x
  _atom_site_fract_y
  _atom_site_fract_z
  _atom_site_occupancy
  Zn  Zn1       1.0  0.93994  0.06005  0.75000  1.0000
  Zn  Zn2       1.0  0.06005  0.93995  0.25000  1.0000
  H   H1        1.0  0.32005  0.04680  0.74003  1.0000
  H   H2        1.0  0.95321  0.67997  0.75998  1.0000
  H   H3        1.0  0.67997  0.95322  0.25997  1.0000
  H   H4        1.0  0.04681  0.32004  0.24003  1.0000
  H   H5        1.0  0.54641  0.83677  0.74168  1.0000
  H   H6        1.0  0.16322  0.45359  0.75833  1.0000
  H   H7        1.0  0.45359  0.16323  0.25831  1.0000
  H   H8        1.0  0.83677  0.54640  0.24168  1.0000
  H   H9        1.0  0.71342  0.66355  0.66080  1.0000
  H   H10       1.0  0.33645  0.28659  0.83920  1.0000
  H   H11       1.0  0.28659  0.33646  0.33921  1.0000
  H   H12       1.0  0.66356  0.71341  0.16080  1.0000
  H   H13       1.0  0.92245  0.43847  0.66551  1.0000
  H   H14       1.0  0.56152  0.07755  0.83448  1.0000
  H   H15       1.0  0.07755  0.56154  0.33449  1.0000
  H   H16       1.0  0.43848  0.92245  0.16551  1.0000
  H   H17       1.0  0.96986  0.09230  0.56391  1.0000
  H   H18       1.0  0.90769  0.03015  0.93609  1.0000
  H   H19       1.0  0.03016  0.90769  0.43609  1.0000
  H   H20       1.0  0.09230  0.96986  0.06391  1.0000
  H   H21       1.0  0.84863  0.92933  0.58667  1.0000
  H   H22       1.0  0.07065  0.15139  0.91332  1.0000
  H   H23       1.0  0.15139  0.07066  0.41333  1.0000
  H   H24       1.0  0.92934  0.84862  0.08668  1.0000
  C   C1        1.0  0.29116  0.91381  0.74414  1.0000
  C   C2        1.0  0.08618  0.70885  0.75586  1.0000
  C   C3        1.0  0.70885  0.08619  0.25585  1.0000
  C   C4        1.0  0.91382  0.29116  0.24414  1.0000
  C   C5        1.0  0.41727  0.79626  0.74329  1.0000
  C   C6        1.0  0.20374  0.58276  0.75671  1.0000
  C   C7        1.0  0.58275  0.20374  0.25671  1.0000
  C   C8        1.0  0.79627  0.41726  0.24329  1.0000
  C   C9        1.0  0.37445  0.62557  0.75000  1.0000
  C   C10       1.0  0.62557  0.37445  0.25000  1.0000
  C   C11       1.0  0.50404  0.49595  0.75000  1.0000
  C   C12       1.0  0.49597  0.50405  0.25000  1.0000
  C   C13       1.0  0.67318  0.53651  0.70245  1.0000
  C   C14       1.0  0.46348  0.32684  0.79755  1.0000
  C   C15       1.0  0.32683  0.46350  0.29755  1.0000
  C   C16       1.0  0.53652  0.67317  0.20245  1.0000
  C   C17       1.0  0.79115  0.41057  0.70367  1.0000
  C   C18       1.0  0.58942  0.20886  0.79632  1.0000
  C   C19       1.0  0.20885  0.58944  0.29633  1.0000
  C   C20       1.0  0.41058  0.79115  0.20367  1.0000
  C   C21       1.0  0.73238  0.79758  0.93007  1.0000
  C   C22       1.0  0.20242  0.26760  0.56994  1.0000
  C   C23       1.0  0.26759  0.20241  0.06994  1.0000
  C   C24       1.0  0.79760  0.73239  0.43006  1.0000
  C   C25       1.0  0.61346  0.64256  0.96578  1.0000
  C   C26       1.0  0.35743  0.38653  0.53422  1.0000
  C   C27       1.0  0.38651  0.35743  0.03422  1.0000
  C   C28       1.0  0.64257  0.61347  0.46577  1.0000
  C   C29       1.0  0.43888  0.66066  0.98316  1.0000
  C   C30       1.0  0.33934  0.56111  0.51685  1.0000
  C   C31       1.0  0.56110  0.33933  0.01685  1.0000
  C   C32       1.0  0.66067  0.43888  0.48314  1.0000
  C   C33       1.0  0.32680  0.52077  0.01669  1.0000
  C   C34       1.0  0.47923  0.67319  0.48332  1.0000
  C   C35       1.0  0.67317  0.47922  0.98332  1.0000
  C   C36       1.0  0.52077  0.32681  0.51667  1.0000
  N   N1        1.0  0.12779  0.87222  0.75000  1.0000
  N   N2        1.0  0.87222  0.12779  0.25000  1.0000
  N   N3        1.0  0.75123  0.24876  0.75000  1.0000
  N   N4        1.0  0.24877  0.75124  0.25000  1.0000
  O   O1        1.0  0.75426  0.86295  0.83749  1.0000
  O   O2        1.0  0.13705  0.24573  0.66252  1.0000
  O   O3        1.0  0.24572  0.13705  0.16252  1.0000
  O   O4        1.0  0.86295  0.75427  0.33747  1.0000
  O   O5        1.0  0.79562  0.84953  0.99465  1.0000
  O   O6        1.0  0.15047  0.20436  0.50536  1.0000
  O   O7        1.0  0.20437  0.15046  0.00536  1.0000
  O   O8        1.0  0.84955  0.79560  0.49464  1.0000
  O   O9        1.0  0.87406  0.02698  0.61384  1.0000
  O   O10       1.0  0.97301  0.12594  0.88616  1.0000
  O   O11       1.0  0.12594  0.97302  0.38616  1.0000
  O   O12       1.0  0.02698  0.87407  0.11384  1.0000
  F   F1        1.0  0.37698  0.81845  0.96845  1.0000
  F   F2        1.0  0.18155  0.62301  0.53157  1.0000
  F   F3        1.0  0.62299  0.18155  0.03155  1.0000
  F   F4        1.0  0.81845  0.37699  0.46843  1.0000
  F   F5        1.0  0.15811  0.54400  0.03240  1.0000
  F   F6        1.0  0.45600  0.84186  0.46762  1.0000
  F   F7        1.0  0.84186  0.45598  0.96761  1.0000
  F   F8        1.0  0.54400  0.15813  0.53237  1.0000
