data_image0
_chemical_formula_structural       Co2H24C36N4O12F8
_chemical_formula_sum              "Co2 H24 C36 N4 O12 F8"
_cell_length_a       7.14422
_cell_length_b       11.0876
_cell_length_c       11.0872
_cell_angle_alpha    91.5936
_cell_angle_beta     96.6
_cell_angle_gamma    96.5922

_space_group_name_H-M_alt    "P 1"
_space_group_IT_number       1

loop_
  _space_group_symop_operation_xyz
  'x, y, z'

loop_
  _atom_site_type_symbol
  _atom_site_label
  _atom_site_symmetry_multiplicity
  _atom_site_fract_x
  _atom_site_fract_y
  _atom_site_fract_z
  _atom_site_occupancy
  Co  Co1       1.0  0.99999  0.50000  1.00000  1.0000
  Co  Co2       1.0  0.50001  0.00001  0.50000  1.0000
  H   H1        1.0  0.95146  0.30455  0.81515  1.0000
  H   H2        1.0  0.54877  0.18482  0.69545  1.0000
  H   H3        1.0  0.04852  0.69544  0.18485  1.0000
  H   H4        1.0  0.45122  0.81518  0.30455  1.0000
  H   H5        1.0  0.95777  0.08469  0.80370  1.0000
  H   H6        1.0  0.54244  0.19628  0.91532  1.0000
  H   H7        1.0  0.04223  0.91531  0.19630  1.0000
  H   H8        1.0  0.45754  0.80373  0.08468  1.0000
  H   H9        1.0  0.03875  0.09864  0.19858  1.0000
  H   H10       1.0  0.46124  0.80142  0.90135  1.0000
  H   H11       1.0  0.96126  0.90135  0.80142  1.0000
  H   H12       1.0  0.53877  0.19859  0.09865  1.0000
  H   H13       1.0  0.04188  0.31786  0.19072  1.0000
  H   H14       1.0  0.45809  0.80929  0.68211  1.0000
  H   H15       1.0  0.95811  0.68213  0.80928  1.0000
  H   H16       1.0  0.54192  0.19072  0.31789  1.0000
  H   H17       1.0  0.38810  0.49784  0.12457  1.0000
  H   H18       1.0  0.11190  0.87545  0.50211  1.0000
  H   H19       1.0  0.61189  0.50216  0.87543  1.0000
  H   H20       1.0  0.88814  0.12454  0.49789  1.0000
  H   H21       1.0  0.35441  0.57182  0.00725  1.0000
  H   H22       1.0  0.14564  0.99279  0.42817  1.0000
  H   H23       1.0  0.64557  0.42818  0.99275  1.0000
  H   H24       1.0  0.85438  0.00721  0.57183  1.0000
  C   C1        1.0  0.97599  0.25551  0.89764  1.0000
  C   C2        1.0  0.52417  0.10235  0.74448  1.0000
  C   C3        1.0  0.02399  0.74448  0.10236  1.0000
  C   C4        1.0  0.47583  0.89766  0.25552  1.0000
  C   C5        1.0  0.97816  0.13031  0.89326  1.0000
  C   C6        1.0  0.52201  0.10673  0.86969  1.0000
  C   C7        1.0  0.02183  0.86968  0.10674  1.0000
  C   C8        1.0  0.47798  0.89328  0.13031  1.0000
  C   C9        1.0  0.00089  0.06717  0.00072  1.0000
  C   C10       1.0  0.49917  0.99929  0.93283  1.0000
  C   C11       1.0  0.99911  0.93282  0.99929  1.0000
  C   C12       1.0  0.50083  0.00073  0.06717  1.0000
  C   C13       1.0  0.02222  0.13768  0.10954  1.0000
  C   C14       1.0  0.47779  0.89046  0.86231  1.0000
  C   C15       1.0  0.97778  0.86231  0.89046  1.0000
  C   C16       1.0  0.52222  0.10955  0.13769  1.0000
  C   C17       1.0  0.02376  0.26298  0.10691  1.0000
  C   C18       1.0  0.47628  0.89309  0.73701  1.0000
  C   C19       1.0  0.97623  0.73701  0.89308  1.0000
  C   C20       1.0  0.52374  0.10692  0.26299  1.0000
  C   C21       1.0  0.76984  0.47325  0.20215  1.0000
  C   C22       1.0  0.73016  0.79785  0.52669  1.0000
  C   C23       1.0  0.23014  0.52675  0.79785  1.0000
  C   C24       1.0  0.26986  0.20215  0.47331  1.0000
  C   C25       1.0  0.76484  0.50885  0.33478  1.0000
  C   C26       1.0  0.73519  0.66522  0.49111  1.0000
  C   C27       1.0  0.23517  0.49114  0.66522  1.0000
  C   C28       1.0  0.26482  0.33478  0.50889  1.0000
  C   C29       1.0  0.75001  0.62815  0.37182  1.0000
  C   C30       1.0  0.24998  0.37185  0.62818  1.0000
  C   C31       1.0  0.76992  0.42414  0.42511  1.0000
  C   C32       1.0  0.73003  0.57491  0.57584  1.0000
  C   C33       1.0  0.23008  0.57586  0.57489  1.0000
  C   C34       1.0  0.26996  0.42509  0.42416  1.0000
  C   C35       1.0  0.74994  0.45460  0.54541  1.0000
  C   C36       1.0  0.25006  0.54540  0.45459  1.0000
  N   N1        1.0  0.00235  0.32292  0.00277  1.0000
  N   N2        1.0  0.49772  0.99721  0.67706  1.0000
  N   N3        1.0  0.99763  0.67707  0.99722  1.0000
  N   N4        1.0  0.50229  0.00280  0.32293  1.0000
  O   O1        1.0  0.92888  0.50509  0.16331  1.0000
  O   O2        1.0  0.57108  0.83669  0.49487  1.0000
  O   O3        1.0  0.07111  0.49490  0.83669  1.0000
  O   O4        1.0  0.42894  0.16332  0.50513  1.0000
  O   O5        1.0  0.62099  0.41858  0.14389  1.0000
  O   O6        1.0  0.87904  0.85609  0.58131  1.0000
  O   O7        1.0  0.37899  0.58143  0.85610  1.0000
  O   O8        1.0  0.12099  0.14390  0.41867  1.0000
  O   O9        1.0  0.30844  0.55666  0.08757  1.0000
  O   O10       1.0  0.19158  0.91246  0.44332  1.0000
  O   O11       1.0  0.69154  0.44333  0.91243  1.0000
  O   O12       1.0  0.80845  0.08754  0.55669  1.0000
  F   F1        1.0  0.75003  0.71372  0.28621  1.0000
  F   F2        1.0  0.24996  0.28627  0.71378  1.0000
  F   F3        1.0  0.79778  0.30872  0.39615  1.0000
  F   F4        1.0  0.70221  0.60392  0.69126  1.0000
  F   F5        1.0  0.20224  0.69128  0.60385  1.0000
  F   F6        1.0  0.29779  0.39608  0.30874  1.0000
  F   F7        1.0  0.74986  0.36994  0.63007  1.0000
  F   F8        1.0  0.25013  0.63005  0.36993  1.0000
