data_image0
_chemical_formula_structural       Zn2H24C36N4O12F8
_chemical_formula_sum              "Zn2 H24 C36 N4 O12 F8"
_cell_length_a       7.13883
_cell_length_b       11.3304
_cell_length_c       11.3304
_cell_angle_alpha    89.8965
_cell_angle_beta     100.051
_cell_angle_gamma    100.051

_space_group_name_H-M_alt    "P 1"
_space_group_IT_number       1

loop_
  _space_group_symop_operation_xyz
  'x, y, z'

loop_
  _atom_site_type_symbol
  _atom_site_label
  _atom_site_symmetry_multiplicity
  _atom_site_fract_x
  _atom_site_fract_y
  _atom_site_fract_z
  _atom_site_occupancy
  Zn  Zn1       1.0  0.00000  0.50000  0.00000  1.0000
  Zn  Zn2       1.0  0.50000  1.00000  0.50000  1.0000
  H   H1        1.0  0.96412  0.69254  0.81404  1.0000
  H   H2        1.0  0.53588  0.18596  0.30746  1.0000
  H   H3        1.0  0.03588  0.30746  0.18596  1.0000
  H   H4        1.0  0.46412  0.81404  0.69254  1.0000
  H   H5        1.0  0.96522  0.90898  0.80512  1.0000
  H   H6        1.0  0.53478  0.19488  0.09102  1.0000
  H   H7        1.0  0.03478  0.09103  0.19488  1.0000
  H   H8        1.0  0.46522  0.80512  0.90898  1.0000
  H   H9        1.0  0.03334  0.91467  0.19407  1.0000
  H   H10       1.0  0.46667  0.80592  0.08533  1.0000
  H   H11       1.0  0.96666  0.08533  0.80593  1.0000
  H   H12       1.0  0.53333  0.19407  0.91467  1.0000
  H   H13       1.0  0.03276  0.69783  0.18385  1.0000
  H   H14       1.0  0.46725  0.81615  0.30218  1.0000
  H   H15       1.0  0.96725  0.30218  0.81615  1.0000
  H   H16       1.0  0.53274  0.18384  0.69782  1.0000
  H   H17       1.0  0.64418  0.43196  0.00431  1.0000
  H   H18       1.0  0.85582  0.99569  0.56804  1.0000
  H   H19       1.0  0.35582  0.56804  0.99569  1.0000
  H   H20       1.0  0.14418  0.00431  0.43196  1.0000
  H   H21       1.0  0.61345  0.49814  0.88181  1.0000
  H   H22       1.0  0.88655  0.11819  0.50186  1.0000
  H   H23       1.0  0.38655  0.50186  0.11819  1.0000
  H   H24       1.0  0.11345  0.88181  0.49814  1.0000
  C   C1        1.0  0.97751  0.74560  0.89578  1.0000
  C   C2        1.0  0.52249  0.10422  0.25440  1.0000
  C   C3        1.0  0.02249  0.25440  0.10421  1.0000
  C   C4        1.0  0.47751  0.89578  0.74560  1.0000
  C   C5        1.0  0.97910  0.86812  0.89250  1.0000
  C   C6        1.0  0.52090  0.10750  0.13188  1.0000
  C   C7        1.0  0.02090  0.13188  0.10750  1.0000
  C   C8        1.0  0.47910  0.89250  0.86812  1.0000
  C   C9        1.0  0.99785  0.93452  0.99970  1.0000
  C   C10       1.0  0.50215  0.00030  0.06548  1.0000
  C   C11       1.0  0.00215  0.06548  0.00030  1.0000
  C   C12       1.0  0.49785  0.99970  0.93452  1.0000
  C   C13       1.0  0.01512  0.87098  0.10636  1.0000
  C   C14       1.0  0.48489  0.89364  0.12902  1.0000
  C   C15       1.0  0.98488  0.12902  0.89364  1.0000
  C   C16       1.0  0.51511  0.10636  0.87098  1.0000
  C   C17       1.0  0.01430  0.74844  0.10233  1.0000
  C   C18       1.0  0.48570  0.89767  0.25157  1.0000
  C   C19       1.0  0.98570  0.25157  0.89767  1.0000
  C   C20       1.0  0.51430  0.10233  0.74843  1.0000
  C   C21       1.0  0.76659  0.47302  0.21270  1.0000
  C   C22       1.0  0.73342  0.78730  0.52698  1.0000
  C   C23       1.0  0.23341  0.52698  0.78730  1.0000
  C   C24       1.0  0.26658  0.21270  0.47302  1.0000
  C   C25       1.0  0.76099  0.50721  0.34195  1.0000
  C   C26       1.0  0.73902  0.65805  0.49279  1.0000
  C   C27       1.0  0.23901  0.49279  0.65805  1.0000
  C   C28       1.0  0.26099  0.34195  0.50721  1.0000
  C   C29       1.0  0.75000  0.62335  0.37666  1.0000
  C   C30       1.0  0.25000  0.37665  0.62334  1.0000
  C   C31       1.0  0.76681  0.42326  0.43182  1.0000
  C   C32       1.0  0.73319  0.56818  0.57674  1.0000
  C   C33       1.0  0.23318  0.57674  0.56818  1.0000
  C   C34       1.0  0.26681  0.43182  0.42326  1.0000
  C   C35       1.0  0.75000  0.45108  0.54892  1.0000
  C   C36       1.0  0.25000  0.54892  0.45108  1.0000
  N   N1        1.0  0.99377  0.68582  0.99872  1.0000
  N   N2        1.0  0.50624  0.00128  0.31418  1.0000
  N   N3        1.0  0.00623  0.31418  0.00128  1.0000
  N   N4        1.0  0.49376  0.99872  0.68582  1.0000
  O   O1        1.0  0.93105  0.49334  0.18202  1.0000
  O   O2        1.0  0.56896  0.81798  0.50666  1.0000
  O   O3        1.0  0.06895  0.50666  0.81797  1.0000
  O   O4        1.0  0.43105  0.18202  0.49334  1.0000
  O   O5        1.0  0.60705  0.42773  0.14766  1.0000
  O   O6        1.0  0.89295  0.85234  0.57228  1.0000
  O   O7        1.0  0.39295  0.57227  0.85234  1.0000
  O   O8        1.0  0.10705  0.14766  0.42773  1.0000
  O   O9        1.0  0.69283  0.44406  0.92650  1.0000
  O   O10       1.0  0.80717  0.07350  0.55594  1.0000
  O   O11       1.0  0.30718  0.55594  0.07350  1.0000
  O   O12       1.0  0.19282  0.92650  0.44406  1.0000
  F   F1        1.0  0.75000  0.70873  0.29128  1.0000
  F   F2        1.0  0.25001  0.29127  0.70873  1.0000
  F   F3        1.0  0.79203  0.31117  0.40532  1.0000
  F   F4        1.0  0.70796  0.59468  0.68883  1.0000
  F   F5        1.0  0.20795  0.68883  0.59467  1.0000
  F   F6        1.0  0.29204  0.40532  0.31117  1.0000
  F   F7        1.0  0.74999  0.36695  0.63305  1.0000
  F   F8        1.0  0.25000  0.63304  0.36695  1.0000
