data_image0
_chemical_formula_structural       Cu3H18C12N20O6
_chemical_formula_sum              "Cu3 H18 C12 N20 O6"
_cell_length_a       7.0583
_cell_length_b       9.09383
_cell_length_c       10.3741
_cell_angle_alpha    95.6904
_cell_angle_beta     110.774
_cell_angle_gamma    105.1

_space_group_name_H-M_alt    "P 1"
_space_group_IT_number       1

loop_
  _space_group_symop_operation_xyz
  'x, y, z'

loop_
  _atom_site_type_symbol
  _atom_site_label
  _atom_site_symmetry_multiplicity
  _atom_site_fract_x
  _atom_site_fract_y
  _atom_site_fract_z
  _atom_site_occupancy
  Cu  Cu1       1.0  0.99987  0.00003  0.99999  1.0000
  Cu  Cu2       1.0  0.87469  0.26004  0.47612  1.0000
  Cu  Cu3       1.0  0.12553  0.73990  0.52387  1.0000
  H   H1        1.0  0.68228  0.09194  0.97991  1.0000
  H   H2        1.0  0.31724  0.90798  0.01994  1.0000
  H   H3        1.0  0.60943  0.90048  0.97566  1.0000
  H   H4        1.0  0.39025  0.09951  0.02422  1.0000
  H   H5        1.0  0.62591  0.96276  0.83612  1.0000
  H   H6        1.0  0.37388  0.03717  0.16386  1.0000
  H   H7        1.0  0.59928  0.32103  0.55988  1.0000
  H   H8        1.0  0.40091  0.67912  0.43999  1.0000
  H   H9        1.0  0.48524  0.15381  0.43839  1.0000
  H   H10       1.0  0.51495  0.84621  0.56163  1.0000
  H   H11       1.0  0.52551  0.32539  0.39291  1.0000
  H   H12       1.0  0.47466  0.67454  0.60693  1.0000
  H   H13       1.0  0.19076  0.34151  0.40703  1.0000
  H   H14       1.0  0.80960  0.65848  0.59319  1.0000
  H   H15       1.0  0.28053  0.30955  0.56690  1.0000
  H   H16       1.0  0.71969  0.69029  0.43326  1.0000
  H   H17       1.0  0.14978  0.15953  0.42718  1.0000
  H   H18       1.0  0.85044  0.84040  0.57290  1.0000
  C   C1        1.0  0.90285  0.57687  0.23330  1.0000
  C   C2        1.0  0.09712  0.42314  0.76671  1.0000
  C   C3        1.0  0.85722  0.68547  0.02419  1.0000
  C   C4        1.0  0.14255  0.31461  0.97580  1.0000
  C   C5        1.0  0.70342  0.40758  0.99976  1.0000
  C   C6        1.0  0.29647  0.59248  0.00026  1.0000
  C   C7        1.0  0.05785  0.84714  0.25299  1.0000
  C   C8        1.0  0.94205  0.15287  0.74703  1.0000
  C   C9        1.0  0.66610  0.52006  0.80445  1.0000
  C   C10       1.0  0.33379  0.47995  0.19553  1.0000
  C   C11       1.0  0.76266  0.31152  0.20504  1.0000
  C   C12       1.0  0.23745  0.68845  0.79497  1.0000
  N   N1        1.0  0.82358  0.55736  0.08683  1.0000
  N   N2        1.0  0.17633  0.44271  0.91319  1.0000
  N   N3        1.0  0.01392  0.72004  0.31280  1.0000
  N   N4        1.0  0.98605  0.27998  0.68719  1.0000
  N   N5        1.0  0.96856  0.82726  0.10836  1.0000
  N   N6        1.0  0.03120  0.17279  0.89169  1.0000
  N   N7        1.0  0.78337  0.66810  0.88599  1.0000
  N   N8        1.0  0.21645  0.33199  0.11401  1.0000
  N   N9        1.0  0.62537  0.39023  0.86096  1.0000
  N   N10       1.0  0.37446  0.60981  0.13904  1.0000
  N   N11       1.0  0.67325  0.28648  0.06159  1.0000
  N   N12       1.0  0.32669  0.71354  0.93841  1.0000
  N   N13       1.0  0.87184  0.45554  0.29251  1.0000
  N   N14       1.0  0.12829  0.54448  0.70752  1.0000
  N   N15       1.0  0.69737  0.98684  0.94382  1.0000
  N   N16       1.0  0.30242  0.01315  0.05614  1.0000
  N   N17       1.0  0.59122  0.26438  0.46596  1.0000
  N   N18       1.0  0.40896  0.73563  0.53394  1.0000
  N   N19       1.0  0.15479  0.26820  0.47043  1.0000
  N   N20       1.0  0.84548  0.73173  0.52971  1.0000
  O   O1        1.0  0.17715  0.97735  0.32994  1.0000
  O   O2        1.0  0.82286  0.02265  0.67005  1.0000
  O   O3        1.0  0.59352  0.50363  0.67183  1.0000
  O   O4        1.0  0.40661  0.49635  0.32816  1.0000
  O   O5        1.0  0.74227  0.19295  0.26184  1.0000
  O   O6        1.0  0.25801  0.80700  0.73817  1.0000
