data_image0
_chemical_formula_structural       Cd2H32C30N12O8
_chemical_formula_sum              "Cd2 H32 C30 N12 O8"
_cell_length_a       8.12571
_cell_length_b       9.78875
_cell_length_c       10.6168
_cell_angle_alpha    101.8
_cell_angle_beta     98.6808
_cell_angle_gamma    94.4381

_space_group_name_H-M_alt    "P 1"
_space_group_IT_number       1

loop_
  _space_group_symop_operation_xyz
  'x, y, z'

loop_
  _atom_site_type_symbol
  _atom_site_label
  _atom_site_symmetry_multiplicity
  _atom_site_fract_x
  _atom_site_fract_y
  _atom_site_fract_z
  _atom_site_occupancy
  Cd  Cd1       1.0  0.15124  0.13420  0.12156  1.0000
  Cd  Cd2       1.0  0.84876  0.86580  0.87844  1.0000
  H   H1        1.0  0.92242  0.62963  0.21072  1.0000
  H   H2        1.0  0.07758  0.37037  0.78928  1.0000
  H   H3        1.0  0.06567  0.14187  0.63175  1.0000
  H   H4        1.0  0.93432  0.85813  0.36825  1.0000
  H   H5        1.0  0.02295  0.96786  0.65211  1.0000
  H   H6        1.0  0.97705  0.03214  0.34789  1.0000
  H   H7        1.0  0.32796  0.95733  0.72191  1.0000
  H   H8        1.0  0.67204  0.04267  0.27809  1.0000
  H   H9        1.0  0.28709  0.99853  0.56575  1.0000
  H   H10       1.0  0.71291  0.00147  0.43425  1.0000
  H   H11       1.0  0.42028  0.21060  0.82404  1.0000
  H   H12       1.0  0.57972  0.78940  0.17596  1.0000
  H   H13       1.0  0.36235  0.25601  0.67322  1.0000
  H   H14       1.0  0.63765  0.74399  0.32678  1.0000
  H   H15       1.0  0.66657  0.25060  0.71697  1.0000
  H   H16       1.0  0.33343  0.74940  0.28303  1.0000
  H   H17       1.0  0.57846  0.11651  0.57956  1.0000
  H   H18       1.0  0.42154  0.88349  0.42044  1.0000
  H   H19       1.0  0.28796  0.26840  0.42426  1.0000
  H   H20       1.0  0.71204  0.73160  0.57574  1.0000
  H   H21       1.0  0.41734  0.46028  0.61491  1.0000
  H   H22       1.0  0.58266  0.53972  0.38509  1.0000
  H   H23       1.0  0.33445  0.70047  0.63766  1.0000
  H   H24       1.0  0.66555  0.29953  0.36234  1.0000
  H   H25       1.0  0.11700  0.75901  0.47188  1.0000
  H   H26       1.0  0.88300  0.24099  0.52812  1.0000
  H   H27       1.0  0.81319  0.44577  0.98958  1.0000
  H   H28       1.0  0.18681  0.55423  0.01041  1.0000
  H   H29       1.0  0.83022  0.26499  0.99131  1.0000
  H   H30       1.0  0.16978  0.73501  0.00869  1.0000
  H   H31       1.0  0.57521  0.13187  0.05363  1.0000
  H   H32       1.0  0.42479  0.86813  0.94637  1.0000
  C   C1        1.0  0.09867  0.12037  0.83071  1.0000
  C   C2        1.0  0.90133  0.87963  0.16929  1.0000
  C   C3        1.0  0.10816  0.06513  0.68823  1.0000
  C   C4        1.0  0.89184  0.93487  0.31177  1.0000
  C   C5        1.0  0.28789  0.03926  0.67045  1.0000
  C   C6        1.0  0.71211  0.96074  0.32955  1.0000
  C   C7        1.0  0.41095  0.17221  0.71817  1.0000
  C   C8        1.0  0.58905  0.82779  0.28183  1.0000
  C   C9        1.0  0.58496  0.15032  0.68548  1.0000
  C   C10       1.0  0.41504  0.84968  0.31452  1.0000
  C   C11       1.0  0.67048  0.04533  0.75218  1.0000
  C   C12       1.0  0.32952  0.95467  0.24782  1.0000
  C   C13       1.0  0.13067  0.40766  0.33999  1.0000
  C   C14       1.0  0.86933  0.59234  0.66001  1.0000
  C   C15       1.0  0.25080  0.37419  0.43470  1.0000
  C   C16       1.0  0.74920  0.62581  0.56530  1.0000
  C   C17       1.0  0.32106  0.48172  0.54086  1.0000
  C   C18       1.0  0.67894  0.51828  0.45914  1.0000
  C   C19       1.0  0.27425  0.61891  0.55378  1.0000
  C   C20       1.0  0.72575  0.38108  0.44622  1.0000
  C   C21       1.0  0.15384  0.65326  0.46113  1.0000
  C   C22       1.0  0.84616  0.34674  0.53887  1.0000
  C   C23       1.0  0.08388  0.54581  0.35366  1.0000
  C   C24       1.0  0.91612  0.45419  0.64634  1.0000
  C   C25       1.0  0.94387  0.41004  0.17018  1.0000
  C   C26       1.0  0.05613  0.58996  0.82982  1.0000
  C   C27       1.0  0.81318  0.36716  0.05008  1.0000
  C   C28       1.0  0.18682  0.63284  0.94992  1.0000
  C   C29       1.0  0.54499  0.23802  0.08520  1.0000
  C   C30       1.0  0.45501  0.76198  0.91480  1.0000
  N   N1        1.0  0.04066  0.32504  0.22363  1.0000
  N   N2        1.0  0.95934  0.67496  0.77637  1.0000
  N   N3        1.0  0.96566  0.54262  0.24464  1.0000
  N   N4        1.0  0.03434  0.45738  0.75536  1.0000
  N   N5        1.0  0.64505  0.35399  0.08493  1.0000
  N   N6        1.0  0.35495  0.64601  0.91507  1.0000
  N   N7        1.0  0.56694  0.46833  0.12577  1.0000
  N   N8        1.0  0.43307  0.53167  0.87423  1.0000
  N   N9        1.0  0.42291  0.42236  0.14868  1.0000
  N   N10       1.0  0.57710  0.57764  0.85132  1.0000
  N   N11       1.0  0.40567  0.27904  0.12450  1.0000
  N   N12       1.0  0.59433  0.72096  0.87550  1.0000
  O   O1        1.0  0.10123  0.02916  0.90384  1.0000
  O   O2        1.0  0.89877  0.97084  0.09616  1.0000
  O   O3        1.0  0.09571  0.24927  0.87702  1.0000
  O   O4        1.0  0.90429  0.75073  0.12298  1.0000
  O   O5        1.0  0.67557  0.05813  0.87520  1.0000
  O   O6        1.0  0.32443  0.94187  0.12480  1.0000
  O   O7        1.0  0.73861  0.94870  0.68567  1.0000
  O   O8        1.0  0.26139  0.05130  0.31433  1.0000
