data_image0
_chemical_formula_structural       Cd2H24C24Br2N12O4
_chemical_formula_sum              "Cd2 H24 C24 Br2 N12 O4"
_cell_length_a       8.35945
_cell_length_b       8.70035
_cell_length_c       11.3863
_cell_angle_alpha    99.1753
_cell_angle_beta     104.548
_cell_angle_gamma    98.1994

_space_group_name_H-M_alt    "P 1"
_space_group_IT_number       1

loop_
  _space_group_symop_operation_xyz
  'x, y, z'

loop_
  _atom_site_type_symbol
  _atom_site_label
  _atom_site_symmetry_multiplicity
  _atom_site_fract_x
  _atom_site_fract_y
  _atom_site_fract_z
  _atom_site_occupancy
  Cd  Cd1       1.0  0.45021  0.82911  0.84790  1.0000
  Cd  Cd2       1.0  0.54979  0.17089  0.15210  1.0000
  H   H1        1.0  0.17284  0.15580  0.51185  1.0000
  H   H2        1.0  0.82716  0.84420  0.48815  1.0000
  H   H3        1.0  0.86337  0.52563  0.79795  1.0000
  H   H4        1.0  0.13664  0.47437  0.20205  1.0000
  H   H5        1.0  0.98519  0.70852  0.88399  1.0000
  H   H6        1.0  0.01481  0.29148  0.11601  1.0000
  H   H7        1.0  0.81623  0.45948  0.00126  1.0000
  H   H8        1.0  0.18378  0.54052  0.99874  1.0000
  H   H9        1.0  0.95822  0.63753  0.08129  1.0000
  H   H10       1.0  0.04178  0.36247  0.91871  1.0000
  H   H11       1.0  0.43275  0.43426  0.89161  1.0000
  H   H12       1.0  0.56725  0.56574  0.10839  1.0000
  H   H13       1.0  0.06805  0.09874  0.75490  1.0000
  H   H14       1.0  0.93194  0.90126  0.24510  1.0000
  H   H15       1.0  0.27758  0.13814  0.85163  1.0000
  H   H16       1.0  0.72242  0.86185  0.14837  1.0000
  H   H17       1.0  0.24405  0.99506  0.28735  1.0000
  H   H18       1.0  0.75595  0.00494  0.71265  1.0000
  H   H19       1.0  0.34352  0.75049  0.21602  1.0000
  H   H20       1.0  0.65648  0.24951  0.78398  1.0000
  H   H21       1.0  0.43621  0.57250  0.35928  1.0000
  H   H22       1.0  0.56379  0.42750  0.64073  1.0000
  H   H23       1.0  0.43952  0.63860  0.58159  1.0000
  H   H24       1.0  0.56048  0.36141  0.41840  1.0000
  C   C1        1.0  0.72492  0.68609  0.86881  1.0000
  C   C2        1.0  0.27508  0.31390  0.13119  1.0000
  C   C3        1.0  0.88130  0.61443  0.88308  1.0000
  C   C4        1.0  0.11870  0.38556  0.11692  1.0000
  C   C5        1.0  0.92642  0.54276  0.99786  1.0000
  C   C6        1.0  0.07358  0.45724  0.00215  1.0000
  C   C7        1.0  0.33009  0.43382  0.81176  1.0000
  C   C8        1.0  0.66991  0.56618  0.18824  1.0000
  C   C9        1.0  0.20030  0.14085  0.75873  1.0000
  C   C10       1.0  0.79969  0.85915  0.24127  1.0000
  C   C11       1.0  0.24924  0.03889  0.65974  1.0000
  C   C12       1.0  0.75076  0.96111  0.34027  1.0000
  C   C13       1.0  0.27405  0.94441  0.47260  1.0000
  C   C14       1.0  0.72595  0.05559  0.52740  1.0000
  C   C15       1.0  0.27929  0.91445  0.34956  1.0000
  C   C16       1.0  0.72072  0.08555  0.65044  1.0000
  C   C17       1.0  0.33890  0.77859  0.31178  1.0000
  C   C18       1.0  0.66110  0.22141  0.68822  1.0000
  C   C19       1.0  0.39335  0.67894  0.39368  1.0000
  C   C20       1.0  0.60665  0.32107  0.60632  1.0000
  C   C21       1.0  0.39278  0.71222  0.51706  1.0000
  C   C22       1.0  0.60722  0.28778  0.48294  1.0000
  C   C23       1.0  0.33178  0.84710  0.55636  1.0000
  C   C24       1.0  0.66823  0.15290  0.44364  1.0000
  Br  Br1       1.0  0.29411  0.89747  0.02015  1.0000
  Br  Br2       1.0  0.70589  0.10252  0.97985  1.0000
  N   N1        1.0  0.29081  0.55760  0.76408  1.0000
  N   N2        1.0  0.70919  0.44240  0.23592  1.0000
  N   N3        1.0  0.15087  0.50254  0.66596  1.0000
  N   N4        1.0  0.84913  0.49746  0.33404  1.0000
  N   N5        1.0  0.10468  0.35053  0.65282  1.0000
  N   N6        1.0  0.89532  0.64946  0.34718  1.0000
  N   N7        1.0  0.21630  0.30533  0.74460  1.0000
  N   N8        1.0  0.78370  0.69467  0.25540  1.0000
  N   N9        1.0  0.22078  0.06308  0.54134  1.0000
  N   N10       1.0  0.77922  0.93692  0.45866  1.0000
  N   N11       1.0  0.31641  0.91091  0.67261  1.0000
  N   N12       1.0  0.68359  0.08909  0.32740  1.0000
  O   O1        1.0  0.64532  0.68409  0.95160  1.0000
  O   O2        1.0  0.35468  0.31591  0.04840  1.0000
  O   O3        1.0  0.67498  0.74680  0.77430  1.0000
  O   O4        1.0  0.32502  0.25321  0.22570  1.0000
