data_image0
_chemical_formula_structural       Cd4H40C48N48
_chemical_formula_sum              "Cd4 H40 C48 N48"
_cell_length_a       12.0816
_cell_length_b       12.9274
_cell_length_c       13.1094
_cell_angle_alpha    62.4954
_cell_angle_beta     62.5478
_cell_angle_gamma    62.1497

_space_group_name_H-M_alt    "P 1"
_space_group_IT_number       1

loop_
  _space_group_symop_operation_xyz
  'x, y, z'

loop_
  _atom_site_type_symbol
  _atom_site_label
  _atom_site_symmetry_multiplicity
  _atom_site_fract_x
  _atom_site_fract_y
  _atom_site_fract_z
  _atom_site_occupancy
  Cd  Cd1       1.0  0.93685  0.36910  0.60187  1.0000
  Cd  Cd2       1.0  0.90797  0.13087  0.89805  1.0000
  Cd  Cd3       1.0  0.06315  0.63090  0.39813  1.0000
  Cd  Cd4       1.0  0.09203  0.86913  0.10195  1.0000
  H   H1        1.0  0.58725  0.22041  0.52888  1.0000
  H   H2        1.0  0.33696  0.27939  0.97090  1.0000
  H   H3        1.0  0.41275  0.77959  0.47112  1.0000
  H   H4        1.0  0.66304  0.72061  0.02910  1.0000
  H   H5        1.0  0.46015  0.34644  0.53848  1.0000
  H   H6        1.0  0.34533  0.15346  0.96125  1.0000
  H   H7        1.0  0.53985  0.65356  0.46152  1.0000
  H   H8        1.0  0.65467  0.84654  0.03875  1.0000
  H   H9        1.0  0.15590  0.28892  0.35622  1.0000
  H   H10       1.0  0.80105  0.21101  0.14365  1.0000
  H   H11       1.0  0.84410  0.71108  0.64378  1.0000
  H   H12       1.0  0.19895  0.78899  0.85635  1.0000
  H   H13       1.0  0.18707  0.18164  0.22098  1.0000
  H   H14       1.0  0.58959  0.31820  0.27896  1.0000
  H   H15       1.0  0.81293  0.81836  0.77902  1.0000
  H   H16       1.0  0.41041  0.68180  0.72104  1.0000
  H   H17       1.0  0.99800  0.12440  0.25580  1.0000
  H   H18       1.0  0.37818  0.37522  0.24418  1.0000
  H   H19       1.0  0.00200  0.87560  0.74420  1.0000
  H   H20       1.0  0.62182  0.62478  0.75582  1.0000
  H   H21       1.0  0.78413  0.18945  0.40669  1.0000
  H   H22       1.0  0.38041  0.31026  0.09319  1.0000
  H   H23       1.0  0.21587  0.81055  0.59331  1.0000
  H   H24       1.0  0.61959  0.68974  0.90681  1.0000
  H   H25       1.0  0.38010  0.48567  0.84758  1.0000
  H   H26       1.0  0.71369  0.01427  0.65202  1.0000
  H   H27       1.0  0.61990  0.51433  0.15242  1.0000
  H   H28       1.0  0.28631  0.98573  0.34798  1.0000
  H   H29       1.0  0.13480  0.54054  0.93610  1.0000
  H   H30       1.0  0.61151  0.95942  0.56369  1.0000
  H   H31       1.0  0.86521  0.45946  0.06390  1.0000
  H   H32       1.0  0.38848  0.04058  0.43632  1.0000
  H   H33       1.0  0.01255  0.50346  0.85014  1.0000
  H   H34       1.0  0.36617  0.99655  0.64981  1.0000
  H   H35       1.0  0.98745  0.49654  0.14986  1.0000
  H   H36       1.0  0.63382  0.00345  0.35019  1.0000
  H   H37       1.0  0.14153  0.41801  0.67709  1.0000
  H   H38       1.0  0.23684  0.08196  0.82288  1.0000
  H   H39       1.0  0.85847  0.58199  0.32291  1.0000
  H   H40       1.0  0.76315  0.91804  0.17712  1.0000
  C   C1        1.0  0.07580  0.26570  0.36393  1.0000
  C   C2        1.0  0.70547  0.23424  0.13590  1.0000
  C   C3        1.0  0.92420  0.73430  0.63606  1.0000
  C   C4        1.0  0.29453  0.76576  0.86411  1.0000
  C   C5        1.0  0.09309  0.20540  0.29007  1.0000
  C   C6        1.0  0.58854  0.29442  0.20983  1.0000
  C   C7        1.0  0.90691  0.79460  0.70993  1.0000
  C   C8        1.0  0.41146  0.70558  0.79017  1.0000
  C   C9        1.0  0.98717  0.17590  0.30789  1.0000
  C   C10       1.0  0.47096  0.32376  0.19209  1.0000
  C   C11       1.0  0.01283  0.82411  0.69211  1.0000
  C   C12       1.0  0.52903  0.67624  0.80791  1.0000
  C   C13       1.0  0.86646  0.21242  0.39327  1.0000
  C   C14       1.0  0.47225  0.28723  0.10667  1.0000
  C   C15       1.0  0.13355  0.78757  0.60673  1.0000
  C   C16       1.0  0.52775  0.71277  0.89333  1.0000
  C   C17       1.0  0.85574  0.27672  0.46035  1.0000
  C   C18       1.0  0.59296  0.22306  0.03949  1.0000
  C   C19       1.0  0.14426  0.72328  0.53965  1.0000
  C   C20       1.0  0.40704  0.77694  0.96051  1.0000
  C   C21       1.0  0.73445  0.32492  0.54915  1.0000
  C   C22       1.0  0.60883  0.17491  0.95058  1.0000
  C   C23       1.0  0.26555  0.67508  0.45085  1.0000
  C   C24       1.0  0.39117  0.82509  0.04942  1.0000
  C   C25       1.0  0.53047  0.39343  0.66073  1.0000
  C   C26       1.0  0.58504  0.10633  0.83902  1.0000
  C   C27       1.0  0.46953  0.60657  0.33927  1.0000
  C   C28       1.0  0.41496  0.89367  0.16098  1.0000
  C   C29       1.0  0.38723  0.42652  0.71405  1.0000
  C   C30       1.0  0.52818  0.07333  0.78568  1.0000
  C   C31       1.0  0.61277  0.57348  0.28596  1.0000
  C   C32       1.0  0.47182  0.92667  0.21432  1.0000
  C   C33       1.0  0.32318  0.47324  0.81195  1.0000
  C   C34       1.0  0.60870  0.02665  0.68774  1.0000
  C   C35       1.0  0.67682  0.52676  0.18805  1.0000
  C   C36       1.0  0.39130  0.97336  0.31226  1.0000
  C   C37       1.0  0.18677  0.50319  0.86079  1.0000
  C   C38       1.0  0.55092  0.99674  0.63900  1.0000
  C   C39       1.0  0.81323  0.49680  0.13921  1.0000
  C   C40       1.0  0.44908  0.00326  0.36100  1.0000
  C   C41       1.0  0.11915  0.48249  0.81353  1.0000
  C   C42       1.0  0.41532  0.01744  0.68636  1.0000
  C   C43       1.0  0.88085  0.51751  0.18647  1.0000
  C   C44       1.0  0.58467  0.98256  0.31364  1.0000
  C   C45       1.0  0.19089  0.43496  0.71688  1.0000
  C   C46       1.0  0.34298  0.06501  0.78298  1.0000
  C   C47       1.0  0.80911  0.56504  0.28312  1.0000
  C   C48       1.0  0.65702  0.93499  0.21702  1.0000
  N   N1        1.0  0.73334  0.36784  0.62495  1.0000
  N   N2        1.0  0.72648  0.13205  0.87474  1.0000
  N   N3        1.0  0.26666  0.63215  0.37505  1.0000
  N   N4        1.0  0.27352  0.86795  0.12526  1.0000
  N   N5        1.0  0.60817  0.41139  0.69330  1.0000
  N   N6        1.0  0.71327  0.08843  0.80643  1.0000
  N   N7        1.0  0.39183  0.58861  0.30670  1.0000
  N   N8        1.0  0.28673  0.91158  0.19357  1.0000
  N   N9        1.0  0.60697  0.33866  0.57030  1.0000
  N   N10       1.0  0.51627  0.16110  0.92946  1.0000
  N   N11       1.0  0.39304  0.66134  0.42970  1.0000
  N   N12       1.0  0.48373  0.83890  0.07054  1.0000
  N   N13       1.0  0.56240  0.31423  0.50450  1.0000
  N   N14       1.0  0.38146  0.18557  0.99526  1.0000
  N   N15       1.0  0.43760  0.68577  0.49550  1.0000
  N   N16       1.0  0.61854  0.81443  0.00474  1.0000
  N   N17       1.0  0.96092  0.30000  0.44704  1.0000
  N   N18       1.0  0.70807  0.19988  0.05280  1.0000
  N   N19       1.0  0.03908  0.70000  0.55296  1.0000
  N   N20       1.0  0.29193  0.80012  0.94720  1.0000
  N   N21       1.0  0.32188  0.40913  0.66628  1.0000
  N   N22       1.0  0.39763  0.09084  0.83346  1.0000
  N   N23       1.0  0.67812  0.59087  0.33372  1.0000
  N   N24       1.0  0.60236  0.90916  0.16654  1.0000
  N   N25       1.0  0.13274  0.41305  0.48254  1.0000
  N   N26       1.0  0.02834  0.08701  0.01745  1.0000
  N   N27       1.0  0.86726  0.58695  0.51746  1.0000
  N   N28       1.0  0.97166  0.91299  0.98255  1.0000
  N   N29       1.0  0.24219  0.34153  0.48285  1.0000
  N   N30       1.0  0.06667  0.15848  0.01713  1.0000
  N   N31       1.0  0.75781  0.65847  0.51715  1.0000
  N   N32       1.0  0.93333  0.84152  0.98287  1.0000
  N   N33       1.0  0.34776  0.27247  0.48209  1.0000
  N   N34       1.0  0.10252  0.22747  0.01790  1.0000
  N   N35       1.0  0.65224  0.72753  0.51791  1.0000
  N   N36       1.0  0.89748  0.77252  0.98210  1.0000
  N   N37       1.0  0.89143  0.34607  0.80242  1.0000
  N   N38       1.0  0.04007  0.15401  0.69746  1.0000
  N   N39       1.0  0.10857  0.65393  0.19758  1.0000
  N   N40       1.0  0.95993  0.84599  0.30254  1.0000
  N   N41       1.0  0.84119  0.42412  0.85050  1.0000
  N   N42       1.0  0.11591  0.07594  0.64941  1.0000
  N   N43       1.0  0.15881  0.57588  0.14950  1.0000
  N   N44       1.0  0.88409  0.92406  0.35059  1.0000
  N   N45       1.0  0.79456  0.49897  0.89803  1.0000
  N   N46       1.0  0.19163  0.00106  0.60190  1.0000
  N   N47       1.0  0.20544  0.50103  0.10197  1.0000
  N   N48       1.0  0.80837  0.99894  0.39810  1.0000
