data_image0
_chemical_formula_structural       Sm2H46C80O22
_chemical_formula_sum              "Sm2 H46 C80 O22"
_cell_length_a       12.1363
_cell_length_b       12.0871
_cell_length_c       13.191
_cell_angle_alpha    67.9445
_cell_angle_beta     88.4339
_cell_angle_gamma    76.9982

_space_group_name_H-M_alt    "P 1"
_space_group_IT_number       1

loop_
  _space_group_symop_operation_xyz
  'x, y, z'

loop_
  _atom_site_type_symbol
  _atom_site_label
  _atom_site_symmetry_multiplicity
  _atom_site_fract_x
  _atom_site_fract_y
  _atom_site_fract_z
  _atom_site_occupancy
  Sm  Sm1       1.0  0.60038  0.30636  0.40723  1.0000
  Sm  Sm2       1.0  0.39962  0.69364  0.59277  1.0000
  H   H1        1.0  0.61581  0.34563  0.05355  1.0000
  H   H2        1.0  0.38419  0.65437  0.94645  1.0000
  H   H3        1.0  0.48651  0.29790  0.93827  1.0000
  H   H4        1.0  0.51349  0.70210  0.06173  1.0000
  H   H5        1.0  0.33650  0.42439  0.24504  1.0000
  H   H6        1.0  0.66350  0.57561  0.75496  1.0000
  H   H7        1.0  0.98078  0.39186  0.18487  1.0000
  H   H8        1.0  0.01922  0.60814  0.81513  1.0000
  H   H9        1.0  0.88665  0.29597  0.92036  1.0000
  H   H10       1.0  0.11335  0.70403  0.07964  1.0000
  H   H11       1.0  0.08552  0.27310  0.86502  1.0000
  H   H12       1.0  0.91448  0.72689  0.13498  1.0000
  H   H13       1.0  0.35002  0.07501  0.99414  1.0000
  H   H14       1.0  0.64998  0.92499  0.00586  1.0000
  H   H15       1.0  0.41742  0.98661  0.85561  1.0000
  H   H16       1.0  0.58258  0.01339  0.14439  1.0000
  H   H17       1.0  0.41203  0.12663  0.65702  1.0000
  H   H18       1.0  0.58797  0.87337  0.34298  1.0000
  H   H19       1.0  0.34397  0.35110  0.60538  1.0000
  H   H20       1.0  0.65603  0.64890  0.39462  1.0000
  H   H21       1.0  0.78405  0.99742  0.26221  1.0000
  H   H22       1.0  0.21595  0.00258  0.73779  1.0000
  H   H23       1.0  0.98585  0.93385  0.22683  1.0000
  H   H24       1.0  0.01415  0.06614  0.77317  1.0000
  H   H25       1.0  0.87662  0.22111  0.42218  1.0000
  H   H26       1.0  0.12338  0.77889  0.57782  1.0000
  H   H27       1.0  0.23687  0.23506  0.47685  1.0000
  H   H28       1.0  0.76313  0.76495  0.52315  1.0000
  H   H29       1.0  0.38897  0.99879  0.24400  1.0000
  H   H30       1.0  0.61103  0.00121  0.75600  1.0000
  H   H31       1.0  0.51844  0.08102  0.32510  1.0000
  H   H32       1.0  0.48156  0.91898  0.67490  1.0000
  H   H33       1.0  0.09785  0.07697  0.06890  1.0000
  H   H34       1.0  0.90215  0.92304  0.93110  1.0000
  H   H35       1.0  0.16093  0.96069  0.94898  1.0000
  H   H36       1.0  0.83907  0.03931  0.05102  1.0000
  H   H37       1.0  0.30137  0.76124  0.02208  1.0000
  H   H38       1.0  0.69862  0.23876  0.97792  1.0000
  H   H39       1.0  0.37581  0.67486  0.21770  1.0000
  H   H40       1.0  0.62419  0.32514  0.78230  1.0000
  H   H41       1.0  0.79856  0.39084  0.14055  1.0000
  H   H42       1.0  0.20144  0.60916  0.85945  1.0000
  H   H43       1.0  0.37251  0.43502  0.44791  1.0000
  H   H44       1.0  0.62749  0.56498  0.55209  1.0000
  H   H45       1.0  0.42370  0.55216  0.39846  1.0000
  H   H46       1.0  0.57630  0.44784  0.60154  1.0000
  C   C1        1.0  0.48606  0.38487  0.15856  1.0000
  C   C2        1.0  0.51394  0.61513  0.84144  1.0000
  C   C3        1.0  0.52647  0.35022  0.06836  1.0000
  C   C4        1.0  0.47353  0.64978  0.93164  1.0000
  C   C5        1.0  0.45560  0.32420  0.00621  1.0000
  C   C6        1.0  0.54440  0.67580  0.99379  1.0000
  C   C7        1.0  0.33860  0.33187  0.02727  1.0000
  C   C8        1.0  0.66140  0.66813  0.97273  1.0000
  C   C9        1.0  0.29912  0.36985  0.11512  1.0000
  C   C10       1.0  0.70088  0.63015  0.88488  1.0000
  C   C11       1.0  0.36901  0.39747  0.17798  1.0000
  C   C12       1.0  0.63099  0.60253  0.82202  1.0000
  C   C13       1.0  0.26205  0.30788  0.96514  1.0000
  C   C14       1.0  0.73795  0.69212  0.03487  1.0000
  C   C15       1.0  0.14755  0.31727  0.99374  1.0000
  C   C16       1.0  0.85245  0.68272  0.00626  1.0000
  C   C17       1.0  0.11356  0.35219  0.08337  1.0000
  C   C18       1.0  0.88644  0.64781  0.91663  1.0000
  C   C19       1.0  0.00342  0.36362  0.11641  1.0000
  C   C20       1.0  0.99658  0.63638  0.88359  1.0000
  C   C21       1.0  0.92141  0.34249  0.05753  1.0000
  C   C22       1.0  0.07859  0.65751  0.94247  1.0000
  C   C23       1.0  0.95214  0.30974  0.96597  1.0000
  C   C24       1.0  0.04787  0.69025  0.03403  1.0000
  C   C25       1.0  0.06212  0.29748  0.93559  1.0000
  C   C26       1.0  0.93787  0.70252  0.06441  1.0000
  C   C27       1.0  0.30304  0.26170  0.87755  1.0000
  C   C28       1.0  0.69696  0.73830  0.12245  1.0000
  C   C29       1.0  0.34672  0.13516  0.90811  1.0000
  C   C30       1.0  0.65329  0.86484  0.09189  1.0000
  C   C31       1.0  0.38511  0.08564  0.82986  1.0000
  C   C32       1.0  0.61489  0.91436  0.17014  1.0000
  C   C33       1.0  0.38218  0.16267  0.71969  1.0000
  C   C34       1.0  0.61782  0.83733  0.28031  1.0000
  C   C35       1.0  0.34286  0.28869  0.68983  1.0000
  C   C36       1.0  0.65714  0.71131  0.31017  1.0000
  C   C37       1.0  0.30293  0.33979  0.76681  1.0000
  C   C38       1.0  0.69707  0.66021  0.23319  1.0000
  C   C39       1.0  0.26541  0.47688  0.73195  1.0000
  C   C40       1.0  0.73459  0.52312  0.26805  1.0000
  C   C41       1.0  0.38774  0.16258  0.40785  1.0000
  C   C42       1.0  0.61226  0.83743  0.59215  1.0000
  C   C43       1.0  0.81336  0.11825  0.34077  1.0000
  C   C44       1.0  0.18664  0.88175  0.65923  1.0000
  C   C45       1.0  0.84912  0.03291  0.28716  1.0000
  C   C46       1.0  0.15088  0.96709  0.71285  1.0000
  C   C47       1.0  0.96049  0.99821  0.26773  1.0000
  C   C48       1.0  0.03951  0.00178  0.73227  1.0000
  C   C49       1.0  0.04648  0.04429  0.29988  1.0000
  C   C50       1.0  0.95352  0.95571  0.70012  1.0000
  C   C51       1.0  0.01047  0.12286  0.35872  1.0000
  C   C52       1.0  0.98953  0.87713  0.64128  1.0000
  C   C53       1.0  0.89883  0.16014  0.37785  1.0000
  C   C54       1.0  0.10117  0.83986  0.62216  1.0000
  C   C55       1.0  0.16128  0.01727  0.27783  1.0000
  C   C56       1.0  0.83872  0.98273  0.72217  1.0000
  C   C57       1.0  0.23879  0.06810  0.31471  1.0000
  C   C58       1.0  0.76121  0.93190  0.68529  1.0000
  C   C59       1.0  0.19961  0.13813  0.38015  1.0000
  C   C60       1.0  0.80039  0.86187  0.61985  1.0000
  C   C61       1.0  0.27107  0.18290  0.42676  1.0000
  C   C62       1.0  0.72893  0.81711  0.57324  1.0000
  C   C63       1.0  0.35634  0.04994  0.29540  1.0000
  C   C64       1.0  0.64366  0.95006  0.70460  1.0000
  C   C65       1.0  0.42849  0.09429  0.34027  1.0000
  C   C66       1.0  0.57151  0.90571  0.65973  1.0000
  C   C67       1.0  0.19912  0.94160  0.21132  1.0000
  C   C68       1.0  0.80088  0.05840  0.78868  1.0000
  C   C69       1.0  0.15795  0.98821  0.10152  1.0000
  C   C70       1.0  0.84205  0.01179  0.89848  1.0000
  C   C71       1.0  0.19429  0.92352  0.03403  1.0000
  C   C72       1.0  0.80571  0.07648  0.96597  1.0000
  C   C73       1.0  0.27385  0.81153  0.07496  1.0000
  C   C74       1.0  0.72615  0.18847  0.92504  1.0000
  C   C75       1.0  0.31526  0.76341  0.18409  1.0000
  C   C76       1.0  0.68474  0.23660  0.81591  1.0000
  C   C77       1.0  0.27724  0.82649  0.25315  1.0000
  C   C78       1.0  0.72276  0.17351  0.74685  1.0000
  C   C79       1.0  0.31498  0.76913  0.37179  1.0000
  C   C80       1.0  0.68502  0.23087  0.62821  1.0000
  O   O1        1.0  0.45606  0.20722  0.44812  1.0000
  O   O2        1.0  0.54394  0.79279  0.55188  1.0000
  O   O3        1.0  0.55634  0.40170  0.22002  1.0000
  O   O4        1.0  0.44366  0.59830  0.77998  1.0000
  O   O5        1.0  0.70702  0.15361  0.35425  1.0000
  O   O6        1.0  0.29298  0.84639  0.64575  1.0000
  O   O7        1.0  0.18860  0.37835  0.14122  1.0000
  O   O8        1.0  0.81140  0.62165  0.85878  1.0000
  O   O9        1.0  0.81278  0.35392  0.08263  1.0000
  O   O10       1.0  0.18722  0.64608  0.91737  1.0000
  O   O11       1.0  0.20747  0.51788  0.79613  1.0000
  O   O12       1.0  0.79253  0.48212  0.20386  1.0000
  O   O13       1.0  0.29570  0.54286  0.63890  1.0000
  O   O14       1.0  0.70430  0.45714  0.36110  1.0000
  O   O15       1.0  0.08753  0.16525  0.39921  1.0000
  O   O16       1.0  0.91247  0.83475  0.60079  1.0000
  O   O17       1.0  0.25617  0.80508  0.43935  1.0000
  O   O18       1.0  0.74383  0.19492  0.56065  1.0000
  O   O19       1.0  0.40752  0.68484  0.40515  1.0000
  O   O20       1.0  0.59248  0.31517  0.59485  1.0000
  O   O21       1.0  0.42686  0.46892  0.39705  1.0000
  O   O22       1.0  0.57313  0.53109  0.60295  1.0000
