data_image0
_chemical_formula_structural       Tb2Ag6H36C42O48
_chemical_formula_sum              "Tb2 Ag6 H36 C42 O48"
_cell_length_a       8.82578
_cell_length_b       10.5878
_cell_length_c       16.5767
_cell_angle_alpha    100.367
_cell_angle_beta     103.615
_cell_angle_gamma    96.9112

_space_group_name_H-M_alt    "P 1"
_space_group_IT_number       1

loop_
  _space_group_symop_operation_xyz
  'x, y, z'

loop_
  _atom_site_type_symbol
  _atom_site_label
  _atom_site_symmetry_multiplicity
  _atom_site_fract_x
  _atom_site_fract_y
  _atom_site_fract_z
  _atom_site_occupancy
  Tb  Tb1       1.0  0.33522  0.81405  0.57989  1.0000
  Tb  Tb2       1.0  0.66478  0.18595  0.42011  1.0000
  Ag  Ag1       1.0  0.39767  0.08660  0.95521  1.0000
  Ag  Ag2       1.0  0.60233  0.91340  0.04479  1.0000
  Ag  Ag3       1.0  0.60647  0.29824  0.06957  1.0000
  Ag  Ag4       1.0  0.39353  0.70177  0.93042  1.0000
  Ag  Ag5       1.0  0.38883  0.40139  0.94072  1.0000
  Ag  Ag6       1.0  0.61118  0.59861  0.05928  1.0000
  H   H1        1.0  0.03144  0.25777  0.94528  1.0000
  H   H2        1.0  0.96857  0.74222  0.05472  1.0000
  H   H3        1.0  0.06070  0.05333  0.69781  1.0000
  H   H4        1.0  0.93930  0.94667  0.30219  1.0000
  H   H5        1.0  0.94765  0.62581  0.31947  1.0000
  H   H6        1.0  0.05236  0.37418  0.68053  1.0000
  H   H7        1.0  0.96471  0.42015  0.06942  1.0000
  H   H8        1.0  0.03529  0.57985  0.93058  1.0000
  H   H9        1.0  0.10992  0.72070  0.69937  1.0000
  H   H10       1.0  0.89007  0.27931  0.30063  1.0000
  H   H11       1.0  0.03483  0.91727  0.93719  1.0000
  H   H12       1.0  0.96517  0.08274  0.06281  1.0000
  H   H13       1.0  0.41759  0.59007  0.46438  1.0000
  H   H14       1.0  0.58241  0.40993  0.53562  1.0000
  H   H15       1.0  0.53963  0.62137  0.55584  1.0000
  H   H16       1.0  0.46036  0.37863  0.44416  1.0000
  H   H17       1.0  0.30301  0.04962  0.50266  1.0000
  H   H18       1.0  0.69699  0.95038  0.49734  1.0000
  H   H19       1.0  0.46556  0.08714  0.57812  1.0000
  H   H20       1.0  0.53444  0.91286  0.42188  1.0000
  H   H21       1.0  0.35827  0.61256  0.67909  1.0000
  H   H22       1.0  0.64173  0.38744  0.32091  1.0000
  H   H23       1.0  0.47714  0.72164  0.75294  1.0000
  H   H24       1.0  0.52285  0.27836  0.24706  1.0000
  H   H25       1.0  0.02260  0.81490  0.48735  1.0000
  H   H26       1.0  0.97739  0.18510  0.51264  1.0000
  H   H27       1.0  0.97881  0.88269  0.57028  1.0000
  H   H28       1.0  0.02118  0.11731  0.42971  1.0000
  H   H29       1.0  0.31154  0.92742  0.76039  1.0000
  H   H30       1.0  0.68846  0.07258  0.23961  1.0000
  H   H31       1.0  0.39821  0.03975  0.72898  1.0000
  H   H32       1.0  0.60178  0.96025  0.27102  1.0000
  H   H33       1.0  0.06768  0.60006  0.57080  1.0000
  H   H34       1.0  0.93232  0.39994  0.42920  1.0000
  H   H35       1.0  0.16431  0.53875  0.50739  1.0000
  H   H36       1.0  0.83569  0.46125  0.49261  1.0000
  C   C1        1.0  0.82574  0.13485  0.86187  1.0000
  C   C2        1.0  0.17426  0.86514  0.13813  1.0000
  C   C3        1.0  0.98089  0.19091  0.88399  1.0000
  C   C4        1.0  0.01911  0.80909  0.11601  1.0000
  C   C5        1.0  0.07812  0.16247  0.82611  1.0000
  C   C6        1.0  0.92187  0.83753  0.17389  1.0000
  C   C7        1.0  0.99589  0.07655  0.74531  1.0000
  C   C8        1.0  0.00411  0.92345  0.25469  1.0000
  C   C9        1.0  0.84044  0.02508  0.72886  1.0000
  C   C10       1.0  0.15956  0.97492  0.27114  1.0000
  C   C11       1.0  0.71230  0.15729  0.91606  1.0000
  C   C12       1.0  0.28770  0.84271  0.08395  1.0000
  C   C13       1.0  0.74166  0.93788  0.64611  1.0000
  C   C14       1.0  0.25834  0.06212  0.35389  1.0000
  C   C15       1.0  0.16380  0.65281  0.28512  1.0000
  C   C16       1.0  0.83621  0.34718  0.71488  1.0000
  C   C17       1.0  0.00856  0.60131  0.27035  1.0000
  C   C18       1.0  0.99144  0.39869  0.72965  1.0000
  C   C19       1.0  0.92398  0.51513  0.19039  1.0000
  C   C20       1.0  0.07601  0.48487  0.80961  1.0000
  C   C21       1.0  0.01806  0.48609  0.13085  1.0000
  C   C22       1.0  0.98194  0.51391  0.86915  1.0000
  C   C23       1.0  0.17377  0.54082  0.15145  1.0000
  C   C24       1.0  0.82623  0.45918  0.84855  1.0000
  C   C25       1.0  0.26467  0.74730  0.36509  1.0000
  C   C26       1.0  0.73533  0.25269  0.63491  1.0000
  C   C27       1.0  0.28578  0.51931  0.09567  1.0000
  C   C28       1.0  0.71422  0.48069  0.90433  1.0000
  C   C29       1.0  0.87898  0.68996  0.71621  1.0000
  C   C30       1.0  0.12102  0.31005  0.28380  1.0000
  C   C31       1.0  0.03430  0.74515  0.74075  1.0000
  C   C32       1.0  0.96570  0.25486  0.25926  1.0000
  C   C33       1.0  0.10162  0.83330  0.82191  1.0000
  C   C34       1.0  0.89838  0.16671  0.17809  1.0000
  C   C35       1.0  0.99411  0.85366  0.87433  1.0000
  C   C36       1.0  0.00589  0.14634  0.12566  1.0000
  C   C37       1.0  0.83971  0.79530  0.84462  1.0000
  C   C38       1.0  0.16028  0.20471  0.15538  1.0000
  C   C39       1.0  0.71757  0.81037  0.89387  1.0000
  C   C40       1.0  0.28243  0.18963  0.10613  1.0000
  C   C41       1.0  0.79962  0.59494  0.63260  1.0000
  C   C42       1.0  0.20038  0.40506  0.36741  1.0000
  O   O1        1.0  0.57438  0.09106  0.88515  1.0000
  O   O2        1.0  0.42562  0.90894  0.11485  1.0000
  O   O3        1.0  0.76783  0.23907  0.98594  1.0000
  O   O4        1.0  0.23217  0.76093  0.01406  1.0000
  O   O5        1.0  0.75572  0.05085  0.78647  1.0000
  O   O6        1.0  0.24428  0.94916  0.21353  1.0000
  O   O7        1.0  0.22367  0.20822  0.84265  1.0000
  O   O8        1.0  0.77634  0.79179  0.15736  1.0000
  O   O9        1.0  0.60030  0.89582  0.64313  1.0000
  O   O10       1.0  0.39970  0.10418  0.35687  1.0000
  O   O11       1.0  0.80884  0.91658  0.58658  1.0000
  O   O12       1.0  0.19116  0.08343  0.41342  1.0000
  O   O13       1.0  0.39174  0.80604  0.35906  1.0000
  O   O14       1.0  0.60825  0.19395  0.64094  1.0000
  O   O15       1.0  0.20813  0.75681  0.42975  1.0000
  O   O16       1.0  0.79187  0.24318  0.57025  1.0000
  O   O17       1.0  0.24580  0.62475  0.22652  1.0000
  O   O18       1.0  0.75419  0.37525  0.77348  1.0000
  O   O19       1.0  0.77844  0.46921  0.17596  1.0000
  O   O20       1.0  0.22156  0.53079  0.82404  1.0000
  O   O21       1.0  0.42153  0.58827  0.12430  1.0000
  O   O22       1.0  0.57847  0.41172  0.87570  1.0000
  O   O23       1.0  0.22953  0.43462  0.02655  1.0000
  O   O24       1.0  0.77047  0.56538  0.97344  1.0000
  O   O25       1.0  0.88437  0.57489  0.58141  1.0000
  O   O26       1.0  0.11564  0.42511  0.41859  1.0000
  O   O27       1.0  0.65713  0.54318  0.62108  1.0000
  O   O28       1.0  0.34288  0.45683  0.37892  1.0000
  O   O29       1.0  0.78077  0.71487  0.76674  1.0000
  O   O30       1.0  0.21923  0.28513  0.23326  1.0000
  O   O31       1.0  0.24555  0.88840  0.84435  1.0000
  O   O32       1.0  0.75446  0.11160  0.15565  1.0000
  O   O33       1.0  0.57992  0.74571  0.85894  1.0000
  O   O34       1.0  0.42008  0.25429  0.14106  1.0000
  O   O35       1.0  0.76757  0.88586  0.96665  1.0000
  O   O36       1.0  0.23242  0.11414  0.03335  1.0000
  O   O37       1.0  0.46754  0.66067  0.51583  1.0000
  O   O38       1.0  0.53246  0.33933  0.48417  1.0000
  O   O39       1.0  0.36992  0.01800  0.54942  1.0000
  O   O40       1.0  0.63008  0.98199  0.45058  1.0000
  O   O41       1.0  0.39727  0.70588  0.69733  1.0000
  O   O42       1.0  0.60273  0.29412  0.30267  1.0000
  O   O43       1.0  0.06667  0.85242  0.54779  1.0000
  O   O44       1.0  0.93332  0.14757  0.45221  1.0000
  O   O45       1.0  0.32109  0.95934  0.70844  1.0000
  O   O46       1.0  0.67892  0.04066  0.29156  1.0000
  O   O47       1.0  0.17516  0.60322  0.56147  1.0000
  O   O48       1.0  0.82485  0.39678  0.43853  1.0000
