data_image0
_chemical_formula_structural       Ag4H20C28O28
_chemical_formula_sum              "Ag4 H20 C28 O28"
_cell_length_a       3.56015
_cell_length_b       14.9291
_cell_length_c       15.7027
_cell_angle_alpha    106.204
_cell_angle_beta     90.0004
_cell_angle_gamma    89.9994

_space_group_name_H-M_alt    "P 1"
_space_group_IT_number       1

loop_
  _space_group_symop_operation_xyz
  'x, y, z'

loop_
  _atom_site_type_symbol
  _atom_site_label
  _atom_site_symmetry_multiplicity
  _atom_site_fract_x
  _atom_site_fract_y
  _atom_site_fract_z
  _atom_site_occupancy
  Ag  Ag1       1.0  0.00089  0.40071  0.95571  1.0000
  Ag  Ag2       1.0  0.50088  0.09929  0.04429  1.0000
  Ag  Ag3       1.0  0.99911  0.59929  0.04429  1.0000
  Ag  Ag4       1.0  0.49914  0.90071  0.95571  1.0000
  H   H1        1.0  0.43080  0.81563  0.58426  1.0000
  H   H2        1.0  0.93080  0.68438  0.41574  1.0000
  H   H3        1.0  0.56921  0.18438  0.41574  1.0000
  H   H4        1.0  0.06920  0.31562  0.58426  1.0000
  H   H5        1.0  0.58460  0.28534  0.82398  1.0000
  H   H6        1.0  0.08460  0.21465  0.17602  1.0000
  H   H7        1.0  0.41540  0.71465  0.17602  1.0000
  H   H8        1.0  0.91541  0.78535  0.82398  1.0000
  H   H9        1.0  0.55213  0.22431  0.89111  1.0000
  H   H10       1.0  0.05213  0.27569  0.10889  1.0000
  H   H11       1.0  0.44787  0.77569  0.10889  1.0000
  H   H12       1.0  0.94787  0.72431  0.89111  1.0000
  H   H13       1.0  0.19785  0.57756  0.54584  1.0000
  H   H14       1.0  0.69784  0.92244  0.45416  1.0000
  H   H15       1.0  0.80216  0.42244  0.45416  1.0000
  H   H16       1.0  0.30216  0.07756  0.54585  1.0000
  H   H17       1.0  0.31713  0.41125  0.73408  1.0000
  H   H18       1.0  0.81713  0.08875  0.26592  1.0000
  H   H19       1.0  0.68286  0.58875  0.26592  1.0000
  H   H20       1.0  0.18287  0.91125  0.73408  1.0000
  C   C1        1.0  0.53887  0.73360  0.66044  1.0000
  C   C2        1.0  0.03885  0.76641  0.33956  1.0000
  C   C3        1.0  0.46115  0.26640  0.33956  1.0000
  C   C4        1.0  0.96116  0.23359  0.66043  1.0000
  C   C5        1.0  0.45747  0.63819  0.67028  1.0000
  C   C6        1.0  0.95747  0.86181  0.32972  1.0000
  C   C7        1.0  0.54254  0.36181  0.32972  1.0000
  C   C8        1.0  0.04252  0.13819  0.67028  1.0000
  C   C9        1.0  0.28820  0.56709  0.60884  1.0000
  C   C10       1.0  0.78820  0.93291  0.39116  1.0000
  C   C11       1.0  0.71180  0.43291  0.39116  1.0000
  C   C12       1.0  0.21180  0.06709  0.60884  1.0000
  C   C13       1.0  0.22935  0.47837  0.62715  1.0000
  C   C14       1.0  0.72935  0.02163  0.37285  1.0000
  C   C15       1.0  0.77064  0.52163  0.37285  1.0000
  C   C16       1.0  0.27064  0.97837  0.62715  1.0000
  C   C17       1.0  0.34976  0.47434  0.71335  1.0000
  C   C18       1.0  0.84977  0.02567  0.28665  1.0000
  C   C19       1.0  0.65024  0.52567  0.28665  1.0000
  C   C20       1.0  0.15024  0.97433  0.71335  1.0000
  C   C21       1.0  0.51842  0.54912  0.77062  1.0000
  C   C22       1.0  0.01841  0.95088  0.22938  1.0000
  C   C23       1.0  0.48157  0.45088  0.22938  1.0000
  C   C24       1.0  0.98158  0.04912  0.77062  1.0000
  C   C25       1.0  0.66703  0.54738  0.85993  1.0000
  C   C26       1.0  0.16700  0.95263  0.14007  1.0000
  C   C27       1.0  0.33296  0.45262  0.14007  1.0000
  C   C28       1.0  0.83300  0.04737  0.85993  1.0000
  O   O1        1.0  0.71751  0.79144  0.71784  1.0000
  O   O2        1.0  0.21751  0.70856  0.28216  1.0000
  O   O3        1.0  0.28250  0.20856  0.28216  1.0000
  O   O4        1.0  0.78249  0.29145  0.71785  1.0000
  O   O5        1.0  0.40092  0.74613  0.58733  1.0000
  O   O6        1.0  0.90092  0.75388  0.41267  1.0000
  O   O7        1.0  0.59909  0.25388  0.41267  1.0000
  O   O8        1.0  0.09908  0.24613  0.58734  1.0000
  O   O9        1.0  0.07756  0.41018  0.57059  1.0000
  O   O10       1.0  0.57756  0.08983  0.42941  1.0000
  O   O11       1.0  0.92243  0.58983  0.42941  1.0000
  O   O12       1.0  0.42245  0.91018  0.57059  1.0000
  O   O13       1.0  0.57556  0.63044  0.75013  1.0000
  O   O14       1.0  0.07555  0.86956  0.24987  1.0000
  O   O15       1.0  0.42445  0.36956  0.24987  1.0000
  O   O16       1.0  0.92444  0.13044  0.75013  1.0000
  O   O17       1.0  0.60052  0.47273  0.87987  1.0000
  O   O18       1.0  0.10051  0.02727  0.12013  1.0000
  O   O19       1.0  0.39946  0.52727  0.12013  1.0000
  O   O20       1.0  0.89950  0.97272  0.87987  1.0000
  O   O21       1.0  0.85108  0.61734  0.90548  1.0000
  O   O22       1.0  0.35108  0.88266  0.09452  1.0000
  O   O23       1.0  0.14891  0.38266  0.09452  1.0000
  O   O24       1.0  0.64893  0.11734  0.90548  1.0000
  O   O25       1.0  0.49957  0.28729  0.88424  1.0000
  O   O26       1.0  0.99956  0.21270  0.11576  1.0000
  O   O27       1.0  0.50043  0.71270  0.11576  1.0000
  O   O28       1.0  0.00044  0.78730  0.88424  1.0000
