data_image0
_chemical_formula_structural       Cu4H24C25I4N4O4
_chemical_formula_sum              "Cu4 H24 C25 I4 N4 O4"
_cell_length_a       9.92147
_cell_length_b       10.606
_cell_length_c       10.6059
_cell_angle_alpha    77.3629
_cell_angle_beta     62.1127
_cell_angle_gamma    62.1126

_space_group_name_H-M_alt    "P 1"
_space_group_IT_number       1

loop_
  _space_group_symop_operation_xyz
  'x, y, z'

loop_
  _atom_site_type_symbol
  _atom_site_label
  _atom_site_symmetry_multiplicity
  _atom_site_fract_x
  _atom_site_fract_y
  _atom_site_fract_z
  _atom_site_occupancy
  Cu  Cu1       1.0  0.41048  0.08085  0.89494  1.0000
  Cu  Cu2       1.0  0.38628  0.91914  0.10506  1.0000
  Cu  Cu3       1.0  0.69458  0.89494  0.91915  1.0000
  Cu  Cu4       1.0  0.50866  0.10506  0.08085  1.0000
  H   H1        1.0  0.81011  0.52203  0.66319  1.0000
  H   H2        1.0  0.99534  0.47797  0.33681  1.0000
  H   H3        1.0  0.52670  0.66319  0.47797  1.0000
  H   H4        1.0  0.66786  0.33681  0.52203  1.0000
  H   H5        1.0  0.73169  0.38939  0.70232  1.0000
  H   H6        1.0  0.82341  0.61061  0.29767  1.0000
  H   H7        1.0  0.56599  0.70232  0.61061  1.0000
  H   H8        1.0  0.87893  0.29768  0.38939  1.0000
  H   H9        1.0  0.86497  0.36772  0.83945  1.0000
  H   H10       1.0  0.07214  0.63228  0.16055  1.0000
  H   H11       1.0  0.29558  0.83945  0.63227  1.0000
  H   H12       1.0  0.76731  0.16055  0.36772  1.0000
  H   H13       1.0  0.05035  0.25732  0.96432  1.0000
  H   H14       1.0  0.27199  0.74268  0.03568  1.0000
  H   H15       1.0  0.98533  0.96432  0.74268  1.0000
  H   H16       1.0  0.69233  0.03568  0.25732  1.0000
  H   H17       1.0  0.46764  0.05419  0.59799  1.0000
  H   H18       1.0  0.11982  0.94580  0.40202  1.0000
  H   H19       1.0  0.93438  0.59799  0.94580  1.0000
  H   H20       1.0  0.47817  0.40202  0.05420  1.0000
  H   H21       1.0  0.29897  0.15566  0.45375  1.0000
  H   H22       1.0  0.90837  0.84435  0.54626  1.0000
  H   H23       1.0  0.24728  0.45375  0.84434  1.0000
  H   H24       1.0  0.54537  0.54626  0.15566  1.0000
  C   C1        1.0  0.75000  0.50000  0.50000  1.0000
  C   C2        1.0  0.81175  0.43736  0.61749  1.0000
  C   C3        1.0  0.86660  0.56264  0.38251  1.0000
  C   C4        1.0  0.57076  0.61749  0.56264  1.0000
  C   C5        1.0  0.75089  0.38251  0.43736  1.0000
  C   C6        1.0  0.06858  0.27268  0.63406  1.0000
  C   C7        1.0  0.97532  0.72732  0.36594  1.0000
  C   C8        1.0  0.29736  0.63406  0.72732  1.0000
  C   C9        1.0  0.65875  0.36594  0.27268  1.0000
  C   C10       1.0  0.99764  0.30007  0.78011  1.0000
  C   C11       1.0  0.07782  0.69993  0.21989  1.0000
  C   C12       1.0  0.22225  0.78011  0.69993  1.0000
  C   C13       1.0  0.70229  0.21989  0.30007  1.0000
  C   C14       1.0  0.10131  0.23803  0.85065  1.0000
  C   C15       1.0  0.19000  0.76197  0.14935  1.0000
  C   C16       1.0  0.04803  0.85066  0.76196  1.0000
  C   C17       1.0  0.66065  0.14935  0.23804  1.0000
  C   C18       1.0  0.33356  0.12476  0.64663  1.0000
  C   C19       1.0  0.10494  0.87523  0.35337  1.0000
  C   C20       1.0  0.01982  0.64663  0.87524  1.0000
  C   C21       1.0  0.54168  0.35338  0.12477  1.0000
  C   C22       1.0  0.24049  0.18062  0.56680  1.0000
  C   C23       1.0  0.98791  0.81938  0.43320  1.0000
  C   C24       1.0  0.19271  0.56680  0.81938  1.0000
  C   C25       1.0  0.57889  0.43320  0.18062  1.0000
  I   I1        1.0  0.18717  0.21350  0.15310  1.0000
  I   I2        1.0  0.55378  0.78650  0.84689  1.0000
  I   I3        1.0  0.65973  0.15311  0.78650  1.0000
  I   I4        1.0  0.59934  0.84689  0.21350  1.0000
  N   N1        1.0  0.26719  0.15332  0.78694  1.0000
  N   N2        1.0  0.20745  0.84667  0.21306  1.0000
  N   N3        1.0  0.94587  0.78694  0.84668  1.0000
  N   N4        1.0  0.57948  0.21306  0.15333  1.0000
  O   O1        1.0  0.98230  0.32961  0.55274  1.0000
  O   O2        1.0  0.86464  0.67040  0.44726  1.0000
  O   O3        1.0  0.46496  0.55274  0.67039  1.0000
  O   O4        1.0  0.68810  0.44726  0.32961  1.0000
