data_image0
_chemical_formula_structural       Cu6H22C10S2N10Cl6
_chemical_formula_sum              "Cu6 H22 C10 S2 N10 Cl6"
_cell_length_a       6.59058
_cell_length_b       10.5963
_cell_length_c       10.5963
_cell_angle_alpha    113.067
_cell_angle_beta     98.0374
_cell_angle_gamma    98.0378

_space_group_name_H-M_alt    "P 1"
_space_group_IT_number       1

loop_
  _space_group_symop_operation_xyz
  'x, y, z'

loop_
  _atom_site_type_symbol
  _atom_site_label
  _atom_site_symmetry_multiplicity
  _atom_site_fract_x
  _atom_site_fract_y
  _atom_site_fract_z
  _atom_site_occupancy
  Cu  Cu1       1.0  0.33684  0.60045  0.28776  1.0000
  Cu  Cu2       1.0  0.83684  0.28776  0.60045  1.0000
  Cu  Cu3       1.0  0.53043  0.46491  0.48775  1.0000
  Cu  Cu4       1.0  0.03043  0.48775  0.46491  1.0000
  Cu  Cu5       1.0  0.43419  0.18121  0.13941  1.0000
  Cu  Cu6       1.0  0.93420  0.13940  0.18121  1.0000
  H   H1        1.0  0.41614  0.41424  0.99546  1.0000
  H   H2        1.0  0.91614  0.99546  0.41425  1.0000
  H   H3        1.0  0.58573  0.32476  0.89390  1.0000
  H   H4        1.0  0.08572  0.89390  0.32476  1.0000
  H   H5        1.0  0.74487  0.55197  0.88150  1.0000
  H   H6        1.0  0.24487  0.88150  0.55197  1.0000
  H   H7        1.0  0.48351  0.47252  0.78655  1.0000
  H   H8        1.0  0.98351  0.78655  0.47252  1.0000
  H   H9        1.0  0.20390  0.55880  0.94933  1.0000
  H   H10       1.0  0.70390  0.94933  0.55880  1.0000
  H   H11       1.0  0.23857  0.62119  0.81761  1.0000
  H   H12       1.0  0.73857  0.81761  0.62119  1.0000
  H   H13       1.0  0.24467  0.74366  0.99435  1.0000
  H   H14       1.0  0.74467  0.99435  0.74366  1.0000
  H   H15       1.0  0.79575  0.79321  0.97795  1.0000
  H   H16       1.0  0.29575  0.97795  0.79321  1.0000
  H   H17       1.0  0.57233  0.87228  0.99877  1.0000
  H   H18       1.0  0.07233  0.99877  0.87228  1.0000
  H   H19       1.0  0.58941  0.74994  0.82795  1.0000
  H   H20       1.0  0.08941  0.82795  0.74994  1.0000
  H   H21       1.0  0.55220  0.69172  0.07713  1.0000
  H   H22       1.0  0.05220  0.07713  0.69172  1.0000
  C   C1        1.0  0.71351  0.46871  0.21603  1.0000
  C   C2        1.0  0.21351  0.21603  0.46871  1.0000
  C   C3        1.0  0.56780  0.42862  0.96567  1.0000
  C   C4        1.0  0.06780  0.96567  0.42862  1.0000
  C   C5        1.0  0.58345  0.52565  0.89229  1.0000
  C   C6        1.0  0.08345  0.89229  0.52565  1.0000
  C   C7        1.0  0.28346  0.64457  0.92925  1.0000
  C   C8        1.0  0.78346  0.92926  0.64457  1.0000
  C   C9        1.0  0.62654  0.77729  0.94083  1.0000
  C   C10       1.0  0.12654  0.94083  0.77729  1.0000
  S   S1        1.0  0.48459  0.40997  0.25728  1.0000
  S   S2        1.0  0.98460  0.25728  0.40997  1.0000
  N   N1        1.0  0.73005  0.47856  0.09346  1.0000
  N   N2        1.0  0.23005  0.09345  0.47856  1.0000
  N   N3        1.0  0.93075  0.53255  0.09908  1.0000
  N   N4        1.0  0.43075  0.09908  0.53255  1.0000
  N   N5        1.0  0.03460  0.55518  0.22289  1.0000
  N   N6        1.0  0.53460  0.22289  0.55518  1.0000
  N   N7        1.0  0.90638  0.51689  0.29822  1.0000
  N   N8        1.0  0.40638  0.29822  0.51689  1.0000
  N   N9        1.0  0.51539  0.66032  0.96688  1.0000
  N   N10       1.0  0.01539  0.96688  0.66033  1.0000
  Cl  Cl1       1.0  0.55887  0.77814  0.28388  1.0000
  Cl  Cl2       1.0  0.05887  0.28389  0.77814  1.0000
  Cl  Cl3       1.0  0.84759  0.56074  0.65133  1.0000
  Cl  Cl4       1.0  0.34759  0.65133  0.56074  1.0000
  Cl  Cl5       1.0  0.18921  0.00949  0.12882  1.0000
  Cl  Cl6       1.0  0.68921  0.12882  0.00949  1.0000
