data_image0
_chemical_formula_structural       Cd2H30C40N6O12
_chemical_formula_sum              "Cd2 H30 C40 N6 O12"
_cell_length_a       9.06672
_cell_length_b       10.0514
_cell_length_c       10.6145
_cell_angle_alpha    100.534
_cell_angle_beta     106.056
_cell_angle_gamma    92.7781

_space_group_name_H-M_alt    "P 1"
_space_group_IT_number       1

loop_
  _space_group_symop_operation_xyz
  'x, y, z'

loop_
  _atom_site_type_symbol
  _atom_site_label
  _atom_site_symmetry_multiplicity
  _atom_site_fract_x
  _atom_site_fract_y
  _atom_site_fract_z
  _atom_site_occupancy
  Cd  Cd1       1.0  0.11942  0.46091  0.68238  1.0000
  Cd  Cd2       1.0  0.88058  0.53909  0.31762  1.0000
  H   H1        1.0  0.92445  0.71647  0.71101  1.0000
  H   H2        1.0  0.07555  0.28353  0.28898  1.0000
  H   H3        1.0  0.83592  0.87338  0.88448  1.0000
  H   H4        1.0  0.16408  0.12662  0.11551  1.0000
  H   H5        1.0  0.94613  0.86036  0.12544  1.0000
  H   H6        1.0  0.05387  0.13964  0.87456  1.0000
  H   H7        1.0  0.13452  0.69476  0.18555  1.0000
  H   H8        1.0  0.86548  0.30524  0.81445  1.0000
  H   H9        1.0  0.29690  0.56662  0.22146  1.0000
  H   H10       1.0  0.70310  0.43338  0.77854  1.0000
  H   H11       1.0  0.47937  0.39073  0.25465  1.0000
  H   H12       1.0  0.52063  0.60927  0.74536  1.0000
  H   H13       1.0  0.51386  0.23539  0.05038  1.0000
  H   H14       1.0  0.48614  0.76461  0.94962  1.0000
  H   H15       1.0  0.36315  0.26934  0.82350  1.0000
  H   H16       1.0  0.63684  0.73066  0.17650  1.0000
  H   H17       1.0  0.57962  0.40143  0.57723  1.0000
  H   H18       1.0  0.42038  0.59857  0.42277  1.0000
  H   H19       1.0  0.68321  0.98445  0.19891  1.0000
  H   H20       1.0  0.31679  0.01555  0.80109  1.0000
  H   H21       1.0  0.83503  0.05296  0.34605  1.0000
  H   H22       1.0  0.16497  0.94704  0.65395  1.0000
  H   H23       1.0  0.77358  0.15203  0.22344  1.0000
  H   H24       1.0  0.22642  0.84797  0.77656  1.0000
  H   H25       1.0  0.11955  0.08915  0.36815  1.0000
  H   H26       1.0  0.88046  0.91085  0.63185  1.0000
  H   H27       1.0  0.22298  0.95918  0.42770  1.0000
  H   H28       1.0  0.77703  0.04082  0.57230  1.0000
  H   H29       1.0  0.17795  0.96228  0.25540  1.0000
  H   H30       1.0  0.82205  0.03771  0.74460  1.0000
  C   C1        1.0  0.96754  0.71617  0.81755  1.0000
  C   C2        1.0  0.03246  0.28383  0.18245  1.0000
  C   C3        1.0  0.92082  0.80353  0.91371  1.0000
  C   C4        1.0  0.07918  0.19647  0.08629  1.0000
  C   C5        1.0  0.98240  0.79583  0.04749  1.0000
  C   C6        1.0  0.01760  0.20417  0.95251  1.0000
  C   C7        1.0  0.08804  0.70279  0.08128  1.0000
  C   C8        1.0  0.91196  0.29721  0.91872  1.0000
  C   C9        1.0  0.12856  0.61746  0.97879  1.0000
  C   C10       1.0  0.87144  0.38254  0.02121  1.0000
  C   C11       1.0  0.23663  0.51261  0.00542  1.0000
  C   C12       1.0  0.76337  0.48739  0.99458  1.0000
  C   C13       1.0  0.31503  0.49966  0.13546  1.0000
  C   C14       1.0  0.68497  0.50034  0.86454  1.0000
  C   C15       1.0  0.41625  0.40006  0.15364  1.0000
  C   C16       1.0  0.58375  0.59994  0.84636  1.0000
  C   C17       1.0  0.43638  0.31489  0.04161  1.0000
  C   C18       1.0  0.56361  0.68511  0.95839  1.0000
  C   C19       1.0  0.35354  0.33304  0.91513  1.0000
  C   C20       1.0  0.64646  0.66696  0.08487  1.0000
  C   C21       1.0  0.40384  0.23647  0.47790  1.0000
  C   C22       1.0  0.59616  0.76353  0.52209  1.0000
  C   C23       1.0  0.55041  0.30496  0.50589  1.0000
  C   C24       1.0  0.44959  0.69504  0.49411  1.0000
  C   C25       1.0  0.66114  0.25389  0.44674  1.0000
  C   C26       1.0  0.33886  0.74611  0.55326  1.0000
  C   C27       1.0  0.62107  0.13568  0.34433  1.0000
  C   C28       1.0  0.37893  0.86432  0.65567  1.0000
  C   C29       1.0  0.47147  0.07192  0.31723  1.0000
  C   C30       1.0  0.52853  0.92808  0.68276  1.0000
  C   C31       1.0  0.36233  0.11234  0.38402  1.0000
  C   C32       1.0  0.63767  0.88766  0.61598  1.0000
  C   C33       1.0  0.29824  0.29715  0.55499  1.0000
  C   C34       1.0  0.70176  0.70285  0.44502  1.0000
  C   C35       1.0  0.82175  0.32684  0.49882  1.0000
  C   C36       1.0  0.17826  0.67316  0.50117  1.0000
  C   C37       1.0  0.73315  0.07762  0.27341  1.0000
  C   C38       1.0  0.26685  0.92238  0.72659  1.0000
  C   C39       1.0  0.21207  0.02673  0.35584  1.0000
  C   C40       1.0  0.78793  0.97327  0.64416  1.0000
  N   N1        1.0  0.25671  0.42902  0.89774  1.0000
  N   N2        1.0  0.74329  0.57098  0.10226  1.0000
  N   N3        1.0  0.06810  0.62588  0.84959  1.0000
  N   N4        1.0  0.93190  0.37412  0.15041  1.0000
  N   N5        1.0  0.42383  0.94943  0.20845  1.0000
  N   N6        1.0  0.57617  0.05057  0.79156  1.0000
  O   O1        1.0  0.20859  0.22219  0.59087  1.0000
  O   O2        1.0  0.79142  0.77781  0.40913  1.0000
  O   O3        1.0  0.30879  0.42824  0.58260  1.0000
  O   O4        1.0  0.69121  0.57176  0.41740  1.0000
  O   O5        1.0  0.89940  0.34416  0.41955  1.0000
  O   O6        1.0  0.10060  0.65584  0.58045  1.0000
  O   O7        1.0  0.87197  0.36710  0.62633  1.0000
  O   O8        1.0  0.12803  0.63290  0.37367  1.0000
  O   O9        1.0  0.43098  0.83668  0.23945  1.0000
  O   O10       1.0  0.56902  0.16332  0.76055  1.0000
  O   O11       1.0  0.37806  0.96756  0.09176  1.0000
  O   O12       1.0  0.62193  0.03244  0.90824  1.0000
