data_image0
_chemical_formula_structural       Cd2H26C30N4O14
_chemical_formula_sum              "Cd2 H26 C30 N4 O14"
_cell_length_a       7.97985
_cell_length_b       10.2254
_cell_length_c       12.4727
_cell_angle_alpha    71.9866
_cell_angle_beta     75.3577
_cell_angle_gamma    65.104

_space_group_name_H-M_alt    "P 1"
_space_group_IT_number       1

loop_
  _space_group_symop_operation_xyz
  'x, y, z'

loop_
  _atom_site_type_symbol
  _atom_site_label
  _atom_site_symmetry_multiplicity
  _atom_site_fract_x
  _atom_site_fract_y
  _atom_site_fract_z
  _atom_site_occupancy
  Cd  Cd1       1.0  0.73583  0.84971  0.48298  1.0000
  Cd  Cd2       1.0  0.26416  0.15029  0.51703  1.0000
  H   H1        1.0  0.68006  0.36482  0.49239  1.0000
  H   H2        1.0  0.31997  0.63517  0.50762  1.0000
  H   H3        1.0  0.46395  0.51094  0.91211  1.0000
  H   H4        1.0  0.53606  0.48907  0.08788  1.0000
  H   H5        1.0  0.41485  0.64969  0.78336  1.0000
  H   H6        1.0  0.58517  0.35031  0.21664  1.0000
  H   H7        1.0  0.64143  0.56665  0.81663  1.0000
  H   H8        1.0  0.35859  0.43336  0.18337  1.0000
  H   H9        1.0  0.59369  0.00875  0.91471  1.0000
  H   H10       1.0  0.40629  0.99126  0.08530  1.0000
  H   H11       1.0  0.65837  0.94287  0.78869  1.0000
  H   H12       1.0  0.34160  0.05714  0.21131  1.0000
  H   H13       1.0  0.42136  0.03002  0.83774  1.0000
  H   H14       1.0  0.57861  0.97001  0.16226  1.0000
  H   H15       1.0  0.92076  0.68790  0.27767  1.0000
  H   H16       1.0  0.07918  0.31209  0.72233  1.0000
  H   H17       1.0  0.02052  0.74887  0.06975  1.0000
  H   H18       1.0  0.97939  0.25113  0.93025  1.0000
  H   H19       1.0  0.91146  0.19055  0.09803  1.0000
  H   H20       1.0  0.08859  0.80943  0.90198  1.0000
  H   H21       1.0  0.81806  0.10880  0.30505  1.0000
  H   H22       1.0  0.18200  0.89116  0.69497  1.0000
  H   H23       1.0  0.06813  0.62664  0.55814  1.0000
  H   H24       1.0  0.93187  0.37337  0.44185  1.0000
  H   H25       1.0  0.07132  0.78513  0.55284  1.0000
  H   H26       1.0  0.92868  0.21489  0.44715  1.0000
  C   C1        1.0  0.67149  0.10010  0.57007  1.0000
  C   C2        1.0  0.32851  0.89991  0.42993  1.0000
  C   C3        1.0  0.62389  0.20820  0.64117  1.0000
  C   C4        1.0  0.37612  0.79180  0.35882  1.0000
  C   C5        1.0  0.64444  0.34203  0.58437  1.0000
  C   C6        1.0  0.35558  0.65797  0.41562  1.0000
  C   C7        1.0  0.62073  0.44908  0.63932  1.0000
  C   C8        1.0  0.37929  0.55092  0.36068  1.0000
  C   C9        1.0  0.55692  0.42928  0.75759  1.0000
  C   C10       1.0  0.44309  0.57072  0.24241  1.0000
  C   C11       1.0  0.53233  0.29476  0.81126  1.0000
  C   C12       1.0  0.46768  0.70524  0.18873  1.0000
  C   C13       1.0  0.56882  0.17944  0.75971  1.0000
  C   C14       1.0  0.43117  0.82056  0.24029  1.0000
  C   C15       1.0  0.67339  0.57738  0.56647  1.0000
  C   C16       1.0  0.32662  0.42262  0.43353  1.0000
  C   C17       1.0  0.51647  0.54371  0.82209  1.0000
  C   C18       1.0  0.48355  0.45630  0.17790  1.0000
  C   C19       1.0  0.56011  0.03300  0.82900  1.0000
  C   C20       1.0  0.43986  0.96702  0.17100  1.0000
  C   C21       1.0  0.92282  0.79765  0.23364  1.0000
  C   C22       1.0  0.07716  0.20233  0.76636  1.0000
  C   C23       1.0  0.97807  0.83382  0.11684  1.0000
  C   C24       1.0  0.02187  0.16619  0.88316  1.0000
  C   C25       1.0  0.97429  0.97754  0.06245  1.0000
  C   C26       1.0  0.02569  0.02245  0.93755  1.0000
  C   C27       1.0  0.91773  0.07729  0.13250  1.0000
  C   C28       1.0  0.08229  0.92269  0.86751  1.0000
  C   C29       1.0  0.86452  0.03358  0.24858  1.0000
  C   C30       1.0  0.13550  0.96640  0.75143  1.0000
  N   N1        1.0  0.46265  0.27014  0.93462  1.0000
  N   N2        1.0  0.53735  0.72987  0.06537  1.0000
  N   N3        1.0  0.86534  0.89626  0.29863  1.0000
  N   N4        1.0  0.13467  0.10372  0.70137  1.0000
  O   O1        1.0  0.80256  0.09461  0.48779  1.0000
  O   O2        1.0  0.19743  0.90540  0.51220  1.0000
  O   O3        1.0  0.99264  0.72373  0.57880  1.0000
  O   O4        1.0  0.00737  0.27627  0.42119  1.0000
  O   O5        1.0  0.57583  0.01681  0.59556  1.0000
  O   O6        1.0  0.42417  0.98319  0.40445  1.0000
  O   O7        1.0  0.79072  0.55891  0.47700  1.0000
  O   O8        1.0  0.20929  0.44110  0.52299  1.0000
  O   O9        1.0  0.59617  0.69934  0.59900  1.0000
  O   O10       1.0  0.40384  0.30066  0.40100  1.0000
  O   O11       1.0  0.29842  0.27905  0.96364  1.0000
  O   O12       1.0  0.70159  0.72095  0.03637  1.0000
  O   O13       1.0  0.57115  0.24231  0.00147  1.0000
  O   O14       1.0  0.42884  0.75773  0.99852  1.0000
