data_image0
_chemical_formula_structural       Cd2H34C46N4O12
_chemical_formula_sum              "Cd2 H34 C46 N4 O12"
_cell_length_a       10.3566
_cell_length_b       11.498
_cell_length_c       12.3782
_cell_angle_alpha    113.286
_cell_angle_beta     107.809
_cell_angle_gamma    100.747

_space_group_name_H-M_alt    "P 1"
_space_group_IT_number       1

loop_
  _space_group_symop_operation_xyz
  'x, y, z'

loop_
  _atom_site_type_symbol
  _atom_site_label
  _atom_site_symmetry_multiplicity
  _atom_site_fract_x
  _atom_site_fract_y
  _atom_site_fract_z
  _atom_site_occupancy
  Cd  Cd1       1.0  0.93023  0.30709  0.43196  1.0000
  Cd  Cd2       1.0  0.06977  0.69291  0.56804  1.0000
  H   H1        1.0  0.70473  0.36122  0.06371  1.0000
  H   H2        1.0  0.29527  0.63879  0.93630  1.0000
  H   H3        1.0  0.12114  0.74574  0.17042  1.0000
  H   H4        1.0  0.87887  0.25426  0.82959  1.0000
  H   H5        1.0  0.14029  0.63700  0.30936  1.0000
  H   H6        1.0  0.85971  0.36300  0.69064  1.0000
  H   H7        1.0  0.51429  0.37681  0.95064  1.0000
  H   H8        1.0  0.48571  0.62319  0.04936  1.0000
  H   H9        1.0  0.55755  0.26282  0.83210  1.0000
  H   H10       1.0  0.44245  0.73718  0.16789  1.0000
  H   H11       1.0  0.26780  0.16734  0.74182  1.0000
  H   H12       1.0  0.73221  0.83267  0.25819  1.0000
  H   H13       1.0  0.04828  0.15782  0.57782  1.0000
  H   H14       1.0  0.95171  0.84219  0.42218  1.0000
  H   H15       1.0  0.27854  0.49648  0.58146  1.0000
  H   H16       1.0  0.72146  0.50353  0.41854  1.0000
  H   H17       1.0  0.50938  0.52182  0.74811  1.0000
  H   H18       1.0  0.49062  0.47819  0.25188  1.0000
  H   H19       1.0  0.96494  0.78310  0.88795  1.0000
  H   H20       1.0  0.03506  0.21690  0.11205  1.0000
  H   H21       1.0  0.09869  0.77003  0.00756  1.0000
  H   H22       1.0  0.90131  0.22997  0.99244  1.0000
  H   H23       1.0  0.75182  0.83084  0.00118  1.0000
  H   H24       1.0  0.24818  0.16916  0.99882  1.0000
  H   H25       1.0  0.74757  0.03894  0.17289  1.0000
  H   H26       1.0  0.25243  0.96106  0.82711  1.0000
  H   H27       1.0  0.19481  0.20273  0.35577  1.0000
  H   H28       1.0  0.80519  0.79727  0.64423  1.0000
  H   H29       1.0  0.21884  0.00507  0.19005  1.0000
  H   H30       1.0  0.78116  0.99493  0.80995  1.0000
  H   H31       1.0  0.73459  0.96293  0.53115  1.0000
  H   H32       1.0  0.26541  0.03707  0.46885  1.0000
  H   H33       1.0  0.45133  0.16451  0.42361  1.0000
  H   H34       1.0  0.54867  0.83549  0.57639  1.0000
  C   C1        1.0  0.92816  0.42791  0.27696  1.0000
  C   C2        1.0  0.07184  0.57209  0.72305  1.0000
  C   C3        1.0  0.92301  0.49288  0.19377  1.0000
  C   C4        1.0  0.07699  0.50713  0.80624  1.0000
  C   C5        1.0  0.79377  0.44492  0.08323  1.0000
  C   C6        1.0  0.20623  0.55508  0.91677  1.0000
  C   C7        1.0  0.78150  0.50466  0.00445  1.0000
  C   C8        1.0  0.21850  0.49534  0.99555  1.0000
  C   C9        1.0  0.90142  0.61292  0.03408  1.0000
  C   C10       1.0  0.09859  0.38708  0.96592  1.0000
  C   C11       1.0  0.02887  0.66124  0.14503  1.0000
  C   C12       1.0  0.97113  0.33875  0.85497  1.0000
  C   C13       1.0  0.04002  0.60107  0.22427  1.0000
  C   C14       1.0  0.95998  0.39893  0.77573  1.0000
  C   C15       1.0  0.53681  0.35916  0.86474  1.0000
  C   C16       1.0  0.46319  0.64084  0.13526  1.0000
  C   C17       1.0  0.40642  0.34835  0.76043  1.0000
  C   C18       1.0  0.59358  0.65166  0.23957  1.0000
  C   C19       1.0  0.27559  0.24393  0.71078  1.0000
  C   C20       1.0  0.72441  0.75607  0.28922  1.0000
  C   C21       1.0  0.15296  0.23660  0.61852  1.0000
  C   C22       1.0  0.84704  0.76340  0.38148  1.0000
  C   C23       1.0  0.28120  0.42581  0.61987  1.0000
  C   C24       1.0  0.71880  0.57419  0.38013  1.0000
  C   C25       1.0  0.40916  0.44013  0.71286  1.0000
  C   C26       1.0  0.59084  0.55987  0.28714  1.0000
  C   C27       1.0  0.99088  0.77877  0.97890  1.0000
  C   C28       1.0  0.00912  0.22123  0.02111  1.0000
  C   C29       1.0  0.98623  0.90230  0.08150  1.0000
  C   C30       1.0  0.01377  0.09770  0.91850  1.0000
  C   C31       1.0  0.85233  0.91237  0.07753  1.0000
  C   C32       1.0  0.14767  0.08763  0.92247  1.0000
  C   C33       1.0  0.84957  0.02651  0.17302  1.0000
  C   C34       1.0  0.15043  0.97349  0.82698  1.0000
  C   C35       1.0  0.09907  0.11878  0.27455  1.0000
  C   C36       1.0  0.90093  0.88121  0.72545  1.0000
  C   C37       1.0  0.11187  0.00852  0.18200  1.0000
  C   C38       1.0  0.88814  0.99148  0.81800  1.0000
  C   C39       1.0  0.71410  0.14488  0.44891  1.0000
  C   C40       1.0  0.28590  0.85512  0.55109  1.0000
  C   C41       1.0  0.60229  0.06946  0.47390  1.0000
  C   C42       1.0  0.39771  0.93054  0.52610  1.0000
  C   C43       1.0  0.63120  0.97786  0.51802  1.0000
  C   C44       1.0  0.36879  0.02214  0.48198  1.0000
  C   C45       1.0  0.47050  0.09149  0.45634  1.0000
  C   C46       1.0  0.52950  0.90851  0.54366  1.0000
  N   N1        1.0  0.15512  0.32659  0.57419  1.0000
  N   N2        1.0  0.84487  0.67341  0.42581  1.0000
  N   N3        1.0  0.97070  0.12785  0.27055  1.0000
  N   N4        1.0  0.02930  0.87214  0.72945  1.0000
  O   O1        1.0  0.82225  0.32331  0.23869  1.0000
  O   O2        1.0  0.17775  0.67669  0.76132  1.0000
  O   O3        1.0  0.03897  0.48037  0.38710  1.0000
  O   O4        1.0  0.96103  0.51963  0.61290  1.0000
  O   O5        1.0  0.65895  0.46735  0.89690  1.0000
  O   O6        1.0  0.34105  0.53265  0.10310  1.0000
  O   O7        1.0  0.88063  0.65935  0.94627  1.0000
  O   O8        1.0  0.11937  0.34064  0.05373  1.0000
  O   O9        1.0  0.82776  0.11416  0.45816  1.0000
  O   O10       1.0  0.17223  0.88584  0.54184  1.0000
  O   O11       1.0  0.69355  0.23821  0.42214  1.0000
  O   O12       1.0  0.30645  0.76179  0.57786  1.0000
