data_image0
_chemical_formula_structural       Mn4H32C24O32
_chemical_formula_sum              "Mn4 H32 C24 O32"
_cell_length_a       7.3917
_cell_length_b       8.20518
_cell_length_c       15.0016
_cell_angle_alpha    90.4308
_cell_angle_beta     90.3706
_cell_angle_gamma    89.7589

_space_group_name_H-M_alt    "P 1"
_space_group_IT_number       1

loop_
  _space_group_symop_operation_xyz
  'x, y, z'

loop_
  _atom_site_type_symbol
  _atom_site_label
  _atom_site_symmetry_multiplicity
  _atom_site_fract_x
  _atom_site_fract_y
  _atom_site_fract_z
  _atom_site_occupancy
  Mn  Mn1       1.0  0.75033  0.34265  0.69308  1.0000
  Mn  Mn2       1.0  0.25694  0.16956  0.19488  1.0000
  Mn  Mn3       1.0  0.74863  0.84420  0.80572  1.0000
  Mn  Mn4       1.0  0.24633  0.64814  0.29579  1.0000
  H   H1        1.0  0.10918  0.27989  0.72844  1.0000
  H   H2        1.0  0.89982  0.21922  0.22688  1.0000
  H   H3        1.0  0.38869  0.77774  0.77506  1.0000
  H   H4        1.0  0.59337  0.70569  0.26095  1.0000
  H   H5        1.0  0.90132  0.71977  0.26875  1.0000
  H   H6        1.0  0.10818  0.77883  0.77470  1.0000
  H   H7        1.0  0.61538  0.23164  0.22411  1.0000
  H   H8        1.0  0.39299  0.28077  0.72854  1.0000
  H   H9        1.0  0.10378  0.40621  0.64632  1.0000
  H   H10       1.0  0.90389  0.08942  0.14533  1.0000
  H   H11       1.0  0.39427  0.91241  0.85442  1.0000
  H   H12       1.0  0.58337  0.57776  0.34256  1.0000
  H   H13       1.0  0.91413  0.58690  0.34754  1.0000
  H   H14       1.0  0.10413  0.91372  0.85424  1.0000
  H   H15       1.0  0.60342  0.09926  0.14453  1.0000
  H   H16       1.0  0.39418  0.40693  0.64628  1.0000
  H   H17       1.0  0.74842  0.63966  0.60750  1.0000
  H   H18       1.0  0.24915  0.87002  0.11166  1.0000
  H   H19       1.0  0.75020  0.14192  0.89310  1.0000
  H   H20       1.0  0.25962  0.37712  0.38968  1.0000
  H   H21       1.0  0.74811  0.50036  0.52760  1.0000
  H   H22       1.0  0.25623  0.00542  0.03054  1.0000
  H   H23       1.0  0.75090  0.00225  0.97216  1.0000
  H   H24       1.0  0.24602  0.51709  0.46877  1.0000
  H   H25       1.0  0.75157  0.28201  0.02993  1.0000
  H   H26       1.0  0.24889  0.21240  0.53026  1.0000
  H   H27       1.0  0.74989  0.78199  0.46621  1.0000
  H   H28       1.0  0.24328  0.72336  0.97359  1.0000
  H   H29       1.0  0.74916  0.48135  0.17544  1.0000
  H   H30       1.0  0.24619  0.01990  0.67693  1.0000
  H   H31       1.0  0.75337  0.98367  0.32274  1.0000
  H   H32       1.0  0.25238  0.52045  0.83031  1.0000
  C   C1        1.0  0.75157  0.47308  0.86181  1.0000
  C   C2        1.0  0.25929  0.00615  0.36321  1.0000
  C   C3        1.0  0.74763  0.97167  0.63679  1.0000
  C   C4        1.0  0.23476  0.53622  0.14179  1.0000
  C   C5        1.0  0.75146  0.51328  0.95691  1.0000
  C   C6        1.0  0.24975  0.97719  0.45822  1.0000
  C   C7        1.0  0.74800  0.01229  0.54187  1.0000
  C   C8        1.0  0.23976  0.49347  0.04934  1.0000
  C   C9        1.0  0.75131  0.41382  0.03045  1.0000
  C   C10       1.0  0.24819  0.08055  0.53137  1.0000
  C   C11       1.0  0.74936  0.91399  0.46700  1.0000
  C   C12       1.0  0.24389  0.59153  0.97434  1.0000
  C   C13       1.0  0.75015  0.51735  0.10605  1.0000
  C   C14       1.0  0.24687  0.98058  0.60768  1.0000
  C   C15       1.0  0.75193  0.01876  0.39265  1.0000
  C   C16       1.0  0.24908  0.48637  0.90001  1.0000
  C   C17       1.0  0.74969  0.67486  0.07466  1.0000
  C   C18       1.0  0.24750  0.82150  0.57712  1.0000
  C   C19       1.0  0.75180  0.17595  0.42593  1.0000
  C   C20       1.0  0.24805  0.32862  0.93181  1.0000
  C   C21       1.0  0.74953  0.82908  0.12428  1.0000
  C   C22       1.0  0.24741  0.66632  0.62392  1.0000
  C   C23       1.0  0.75439  0.33066  0.37727  1.0000
  C   C24       1.0  0.24941  0.17517  0.88218  1.0000
  O   O1        1.0  0.75241  0.32201  0.83997  1.0000
  O   O2        1.0  0.26239  0.15531  0.33641  1.0000
  O   O3        1.0  0.74628  0.82084  0.65788  1.0000
  O   O4        1.0  0.22760  0.68824  0.16633  1.0000
  O   O5        1.0  0.75079  0.58278  0.80218  1.0000
  O   O6        1.0  0.26685  0.88660  0.30770  1.0000
  O   O7        1.0  0.74893  0.08152  0.69710  1.0000
  O   O8        1.0  0.24013  0.43436  0.20805  1.0000
  O   O9        1.0  0.75406  0.96545  0.08353  1.0000
  O   O10       1.0  0.24819  0.53220  0.57874  1.0000
  O   O11       1.0  0.74745  0.46874  0.41757  1.0000
  O   O12       1.0  0.24732  0.03723  0.92263  1.0000
  O   O13       1.0  0.74549  0.81955  0.20943  1.0000
  O   O14       1.0  0.24709  0.66931  0.70882  1.0000
  O   O15       1.0  0.76343  0.32005  0.29253  1.0000
  O   O16       1.0  0.25222  0.18374  0.79715  1.0000
  O   O17       1.0  0.75067  0.67405  0.98288  1.0000
  O   O18       1.0  0.24912  0.81812  0.48553  1.0000
  O   O19       1.0  0.74914  0.17350  0.51770  1.0000
  O   O20       1.0  0.24286  0.33136  0.02426  1.0000
  O   O21       1.0  0.03284  0.32521  0.67954  1.0000
  O   O22       1.0  0.97644  0.17051  0.17911  1.0000
  O   O23       1.0  0.46646  0.83086  0.82095  1.0000
  O   O24       1.0  0.51424  0.62707  0.29295  1.0000
  O   O25       1.0  0.98230  0.67097  0.31513  1.0000
  O   O26       1.0  0.03113  0.83332  0.82016  1.0000
  O   O27       1.0  0.53663  0.18724  0.17579  1.0000
  O   O28       1.0  0.46743  0.32682  0.67982  1.0000
  O   O29       1.0  0.75010  0.52116  0.59313  1.0000
  O   O30       1.0  0.26930  0.98542  0.09619  1.0000
  O   O31       1.0  0.74745  0.02375  0.90707  1.0000
  O   O32       1.0  0.24677  0.49460  0.40251  1.0000
