data_image0
_chemical_formula_structural       Ba4H32C24O32
_chemical_formula_sum              "Ba4 H32 C24 O32"
_cell_length_a       4.67596
_cell_length_b       11.5045
_cell_length_c       15.5845
_cell_angle_alpha    90
_cell_angle_beta     90
_cell_angle_gamma    90

_space_group_name_H-M_alt    "P 1"
_space_group_IT_number       1

loop_
  _space_group_symop_operation_xyz
  'x, y, z'

loop_
  _atom_site_type_symbol
  _atom_site_label
  _atom_site_symmetry_multiplicity
  _atom_site_fract_x
  _atom_site_fract_y
  _atom_site_fract_z
  _atom_site_occupancy
  Ba  Ba1       1.0  0.27035  0.89332  0.86329  1.0000
  Ba  Ba2       1.0  0.22965  0.10668  0.36329  1.0000
  Ba  Ba3       1.0  0.72965  0.39332  0.63671  1.0000
  Ba  Ba4       1.0  0.77035  0.60668  0.13671  1.0000
  H   H1        1.0  0.45970  0.64766  0.72825  1.0000
  H   H2        1.0  0.04030  0.35235  0.22825  1.0000
  H   H3        1.0  0.54030  0.14765  0.77175  1.0000
  H   H4        1.0  0.95970  0.85235  0.27175  1.0000
  H   H5        1.0  0.79044  0.79272  0.70358  1.0000
  H   H6        1.0  0.70956  0.20728  0.20358  1.0000
  H   H7        1.0  0.20956  0.29272  0.79642  1.0000
  H   H8        1.0  0.29044  0.70728  0.29642  1.0000
  H   H9        1.0  0.63147  0.95306  0.69657  1.0000
  H   H10       1.0  0.86852  0.04694  0.19657  1.0000
  H   H11       1.0  0.36853  0.45306  0.80343  1.0000
  H   H12       1.0  0.13147  0.54694  0.30343  1.0000
  H   H13       1.0  0.76802  0.08727  0.52379  1.0000
  H   H14       1.0  0.73198  0.91273  0.02379  1.0000
  H   H15       1.0  0.23198  0.58727  0.97621  1.0000
  H   H16       1.0  0.26802  0.41273  0.47621  1.0000
  H   H17       1.0  0.45185  0.73723  0.57922  1.0000
  H   H18       1.0  0.04815  0.26277  0.07922  1.0000
  H   H19       1.0  0.54815  0.23723  0.92078  1.0000
  H   H20       1.0  0.95185  0.76277  0.42078  1.0000
  H   H21       1.0  0.99038  0.83780  0.56728  1.0000
  H   H22       1.0  0.50962  0.16220  0.06728  1.0000
  H   H23       1.0  0.00962  0.33780  0.93272  1.0000
  H   H24       1.0  0.49038  0.66220  0.43272  1.0000
  H   H25       1.0  0.44425  0.94551  0.56668  1.0000
  H   H26       1.0  0.05575  0.05448  0.06668  1.0000
  H   H27       1.0  0.55575  0.44552  0.93332  1.0000
  H   H28       1.0  0.94425  0.55449  0.43332  1.0000
  H   H29       1.0  0.94839  0.07561  0.65141  1.0000
  H   H30       1.0  0.55161  0.92439  0.15141  1.0000
  H   H31       1.0  0.05161  0.57561  0.84859  1.0000
  H   H32       1.0  0.44839  0.42439  0.34859  1.0000
  C   C1        1.0  0.12510  0.62291  0.62291  1.0000
  C   C2        1.0  0.37490  0.37709  0.12291  1.0000
  C   C3        1.0  0.87491  0.12291  0.87709  1.0000
  C   C4        1.0  0.62509  0.87709  0.37709  1.0000
  C   C5        1.0  0.29726  0.73607  0.63298  1.0000
  C   C6        1.0  0.20274  0.26393  0.13298  1.0000
  C   C7        1.0  0.70274  0.23607  0.86702  1.0000
  C   C8        1.0  0.79726  0.76393  0.36702  1.0000
  C   C9        1.0  0.11518  0.84574  0.62699  1.0000
  C   C10       1.0  0.38482  0.15426  0.12699  1.0000
  C   C11       1.0  0.88482  0.34574  0.87301  1.0000
  C   C12       1.0  0.61518  0.65426  0.37301  1.0000
  C   C13       1.0  0.29004  0.95750  0.61932  1.0000
  C   C14       1.0  0.20996  0.04250  0.11932  1.0000
  C   C15       1.0  0.70996  0.45750  0.88068  1.0000
  C   C16       1.0  0.79004  0.54250  0.38068  1.0000
  C   C17       1.0  0.10117  0.06211  0.59855  1.0000
  C   C18       1.0  0.39883  0.93789  0.09855  1.0000
  C   C19       1.0  0.89883  0.56211  0.90145  1.0000
  C   C20       1.0  0.60117  0.43789  0.40145  1.0000
  C   C21       1.0  0.28420  0.17256  0.59075  1.0000
  C   C22       1.0  0.21581  0.82743  0.09075  1.0000
  C   C23       1.0  0.71580  0.67256  0.90925  1.0000
  C   C24       1.0  0.78420  0.32744  0.40925  1.0000
  O   O1        1.0  0.89853  0.62213  0.57917  1.0000
  O   O2        1.0  0.60147  0.37787  0.07917  1.0000
  O   O3        1.0  0.10146  0.12213  0.92083  1.0000
  O   O4        1.0  0.39853  0.87787  0.42083  1.0000
  O   O5        1.0  0.23097  0.53440  0.66119  1.0000
  O   O6        1.0  0.26903  0.46560  0.16119  1.0000
  O   O7        1.0  0.76903  0.03440  0.83881  1.0000
  O   O8        1.0  0.73097  0.96560  0.33881  1.0000
  O   O9        1.0  0.45247  0.73125  0.71301  1.0000
  O   O10       1.0  0.04753  0.26875  0.21301  1.0000
  O   O11       1.0  0.54753  0.23125  0.78699  1.0000
  O   O12       1.0  0.95247  0.76875  0.28699  1.0000
  O   O13       1.0  0.92938  0.85848  0.69976  1.0000
  O   O14       1.0  0.57062  0.14152  0.19976  1.0000
  O   O15       1.0  0.07062  0.35848  0.80024  1.0000
  O   O16       1.0  0.42938  0.64152  0.30024  1.0000
  O   O17       1.0  0.43616  0.98747  0.69768  1.0000
  O   O18       1.0  0.06383  0.01253  0.19768  1.0000
  O   O19       1.0  0.56383  0.48747  0.80232  1.0000
  O   O20       1.0  0.93617  0.51253  0.30232  1.0000
  O   O21       1.0  0.95160  0.04226  0.51987  1.0000
  O   O22       1.0  0.54841  0.95774  0.01987  1.0000
  O   O23       1.0  0.04840  0.54226  0.98013  1.0000
  O   O24       1.0  0.45160  0.45774  0.48013  1.0000
  O   O25       1.0  0.49467  0.17273  0.53853  1.0000
  O   O26       1.0  0.00533  0.82727  0.03853  1.0000
  O   O27       1.0  0.50534  0.67273  0.96147  1.0000
  O   O28       1.0  0.99467  0.32727  0.46147  1.0000
  O   O29       1.0  0.21268  0.26041  0.63479  1.0000
  O   O30       1.0  0.28732  0.73959  0.13479  1.0000
  O   O31       1.0  0.78732  0.76041  0.86521  1.0000
  O   O32       1.0  0.71268  0.23959  0.36521  1.0000
