data_image0
_chemical_formula_structural       Cu4H24C36Br2N10
_chemical_formula_sum              "Cu4 H24 C36 Br2 N10"
_cell_length_a       8.09168
_cell_length_b       10.9041
_cell_length_c       11.4108
_cell_angle_alpha    61.5501
_cell_angle_beta     76.9497
_cell_angle_gamma    66.9906

_space_group_name_H-M_alt    "P 1"
_space_group_IT_number       1

loop_
  _space_group_symop_operation_xyz
  'x, y, z'

loop_
  _atom_site_type_symbol
  _atom_site_label
  _atom_site_symmetry_multiplicity
  _atom_site_fract_x
  _atom_site_fract_y
  _atom_site_fract_z
  _atom_site_occupancy
  Cu  Cu1       1.0  0.22402  0.45301  0.31646  1.0000
  Cu  Cu2       1.0  0.77598  0.54699  0.68355  1.0000
  Cu  Cu3       1.0  0.61739  0.33335  0.34914  1.0000
  Cu  Cu4       1.0  0.38262  0.66665  0.65086  1.0000
  H   H1        1.0  0.14855  0.15799  0.38265  1.0000
  H   H2        1.0  0.85145  0.84201  0.61735  1.0000
  H   H3        1.0  0.07081  0.95895  0.81156  1.0000
  H   H4        1.0  0.92919  0.04105  0.18844  1.0000
  H   H5        1.0  0.47391  0.95714  0.40275  1.0000
  H   H6        1.0  0.52609  0.04286  0.59725  1.0000
  H   H7        1.0  0.09484  0.94742  0.59271  1.0000
  H   H8        1.0  0.90516  0.05258  0.40729  1.0000
  H   H9        1.0  0.48390  0.05629  0.15634  1.0000
  H   H10       1.0  0.51611  0.94370  0.84366  1.0000
  H   H11       1.0  0.39614  0.92833  0.05590  1.0000
  H   H12       1.0  0.60387  0.07167  0.94410  1.0000
  H   H13       1.0  0.10850  0.17567  0.81073  1.0000
  H   H14       1.0  0.89150  0.82433  0.18927  1.0000
  H   H15       1.0  0.30980  0.70184  0.21145  1.0000
  H   H16       1.0  0.69020  0.29816  0.78855  1.0000
  H   H17       1.0  0.35846  0.35260  0.90317  1.0000
  H   H18       1.0  0.64154  0.64740  0.09683  1.0000
  H   H19       1.0  0.22396  0.26820  0.13707  1.0000
  H   H20       1.0  0.77604  0.73180  0.86293  1.0000
  H   H21       1.0  0.89671  0.28185  0.17129  1.0000
  H   H22       1.0  0.10329  0.71815  0.82871  1.0000
  H   H23       1.0  0.72249  0.38956  0.97346  1.0000
  H   H24       1.0  0.27750  0.61044  0.02654  1.0000
  C   C1        1.0  0.13785  0.15764  0.47989  1.0000
  C   C2        1.0  0.86215  0.84236  0.52011  1.0000
  C   C3        1.0  0.09423  0.04824  0.71787  1.0000
  C   C4        1.0  0.90577  0.95176  0.28213  1.0000
  C   C5        1.0  0.43750  0.90411  0.35658  1.0000
  C   C6        1.0  0.56250  0.09589  0.64342  1.0000
  C   C7        1.0  0.10638  0.04162  0.59665  1.0000
  C   C8        1.0  0.89362  0.95838  0.40335  1.0000
  C   C9        1.0  0.44299  0.95915  0.21813  1.0000
  C   C10       1.0  0.55701  0.04085  0.78187  1.0000
  C   C11       1.0  0.39606  0.88706  0.16372  1.0000
  C   C12       1.0  0.60394  0.11294  0.83628  1.0000
  C   C13       1.0  0.18587  0.40633  0.58407  1.0000
  C   C14       1.0  0.81413  0.59367  0.41593  1.0000
  C   C15       1.0  0.18917  0.45417  0.67823  1.0000
  C   C16       1.0  0.81083  0.54583  0.32177  1.0000
  C   C17       1.0  0.14841  0.28125  0.59585  1.0000
  C   C18       1.0  0.85159  0.71875  0.40415  1.0000
  C   C19       1.0  0.34521  0.71379  0.38680  1.0000
  C   C20       1.0  0.65479  0.28621  0.61320  1.0000
  C   C21       1.0  0.28829  0.59004  0.48441  1.0000
  C   C22       1.0  0.71171  0.40997  0.51559  1.0000
  C   C23       1.0  0.11452  0.16892  0.71767  1.0000
  C   C24       1.0  0.88548  0.83108  0.28233  1.0000
  C   C25       1.0  0.34794  0.76213  0.24867  1.0000
  C   C26       1.0  0.65206  0.23787  0.75133  1.0000
  C   C27       1.0  0.11482  0.40851  0.81636  1.0000
  C   C28       1.0  0.88518  0.59149  0.18364  1.0000
  C   C29       1.0  0.21930  0.35507  0.92349  1.0000
  C   C30       1.0  0.78069  0.64493  0.07651  1.0000
  C   C31       1.0  0.14400  0.30766  0.05331  1.0000
  C   C32       1.0  0.85600  0.69234  0.94670  1.0000
  C   C33       1.0  0.96467  0.31499  0.07248  1.0000
  C   C34       1.0  0.03532  0.68501  0.92753  1.0000
  C   C35       1.0  0.86569  0.37449  0.96163  1.0000
  C   C36       1.0  0.13431  0.62551  0.03837  1.0000
  Br  Br1       1.0  0.49089  0.30284  0.20978  1.0000
  Br  Br2       1.0  0.50912  0.69716  0.79022  1.0000
  N   N1        1.0  0.24773  0.49450  0.46208  1.0000
  N   N2        1.0  0.75227  0.50551  0.53792  1.0000
  N   N3        1.0  0.25983  0.56646  0.61530  1.0000
  N   N4        1.0  0.74016  0.43354  0.38469  1.0000
  N   N5        1.0  0.38907  0.78509  0.43964  1.0000
  N   N6        1.0  0.61093  0.21491  0.56036  1.0000
  N   N7        1.0  0.15934  0.27445  0.47826  1.0000
  N   N8        1.0  0.84066  0.72555  0.52174  1.0000
  N   N9        1.0  0.93601  0.42321  0.83502  1.0000
  N   N10       1.0  0.06398  0.57679  0.16498  1.0000
