data_image0
_chemical_formula_structural       Cu10H34C54N16
_chemical_formula_sum              "Cu10 H34 C54 N16"
_cell_length_a       6.89739
_cell_length_b       11.9064
_cell_length_c       16.5753
_cell_angle_alpha    71.3961
_cell_angle_beta     80.1794
_cell_angle_gamma    83.79

_space_group_name_H-M_alt    "P 1"
_space_group_IT_number       1

loop_
  _space_group_symop_operation_xyz
  'x, y, z'

loop_
  _atom_site_type_symbol
  _atom_site_label
  _atom_site_symmetry_multiplicity
  _atom_site_fract_x
  _atom_site_fract_y
  _atom_site_fract_z
  _atom_site_occupancy
  Cu  Cu1       1.0  1.00000  0.00001  0.99999  1.0000
  Cu  Cu2       1.0  0.00000  0.50000  1.00000  1.0000
  Cu  Cu3       1.0  0.65284  0.33092  0.07972  1.0000
  Cu  Cu4       1.0  0.34717  0.66910  0.92027  1.0000
  Cu  Cu5       1.0  0.72399  0.49625  0.30907  1.0000
  Cu  Cu6       1.0  0.27602  0.50373  0.69094  1.0000
  Cu  Cu7       1.0  0.92953  0.72116  0.47269  1.0000
  Cu  Cu8       1.0  0.07046  0.27884  0.52731  1.0000
  Cu  Cu9       1.0  0.60835  0.62953  0.53812  1.0000
  Cu  Cu10      1.0  0.39165  0.37045  0.46189  1.0000
  H   H1        1.0  0.97893  0.87024  0.28226  1.0000
  H   H2        1.0  0.02106  0.12975  0.71774  1.0000
  H   H3        1.0  0.91074  0.08338  0.19946  1.0000
  H   H4        1.0  0.08925  0.91662  0.80054  1.0000
  H   H5        1.0  0.77257  0.22512  0.28211  1.0000
  H   H6        1.0  0.22743  0.77489  0.71789  1.0000
  H   H7        1.0  0.70102  0.14940  0.44085  1.0000
  H   H8        1.0  0.29898  0.85060  0.55915  1.0000
  H   H9        1.0  0.69900  0.08145  0.56808  1.0000
  H   H10       1.0  0.30100  0.91855  0.43192  1.0000
  H   H11       1.0  0.47367  0.14987  0.64643  1.0000
  H   H12       1.0  0.52633  0.85013  0.35357  1.0000
  H   H13       1.0  0.35487  0.26827  0.74303  1.0000
  H   H14       1.0  0.64512  0.73173  0.25697  1.0000
  H   H15       1.0  0.27686  0.18290  0.95902  1.0000
  H   H16       1.0  0.72313  0.81710  0.04098  1.0000
  H   H17       1.0  0.35240  0.31095  0.87418  1.0000
  H   H18       1.0  0.64759  0.68905  0.12582  1.0000
  H   H19       1.0  0.51750  0.22921  0.94636  1.0000
  H   H20       1.0  0.48249  0.77079  0.05365  1.0000
  H   H21       1.0  0.61345  0.00597  0.94726  1.0000
  H   H22       1.0  0.38655  0.99404  0.05274  1.0000
  H   H23       1.0  0.71981  0.88120  0.85359  1.0000
  H   H24       1.0  0.28020  0.11880  0.14641  1.0000
  H   H25       1.0  0.66069  0.76180  0.78362  1.0000
  H   H26       1.0  0.33931  0.23820  0.21638  1.0000
  H   H27       1.0  0.88122  0.60923  0.80710  1.0000
  H   H28       1.0  0.11879  0.39078  0.19290  1.0000
  H   H29       1.0  0.89163  0.38863  0.86737  1.0000
  H   H30       1.0  0.10838  0.61138  0.13263  1.0000
  H   H31       1.0  0.79831  0.27143  0.77823  1.0000
  H   H32       1.0  0.20169  0.72857  0.22177  1.0000
  H   H33       1.0  0.69781  0.38114  0.63482  1.0000
  H   H34       1.0  0.30218  0.61886  0.36518  1.0000
  C   C1        1.0  0.91788  0.93515  0.31501  1.0000
  C   C2        1.0  0.08212  0.06485  0.68499  1.0000
  C   C3        1.0  0.88060  0.05357  0.26941  1.0000
  C   C4        1.0  0.11939  0.94643  0.73059  1.0000
  C   C5        1.0  0.80345  0.13180  0.31545  1.0000
  C   C6        1.0  0.19654  0.86820  0.68455  1.0000
  C   C7        1.0  0.76319  0.08890  0.40474  1.0000
  C   C8        1.0  0.23681  0.91111  0.59526  1.0000
  C   C9        1.0  0.80236  0.96839  0.44629  1.0000
  C   C10       1.0  0.19764  0.03161  0.55370  1.0000
  C   C11       1.0  0.76207  0.91502  0.54076  1.0000
  C   C12       1.0  0.23794  0.08498  0.45924  1.0000
  C   C13       1.0  0.70759  0.98520  0.59508  1.0000
  C   C14       1.0  0.29241  0.01480  0.40491  1.0000
  C   C15       1.0  0.66983  0.93279  0.68438  1.0000
  C   C16       1.0  0.33018  0.06721  0.31561  1.0000
  C   C17       1.0  0.60497  0.00524  0.74226  1.0000
  C   C18       1.0  0.39503  0.99476  0.25773  1.0000
  C   C19       1.0  0.50423  0.11631  0.71257  1.0000
  C   C20       1.0  0.49577  0.88370  0.28743  1.0000
  C   C21       1.0  0.43641  0.18367  0.76749  1.0000
  C   C22       1.0  0.56359  0.81633  0.23251  1.0000
  C   C23       1.0  0.47259  0.14597  0.85301  1.0000
  C   C24       1.0  0.52741  0.85403  0.14699  1.0000
  C   C25       1.0  0.40210  0.22126  0.91068  1.0000
  C   C26       1.0  0.59789  0.77874  0.08932  1.0000
  C   C27       1.0  0.57818  0.03647  0.88180  1.0000
  C   C28       1.0  0.42182  0.96354  0.11820  1.0000
  C   C29       1.0  0.64004  0.96619  0.82831  1.0000
  C   C30       1.0  0.35996  0.03381  0.17169  1.0000
  C   C31       1.0  0.69428  0.80857  0.71517  1.0000
  C   C32       1.0  0.30572  0.19143  0.28483  1.0000
  C   C33       1.0  0.75290  0.74300  0.65784  1.0000
  C   C34       1.0  0.24710  0.25700  0.34215  1.0000
  C   C35       1.0  0.77583  0.61182  0.69145  1.0000
  C   C36       1.0  0.22417  0.38818  0.30855  1.0000
  C   C37       1.0  0.83946  0.55616  0.77100  1.0000
  C   C38       1.0  0.16054  0.44384  0.22900  1.0000
  C   C39       1.0  0.84660  0.43271  0.80430  1.0000
  C   C40       1.0  0.15341  0.56729  0.19571  1.0000
  C   C41       1.0  0.79526  0.36794  0.75539  1.0000
  C   C42       1.0  0.20474  0.63206  0.24461  1.0000
  C   C43       1.0  0.73708  0.42850  0.67560  1.0000
  C   C44       1.0  0.26291  0.57149  0.32440  1.0000
  C   C45       1.0  0.80717  0.21373  0.04340  1.0000
  C   C46       1.0  0.19284  0.78630  0.95659  1.0000
  C   C47       1.0  0.23575  0.42227  0.03099  1.0000
  C   C48       1.0  0.76426  0.57774  0.96900  1.0000
  C   C49       1.0  0.68950  0.43740  0.22361  1.0000
  C   C50       1.0  0.31051  0.56260  0.77639  1.0000
  C   C51       1.0  0.80548  0.62319  0.42887  1.0000
  C   C52       1.0  0.19453  0.37680  0.57114  1.0000
  C   C53       1.0  0.35619  0.67203  0.51113  1.0000
  C   C54       1.0  0.64380  0.32795  0.48887  1.0000
  N   N1        1.0  0.88935  0.13097  0.02527  1.0000
  N   N2        1.0  0.11065  0.86906  0.97471  1.0000
  N   N3        1.0  0.38700  0.37680  0.05158  1.0000
  N   N4        1.0  0.61301  0.62322  0.94842  1.0000
  N   N5        1.0  0.67709  0.39899  0.16768  1.0000
  N   N6        1.0  0.32292  0.60102  0.83232  1.0000
  N   N7        1.0  0.77855  0.57626  0.37894  1.0000
  N   N8        1.0  0.22146  0.42372  0.62108  1.0000
  N   N9        1.0  0.19620  0.69341  0.49226  1.0000
  N   N10       1.0  0.80379  0.30657  0.50774  1.0000
  N   N11       1.0  0.72575  0.54796  0.64423  1.0000
  N   N12       1.0  0.27425  0.45203  0.35578  1.0000
  N   N13       1.0  0.78464  0.79493  0.57163  1.0000
  N   N14       1.0  0.21536  0.20507  0.42837  1.0000
  N   N15       1.0  0.88044  0.89341  0.40108  1.0000
  N   N16       1.0  0.11955  0.10659  0.59892  1.0000
