data_image0
_chemical_formula_structural       Zn2H26C40N16Cl2O2
_chemical_formula_sum              "Zn2 H26 C40 N16 Cl2 O2"
_cell_length_a       7.99666
_cell_length_b       9.44599
_cell_length_c       12.9018
_cell_angle_alpha    95.9034
_cell_angle_beta     99.9043
_cell_angle_gamma    109.639

_space_group_name_H-M_alt    "P 1"
_space_group_IT_number       1

loop_
  _space_group_symop_operation_xyz
  'x, y, z'

loop_
  _atom_site_type_symbol
  _atom_site_label
  _atom_site_symmetry_multiplicity
  _atom_site_fract_x
  _atom_site_fract_y
  _atom_site_fract_z
  _atom_site_occupancy
  Zn  Zn1       1.0  0.25129  0.43915  0.15433  1.0000
  Zn  Zn2       1.0  0.74870  0.56085  0.84567  1.0000
  H   H1        1.0  0.90648  0.35761  0.01541  1.0000
  H   H2        1.0  0.09352  0.64239  0.98459  1.0000
  H   H3        1.0  0.05421  0.37553  0.94567  1.0000
  H   H4        1.0  0.94579  0.62447  0.05433  1.0000
  H   H5        1.0  0.80348  0.46471  0.55472  1.0000
  H   H6        1.0  0.19652  0.53530  0.44528  1.0000
  H   H7        1.0  0.15582  0.79776  0.63292  1.0000
  H   H8        1.0  0.84417  0.20223  0.36709  1.0000
  H   H9        1.0  0.68824  0.65583  0.27144  1.0000
  H   H10       1.0  0.31176  0.34417  0.72856  1.0000
  H   H11       1.0  0.17512  0.65627  0.78398  1.0000
  H   H12       1.0  0.82488  0.34373  0.21603  1.0000
  H   H13       1.0  0.68540  0.01167  0.94137  1.0000
  H   H14       1.0  0.31460  0.98834  0.05863  1.0000
  H   H15       1.0  0.99696  0.87122  0.33211  1.0000
  H   H16       1.0  0.00304  0.12878  0.66789  1.0000
  H   H17       1.0  0.96772  0.11586  0.06779  1.0000
  H   H18       1.0  0.03228  0.88414  0.93221  1.0000
  H   H19       1.0  0.66728  0.15192  0.79176  1.0000
  H   H20       1.0  0.33272  0.84807  0.20823  1.0000
  H   H21       1.0  0.90380  0.66454  0.44133  1.0000
  H   H22       1.0  0.09620  0.33546  0.55867  1.0000
  H   H23       1.0  0.85048  0.87727  0.14218  1.0000
  H   H24       1.0  0.14951  0.12273  0.85782  1.0000
  H   H25       1.0  0.64405  0.25666  0.65043  1.0000
  H   H26       1.0  0.35595  0.74334  0.34957  1.0000
  C   C1        1.0  0.40955  0.98297  0.70096  1.0000
  C   C2        1.0  0.59045  0.01702  0.29904  1.0000
  C   C3        1.0  0.54215  0.34599  0.44449  1.0000
  C   C4        1.0  0.45785  0.65401  0.55551  1.0000
  C   C5        1.0  0.29819  0.10421  0.45431  1.0000
  C   C6        1.0  0.70181  0.89579  0.54569  1.0000
  C   C7        1.0  0.44929  0.73958  0.95939  1.0000
  C   C8        1.0  0.55071  0.26043  0.04061  1.0000
  C   C9        1.0  0.71534  0.46281  0.47942  1.0000
  C   C10       1.0  0.28465  0.53719  0.52058  1.0000
  C   C11       1.0  0.19735  0.09724  0.35005  1.0000
  C   C12       1.0  0.80266  0.90275  0.64995  1.0000
  C   C13       1.0  0.43223  0.82471  0.87269  1.0000
  C   C14       1.0  0.56777  0.17530  0.12732  1.0000
  C   C15       1.0  0.27082  0.84382  0.70124  1.0000
  C   C16       1.0  0.72918  0.15618  0.29876  1.0000
  C   C17       1.0  0.26194  0.22393  0.29834  1.0000
  C   C18       1.0  0.73807  0.77607  0.70165  1.0000
  C   C19       1.0  0.39601  0.05699  0.60808  1.0000
  C   C20       1.0  0.60400  0.94301  0.39192  1.0000
  C   C21       1.0  0.65101  0.57044  0.32248  1.0000
  C   C22       1.0  0.34899  0.42956  0.67752  1.0000
  C   C23       1.0  0.46534  0.22358  0.49836  1.0000
  C   C24       1.0  0.53466  0.77642  0.50164  1.0000
  C   C25       1.0  0.43252  0.34852  0.34543  1.0000
  C   C26       1.0  0.56749  0.65149  0.65457  1.0000
  C   C27       1.0  0.28154  0.76577  0.78594  1.0000
  C   C28       1.0  0.71846  0.23423  0.21406  1.0000
  C   C29       1.0  0.56937  0.96502  0.87371  1.0000
  C   C30       1.0  0.43063  0.03499  0.12629  1.0000
  C   C31       1.0  0.04528  0.97028  0.29388  1.0000
  C   C32       1.0  0.95472  0.02972  0.70611  1.0000
  C   C33       1.0  0.03031  0.10588  0.14720  1.0000
  C   C34       1.0  0.96969  0.89412  0.85280  1.0000
  C   C35       1.0  0.55834  0.04359  0.78909  1.0000
  C   C36       1.0  0.44166  0.95641  0.21091  1.0000
  C   C37       1.0  0.77033  0.57362  0.41729  1.0000
  C   C38       1.0  0.22967  0.42639  0.58271  1.0000
  C   C39       1.0  0.96513  0.97313  0.19078  1.0000
  C   C40       1.0  0.03487  0.02687  0.80922  1.0000
  N   N1        1.0  0.17254  0.22821  0.19984  1.0000
  N   N2        1.0  0.82747  0.77178  0.80015  1.0000
  N   N3        1.0  0.52526  0.19068  0.59596  1.0000
  N   N4        1.0  0.47474  0.80932  0.40403  1.0000
  N   N5        1.0  0.25729  0.00195  0.52241  1.0000
  N   N6        1.0  0.74271  0.99805  0.47759  1.0000
  N   N7        1.0  0.48639  0.46188  0.28832  1.0000
  N   N8        1.0  0.51361  0.53812  0.71168  1.0000
  N   N9        1.0  0.39000  0.58998  0.07108  1.0000
  N   N10       1.0  0.61000  0.41002  0.92892  1.0000
  N   N11       1.0  0.61035  0.75003  0.01996  1.0000
  N   N12       1.0  0.38965  0.24997  0.98004  1.0000
  N   N13       1.0  0.56948  0.65562  0.08946  1.0000
  N   N14       1.0  0.43051  0.34438  0.91054  1.0000
  N   N15       1.0  0.30962  0.63970  0.98998  1.0000
  N   N16       1.0  0.69037  0.36030  0.01002  1.0000
  Cl  Cl1       1.0  0.11105  0.58109  0.24346  1.0000
  Cl  Cl2       1.0  0.88895  0.41891  0.75654  1.0000
  O   O1        1.0  0.02455  0.34227  0.01170  1.0000
  O   O2        1.0  0.97544  0.65772  0.98830  1.0000
