data_image0
_chemical_formula_structural       La4H24C32O32
_chemical_formula_sum              "La4 H24 C32 O32"
_cell_length_a       9.08617
_cell_length_b       9.08616
_cell_length_c       12.8992
_cell_angle_alpha    83.7828
_cell_angle_beta     83.7827
_cell_angle_gamma    86.6105

_space_group_name_H-M_alt    "P 1"
_space_group_IT_number       1

loop_
  _space_group_symop_operation_xyz
  'x, y, z'

loop_
  _atom_site_type_symbol
  _atom_site_label
  _atom_site_symmetry_multiplicity
  _atom_site_fract_x
  _atom_site_fract_y
  _atom_site_fract_z
  _atom_site_occupancy
  La  La1       1.0  0.73986  0.80892  0.77643  1.0000
  La  La2       1.0  0.19108  0.26015  0.72357  1.0000
  La  La3       1.0  0.26014  0.19108  0.22357  1.0000
  La  La4       1.0  0.80893  0.73986  0.27643  1.0000
  H   H1        1.0  0.44839  0.82139  0.02223  1.0000
  H   H2        1.0  0.17862  0.55161  0.47778  1.0000
  H   H3        1.0  0.55162  0.17861  0.97777  1.0000
  H   H4        1.0  0.82139  0.44839  0.52223  1.0000
  H   H5        1.0  0.40458  0.62909  0.03461  1.0000
  H   H6        1.0  0.37092  0.59542  0.46539  1.0000
  H   H7        1.0  0.59543  0.37092  0.96539  1.0000
  H   H8        1.0  0.62908  0.40458  0.53461  1.0000
  H   H9        1.0  0.26562  0.78607  0.90087  1.0000
  H   H10       1.0  0.21393  0.73438  0.59914  1.0000
  H   H11       1.0  0.73439  0.21393  0.09914  1.0000
  H   H12       1.0  0.78607  0.26562  0.40087  1.0000
  H   H13       1.0  0.38179  0.64186  0.84542  1.0000
  H   H14       1.0  0.35815  0.61821  0.65459  1.0000
  H   H15       1.0  0.61821  0.35814  0.15458  1.0000
  H   H16       1.0  0.64186  0.38179  0.34542  1.0000
  H   H17       1.0  0.67072  0.67970  0.01337  1.0000
  H   H18       1.0  0.32030  0.32928  0.48663  1.0000
  H   H19       1.0  0.32929  0.32031  0.98663  1.0000
  H   H20       1.0  0.67970  0.67072  0.51337  1.0000
  H   H21       1.0  0.40142  0.91606  0.76389  1.0000
  H   H22       1.0  0.08395  0.59858  0.73611  1.0000
  H   H23       1.0  0.59858  0.08394  0.23611  1.0000
  H   H24       1.0  0.91606  0.40142  0.26390  1.0000
  C   C1        1.0  0.56366  0.91926  0.54167  1.0000
  C   C2        1.0  0.08074  0.43633  0.95832  1.0000
  C   C3        1.0  0.43633  0.08075  0.45832  1.0000
  C   C4        1.0  0.91926  0.56365  0.04167  1.0000
  C   C5        1.0  0.43539  0.02027  0.56960  1.0000
  C   C6        1.0  0.97972  0.56459  0.93040  1.0000
  C   C7        1.0  0.56460  0.97973  0.43040  1.0000
  C   C8        1.0  0.02027  0.43540  0.06960  1.0000
  C   C9        1.0  0.91060  0.97490  0.96154  1.0000
  C   C10       1.0  0.02509  0.08941  0.53846  1.0000
  C   C11       1.0  0.08941  0.02510  0.03846  1.0000
  C   C12       1.0  0.97490  0.91061  0.46153  1.0000
  C   C13       1.0  0.06455  0.01691  0.92822  1.0000
  C   C14       1.0  0.98309  0.93545  0.57178  1.0000
  C   C15       1.0  0.93544  0.98309  0.07180  1.0000
  C   C16       1.0  0.01691  0.06457  0.42821  1.0000
  C   C17       1.0  0.69269  0.19986  0.73954  1.0000
  C   C18       1.0  0.80014  0.30730  0.76046  1.0000
  C   C19       1.0  0.30730  0.80014  0.26046  1.0000
  C   C20       1.0  0.19985  0.69269  0.23953  1.0000
  C   C21       1.0  0.57329  0.31638  0.74816  1.0000
  C   C22       1.0  0.68361  0.42671  0.75185  1.0000
  C   C23       1.0  0.42670  0.68361  0.25185  1.0000
  C   C24       1.0  0.31638  0.57329  0.24815  1.0000
  C   C25       1.0  0.45712  0.71949  0.98230  1.0000
  C   C26       1.0  0.28052  0.54288  0.51770  1.0000
  C   C27       1.0  0.54289  0.28051  0.01770  1.0000
  C   C28       1.0  0.71949  0.45712  0.48230  1.0000
  C   C29       1.0  0.38090  0.74556  0.88292  1.0000
  C   C30       1.0  0.25445  0.61910  0.61709  1.0000
  C   C31       1.0  0.61910  0.25445  0.11709  1.0000
  C   C32       1.0  0.74555  0.38090  0.38292  1.0000
  O   O1        1.0  0.64058  0.82079  0.59131  1.0000
  O   O2        1.0  0.17921  0.35942  0.90869  1.0000
  O   O3        1.0  0.35941  0.17920  0.40869  1.0000
  O   O4        1.0  0.82078  0.64058  0.09132  1.0000
  O   O5        1.0  0.35590  0.04248  0.65369  1.0000
  O   O6        1.0  0.95752  0.64409  0.84630  1.0000
  O   O7        1.0  0.64410  0.95752  0.34630  1.0000
  O   O8        1.0  0.04248  0.35590  0.15369  1.0000
  O   O9        1.0  0.80146  0.94445  0.91709  1.0000
  O   O10       1.0  0.05556  0.19855  0.58291  1.0000
  O   O11       1.0  0.19855  0.05556  0.08291  1.0000
  O   O12       1.0  0.94445  0.80146  0.41708  1.0000
  O   O13       1.0  0.14435  0.03764  0.84212  1.0000
  O   O14       1.0  0.96236  0.85566  0.65787  1.0000
  O   O15       1.0  0.85567  0.96237  0.15787  1.0000
  O   O16       1.0  0.03763  0.14435  0.34212  1.0000
  O   O17       1.0  0.69801  0.06820  0.71782  1.0000
  O   O18       1.0  0.93180  0.30199  0.78218  1.0000
  O   O19       1.0  0.30198  0.93180  0.28218  1.0000
  O   O20       1.0  0.06819  0.69800  0.21782  1.0000
  O   O21       1.0  0.43423  0.32104  0.75476  1.0000
  O   O22       1.0  0.67895  0.56576  0.74525  1.0000
  O   O23       1.0  0.56577  0.67896  0.24525  1.0000
  O   O24       1.0  0.32104  0.43423  0.25475  1.0000
  O   O25       1.0  0.61071  0.67877  0.95330  1.0000
  O   O26       1.0  0.32124  0.38929  0.54670  1.0000
  O   O27       1.0  0.38930  0.32124  0.04670  1.0000
  O   O28       1.0  0.67876  0.61070  0.45331  1.0000
  O   O29       1.0  0.46197  0.85480  0.81392  1.0000
  O   O30       1.0  0.14521  0.53803  0.68609  1.0000
  O   O31       1.0  0.53803  0.14520  0.18608  1.0000
  O   O32       1.0  0.85479  0.46196  0.31392  1.0000
