data_image0
_chemical_formula_structural       Dy4H24C32O32
_chemical_formula_sum              "Dy4 H24 C32 O32"
_cell_length_a       8.83609
_cell_length_b       8.83608
_cell_length_c       12.5954
_cell_angle_alpha    83.4899
_cell_angle_beta     83.49
_cell_angle_gamma    86.9068

_space_group_name_H-M_alt    "P 1"
_space_group_IT_number       1

loop_
  _space_group_symop_operation_xyz
  'x, y, z'

loop_
  _atom_site_type_symbol
  _atom_site_label
  _atom_site_symmetry_multiplicity
  _atom_site_fract_x
  _atom_site_fract_y
  _atom_site_fract_z
  _atom_site_occupancy
  Dy  Dy1       1.0  0.73616  0.80727  0.77729  1.0000
  Dy  Dy2       1.0  0.19273  0.26384  0.72272  1.0000
  Dy  Dy3       1.0  0.26385  0.19273  0.22271  1.0000
  Dy  Dy4       1.0  0.80727  0.73616  0.27728  1.0000
  H   H1        1.0  0.44897  0.81923  0.02394  1.0000
  H   H2        1.0  0.18077  0.55103  0.47606  1.0000
  H   H3        1.0  0.55102  0.18077  0.97606  1.0000
  H   H4        1.0  0.81923  0.44897  0.52394  1.0000
  H   H5        1.0  0.40617  0.62058  0.03451  1.0000
  H   H6        1.0  0.37942  0.59383  0.46548  1.0000
  H   H7        1.0  0.59382  0.37942  0.96549  1.0000
  H   H8        1.0  0.62057  0.40617  0.53451  1.0000
  H   H9        1.0  0.26407  0.78929  0.89672  1.0000
  H   H10       1.0  0.21071  0.73594  0.60328  1.0000
  H   H11       1.0  0.73594  0.21071  0.10328  1.0000
  H   H12       1.0  0.78928  0.26406  0.39672  1.0000
  H   H13       1.0  0.38117  0.63936  0.84096  1.0000
  H   H14       1.0  0.36065  0.61883  0.65904  1.0000
  H   H15       1.0  0.61883  0.36065  0.15904  1.0000
  H   H16       1.0  0.63935  0.38117  0.34096  1.0000
  H   H17       1.0  0.41033  0.92793  0.76274  1.0000
  H   H18       1.0  0.07207  0.58967  0.73726  1.0000
  H   H19       1.0  0.58967  0.07207  0.23726  1.0000
  H   H20       1.0  0.92793  0.41033  0.26274  1.0000
  H   H21       1.0  0.67837  0.68434  0.01137  1.0000
  H   H22       1.0  0.31566  0.32163  0.48863  1.0000
  H   H23       1.0  0.32163  0.31566  0.98863  1.0000
  H   H24       1.0  0.68434  0.67837  0.51137  1.0000
  C   C1        1.0  0.56631  0.92020  0.54430  1.0000
  C   C2        1.0  0.07981  0.43369  0.95569  1.0000
  C   C3        1.0  0.43370  0.07981  0.45569  1.0000
  C   C4        1.0  0.92019  0.56631  0.04430  1.0000
  C   C5        1.0  0.43669  0.02688  0.57108  1.0000
  C   C6        1.0  0.97312  0.56332  0.92893  1.0000
  C   C7        1.0  0.56331  0.97313  0.42893  1.0000
  C   C8        1.0  0.02688  0.43668  0.07108  1.0000
  C   C9        1.0  0.91159  0.96971  0.95918  1.0000
  C   C10       1.0  0.03029  0.08841  0.54081  1.0000
  C   C11       1.0  0.08841  0.03028  0.04082  1.0000
  C   C12       1.0  0.96971  0.91159  0.45918  1.0000
  C   C13       1.0  0.06774  0.02223  0.92696  1.0000
  C   C14       1.0  0.97777  0.93225  0.57304  1.0000
  C   C15       1.0  0.93226  0.97777  0.07304  1.0000
  C   C16       1.0  0.02223  0.06774  0.42697  1.0000
  C   C17       1.0  0.69200  0.19618  0.74100  1.0000
  C   C18       1.0  0.80383  0.30802  0.75900  1.0000
  C   C19       1.0  0.30801  0.80383  0.25900  1.0000
  C   C20       1.0  0.19617  0.69198  0.24100  1.0000
  C   C21       1.0  0.56976  0.31622  0.74893  1.0000
  C   C22       1.0  0.68378  0.43024  0.75107  1.0000
  C   C23       1.0  0.43025  0.68377  0.25107  1.0000
  C   C24       1.0  0.31622  0.56976  0.24893  1.0000
  C   C25       1.0  0.45861  0.71596  0.98176  1.0000
  C   C26       1.0  0.28404  0.54139  0.51824  1.0000
  C   C27       1.0  0.54139  0.28404  0.01824  1.0000
  C   C28       1.0  0.71596  0.45861  0.48176  1.0000
  C   C29       1.0  0.38176  0.74502  0.87979  1.0000
  C   C30       1.0  0.25498  0.61824  0.62020  1.0000
  C   C31       1.0  0.61824  0.25498  0.12020  1.0000
  C   C32       1.0  0.74502  0.38176  0.37980  1.0000
  O   O1        1.0  0.64695  0.82204  0.59600  1.0000
  O   O2        1.0  0.17796  0.35306  0.90400  1.0000
  O   O3        1.0  0.35305  0.17796  0.40400  1.0000
  O   O4        1.0  0.82204  0.64695  0.09600  1.0000
  O   O5        1.0  0.35835  0.05629  0.65728  1.0000
  O   O6        1.0  0.94371  0.64165  0.84271  1.0000
  O   O7        1.0  0.64166  0.94371  0.34272  1.0000
  O   O8        1.0  0.05629  0.35835  0.15728  1.0000
  O   O9        1.0  0.80337  0.93316  0.91221  1.0000
  O   O10       1.0  0.06684  0.19661  0.58779  1.0000
  O   O11       1.0  0.19663  0.06684  0.08779  1.0000
  O   O12       1.0  0.93316  0.80338  0.41221  1.0000
  O   O13       1.0  0.15123  0.04875  0.83946  1.0000
  O   O14       1.0  0.95125  0.84876  0.66054  1.0000
  O   O15       1.0  0.84878  0.95125  0.16054  1.0000
  O   O16       1.0  0.04875  0.15122  0.33947  1.0000
  O   O17       1.0  0.69666  0.05999  0.72120  1.0000
  O   O18       1.0  0.94000  0.30335  0.77880  1.0000
  O   O19       1.0  0.30335  0.94001  0.27880  1.0000
  O   O20       1.0  0.06000  0.69665  0.22120  1.0000
  O   O21       1.0  0.42671  0.32287  0.75647  1.0000
  O   O22       1.0  0.67713  0.57329  0.74353  1.0000
  O   O23       1.0  0.57329  0.67713  0.24353  1.0000
  O   O24       1.0  0.32287  0.42670  0.25647  1.0000
  O   O25       1.0  0.61698  0.67795  0.95037  1.0000
  O   O26       1.0  0.32205  0.38303  0.54963  1.0000
  O   O27       1.0  0.38303  0.32206  0.04963  1.0000
  O   O28       1.0  0.67794  0.61698  0.45037  1.0000
  O   O29       1.0  0.47041  0.85567  0.81046  1.0000
  O   O30       1.0  0.14433  0.52959  0.68954  1.0000
  O   O31       1.0  0.52959  0.14433  0.18954  1.0000
  O   O32       1.0  0.85566  0.47041  0.31046  1.0000
