data_image0
_chemical_formula_structural       Ho4H24C32O32
_chemical_formula_sum              "Ho4 H24 C32 O32"
_cell_length_a       8.81858
_cell_length_b       8.81855
_cell_length_c       12.5732
_cell_angle_alpha    83.4529
_cell_angle_beta     83.4537
_cell_angle_gamma    86.883

_space_group_name_H-M_alt    "P 1"
_space_group_IT_number       1

loop_
  _space_group_symop_operation_xyz
  'x, y, z'

loop_
  _atom_site_type_symbol
  _atom_site_label
  _atom_site_symmetry_multiplicity
  _atom_site_fract_x
  _atom_site_fract_y
  _atom_site_fract_z
  _atom_site_occupancy
  Ho  Ho1       1.0  0.73570  0.80755  0.77763  1.0000
  Ho  Ho2       1.0  0.19245  0.26429  0.72237  1.0000
  Ho  Ho3       1.0  0.26430  0.19245  0.22237  1.0000
  Ho  Ho4       1.0  0.80755  0.73571  0.27762  1.0000
  H   H1        1.0  0.44843  0.81939  0.02447  1.0000
  H   H2        1.0  0.18061  0.55157  0.47552  1.0000
  H   H3        1.0  0.55157  0.18062  0.97553  1.0000
  H   H4        1.0  0.81939  0.44842  0.52447  1.0000
  H   H5        1.0  0.40629  0.62016  0.03478  1.0000
  H   H6        1.0  0.37983  0.59371  0.46522  1.0000
  H   H7        1.0  0.59371  0.37984  0.96522  1.0000
  H   H8        1.0  0.62017  0.40629  0.53478  1.0000
  H   H9        1.0  0.26401  0.78953  0.89653  1.0000
  H   H10       1.0  0.21047  0.73599  0.60346  1.0000
  H   H11       1.0  0.73599  0.21047  0.10347  1.0000
  H   H12       1.0  0.78953  0.26401  0.39653  1.0000
  H   H13       1.0  0.38186  0.63947  0.84080  1.0000
  H   H14       1.0  0.36053  0.61814  0.65919  1.0000
  H   H15       1.0  0.61814  0.36053  0.15920  1.0000
  H   H16       1.0  0.63947  0.38186  0.34080  1.0000
  H   H17       1.0  0.41105  0.92889  0.76285  1.0000
  H   H18       1.0  0.07111  0.58895  0.73715  1.0000
  H   H19       1.0  0.58895  0.07111  0.23715  1.0000
  H   H20       1.0  0.92889  0.41105  0.26285  1.0000
  H   H21       1.0  0.67873  0.68553  0.01162  1.0000
  H   H22       1.0  0.31447  0.32127  0.48837  1.0000
  H   H23       1.0  0.32127  0.31447  0.98838  1.0000
  H   H24       1.0  0.68554  0.67873  0.51162  1.0000
  C   C1        1.0  0.56660  0.92035  0.54455  1.0000
  C   C2        1.0  0.07966  0.43340  0.95545  1.0000
  C   C3        1.0  0.43342  0.07966  0.45545  1.0000
  C   C4        1.0  0.92034  0.56659  0.04455  1.0000
  C   C5        1.0  0.43659  0.02737  0.57113  1.0000
  C   C6        1.0  0.97263  0.56341  0.92887  1.0000
  C   C7        1.0  0.56341  0.97264  0.42888  1.0000
  C   C8        1.0  0.02736  0.43659  0.07113  1.0000
  C   C9        1.0  0.91160  0.96943  0.95910  1.0000
  C   C10       1.0  0.03058  0.08841  0.54090  1.0000
  C   C11       1.0  0.08839  0.03058  0.04089  1.0000
  C   C12       1.0  0.96942  0.91160  0.45910  1.0000
  C   C13       1.0  0.06787  0.02270  0.92676  1.0000
  C   C14       1.0  0.97730  0.93213  0.57324  1.0000
  C   C15       1.0  0.93212  0.97731  0.07323  1.0000
  C   C16       1.0  0.02270  0.06788  0.42676  1.0000
  C   C17       1.0  0.69167  0.19621  0.74109  1.0000
  C   C18       1.0  0.80380  0.30833  0.75892  1.0000
  C   C19       1.0  0.30834  0.80379  0.25891  1.0000
  C   C20       1.0  0.19621  0.69167  0.24109  1.0000
  C   C21       1.0  0.56920  0.31662  0.74889  1.0000
  C   C22       1.0  0.68338  0.43079  0.75111  1.0000
  C   C23       1.0  0.43080  0.68338  0.25110  1.0000
  C   C24       1.0  0.31662  0.56920  0.24889  1.0000
  C   C25       1.0  0.45856  0.71604  0.98206  1.0000
  C   C26       1.0  0.28395  0.54144  0.51794  1.0000
  C   C27       1.0  0.54144  0.28395  0.01794  1.0000
  C   C28       1.0  0.71605  0.45856  0.48206  1.0000
  C   C29       1.0  0.38198  0.74524  0.87981  1.0000
  C   C30       1.0  0.25476  0.61801  0.62019  1.0000
  C   C31       1.0  0.61802  0.25476  0.12019  1.0000
  C   C32       1.0  0.74524  0.38199  0.37981  1.0000
  O   O1        1.0  0.64768  0.82242  0.59650  1.0000
  O   O2        1.0  0.17759  0.35233  0.90351  1.0000
  O   O3        1.0  0.35233  0.17759  0.40351  1.0000
  O   O4        1.0  0.82241  0.64766  0.09650  1.0000
  O   O5        1.0  0.35817  0.05732  0.65744  1.0000
  O   O6        1.0  0.94268  0.64184  0.84256  1.0000
  O   O7        1.0  0.64184  0.94268  0.34256  1.0000
  O   O8        1.0  0.05731  0.35816  0.15744  1.0000
  O   O9        1.0  0.80334  0.93254  0.91204  1.0000
  O   O10       1.0  0.06746  0.19666  0.58795  1.0000
  O   O11       1.0  0.19664  0.06747  0.08795  1.0000
  O   O12       1.0  0.93253  0.80336  0.41206  1.0000
  O   O13       1.0  0.15138  0.04983  0.83904  1.0000
  O   O14       1.0  0.95017  0.84864  0.66096  1.0000
  O   O15       1.0  0.84862  0.95017  0.16095  1.0000
  O   O16       1.0  0.04984  0.15136  0.33904  1.0000
  O   O17       1.0  0.69624  0.05963  0.72155  1.0000
  O   O18       1.0  0.94037  0.30375  0.77845  1.0000
  O   O19       1.0  0.30377  0.94037  0.27844  1.0000
  O   O20       1.0  0.05963  0.69624  0.22156  1.0000
  O   O21       1.0  0.42587  0.32350  0.75621  1.0000
  O   O22       1.0  0.67650  0.57412  0.74380  1.0000
  O   O23       1.0  0.57412  0.67650  0.24379  1.0000
  O   O24       1.0  0.32350  0.42588  0.25620  1.0000
  O   O25       1.0  0.61739  0.67870  0.95051  1.0000
  O   O26       1.0  0.32129  0.38260  0.54949  1.0000
  O   O27       1.0  0.38261  0.32130  0.04949  1.0000
  O   O28       1.0  0.67871  0.61739  0.45051  1.0000
  O   O29       1.0  0.47109  0.85617  0.81059  1.0000
  O   O30       1.0  0.14383  0.52891  0.68941  1.0000
  O   O31       1.0  0.52891  0.14383  0.18942  1.0000
  O   O32       1.0  0.85617  0.47109  0.31059  1.0000
