data_image0
_chemical_formula_structural       Lu4H24C32O32
_chemical_formula_sum              "Lu4 H24 C32 O32"
_cell_length_a       8.72593
_cell_length_b       8.72594
_cell_length_c       12.4794
_cell_angle_alpha    83.5366
_cell_angle_beta     83.5369
_cell_angle_gamma    87.2732

_space_group_name_H-M_alt    "P 1"
_space_group_IT_number       1

loop_
  _space_group_symop_operation_xyz
  'x, y, z'

loop_
  _atom_site_type_symbol
  _atom_site_label
  _atom_site_symmetry_multiplicity
  _atom_site_fract_x
  _atom_site_fract_y
  _atom_site_fract_z
  _atom_site_occupancy
  Lu  Lu1       1.0  0.73425  0.80720  0.77758  1.0000
  Lu  Lu2       1.0  0.19280  0.26575  0.72242  1.0000
  Lu  Lu3       1.0  0.26575  0.19280  0.22242  1.0000
  Lu  Lu4       1.0  0.80720  0.73426  0.27758  1.0000
  H   H1        1.0  0.44843  0.81998  0.02300  1.0000
  H   H2        1.0  0.18002  0.55157  0.47700  1.0000
  H   H3        1.0  0.55158  0.18001  0.97701  1.0000
  H   H4        1.0  0.81998  0.44843  0.52299  1.0000
  H   H5        1.0  0.40469  0.61844  0.03454  1.0000
  H   H6        1.0  0.38155  0.59531  0.46546  1.0000
  H   H7        1.0  0.59531  0.38155  0.96546  1.0000
  H   H8        1.0  0.61845  0.40469  0.53454  1.0000
  H   H9        1.0  0.37754  0.63595  0.83961  1.0000
  H   H10       1.0  0.36404  0.62246  0.66039  1.0000
  H   H11       1.0  0.62246  0.36405  0.16039  1.0000
  H   H12       1.0  0.63596  0.37754  0.33961  1.0000
  H   H13       1.0  0.26161  0.78989  0.89425  1.0000
  H   H14       1.0  0.21011  0.73839  0.60575  1.0000
  H   H15       1.0  0.73839  0.21011  0.10576  1.0000
  H   H16       1.0  0.78990  0.26160  0.39425  1.0000
  H   H17       1.0  0.67978  0.68496  0.01015  1.0000
  H   H18       1.0  0.31504  0.32022  0.48985  1.0000
  H   H19       1.0  0.32022  0.31504  0.98985  1.0000
  H   H20       1.0  0.68496  0.67978  0.51015  1.0000
  H   H21       1.0  0.41231  0.93058  0.76173  1.0000
  H   H22       1.0  0.06942  0.58769  0.73827  1.0000
  H   H23       1.0  0.58769  0.06942  0.23827  1.0000
  H   H24       1.0  0.93058  0.41231  0.26173  1.0000
  C   C1        1.0  0.56670  0.91991  0.54522  1.0000
  C   C2        1.0  0.08009  0.43330  0.95478  1.0000
  C   C3        1.0  0.43330  0.08008  0.45478  1.0000
  C   C4        1.0  0.91992  0.56670  0.04522  1.0000
  C   C5        1.0  0.43641  0.02869  0.57143  1.0000
  C   C6        1.0  0.97131  0.56358  0.92858  1.0000
  C   C7        1.0  0.56358  0.97131  0.42858  1.0000
  C   C8        1.0  0.02870  0.43641  0.07142  1.0000
  C   C9        1.0  0.91074  0.96865  0.95862  1.0000
  C   C10       1.0  0.03135  0.08927  0.54138  1.0000
  C   C11       1.0  0.08927  0.03135  0.04138  1.0000
  C   C12       1.0  0.96865  0.91073  0.45862  1.0000
  C   C13       1.0  0.06815  0.02461  0.92622  1.0000
  C   C14       1.0  0.97539  0.93186  0.57378  1.0000
  C   C15       1.0  0.93185  0.97539  0.07378  1.0000
  C   C16       1.0  0.02462  0.06815  0.42622  1.0000
  C   C17       1.0  0.69140  0.19476  0.74128  1.0000
  C   C18       1.0  0.80524  0.30859  0.75872  1.0000
  C   C19       1.0  0.30859  0.80524  0.25872  1.0000
  C   C20       1.0  0.19475  0.69141  0.24129  1.0000
  C   C21       1.0  0.56814  0.31601  0.74907  1.0000
  C   C22       1.0  0.68399  0.43186  0.75093  1.0000
  C   C23       1.0  0.43186  0.68399  0.25093  1.0000
  C   C24       1.0  0.31600  0.56815  0.24907  1.0000
  C   C25       1.0  0.45751  0.71493  0.98089  1.0000
  C   C26       1.0  0.28506  0.54249  0.51911  1.0000
  C   C27       1.0  0.54249  0.28507  0.01911  1.0000
  C   C28       1.0  0.71493  0.45751  0.48088  1.0000
  C   C29       1.0  0.37992  0.74345  0.87806  1.0000
  C   C30       1.0  0.25654  0.62007  0.62194  1.0000
  C   C31       1.0  0.62008  0.25655  0.12194  1.0000
  C   C32       1.0  0.74346  0.37993  0.37805  1.0000
  O   O1        1.0  0.64823  0.82113  0.59741  1.0000
  O   O2        1.0  0.17887  0.35177  0.90259  1.0000
  O   O3        1.0  0.35177  0.17886  0.40259  1.0000
  O   O4        1.0  0.82114  0.64823  0.09741  1.0000
  O   O5        1.0  0.35749  0.06026  0.65805  1.0000
  O   O6        1.0  0.93974  0.64251  0.84195  1.0000
  O   O7        1.0  0.64250  0.93974  0.34195  1.0000
  O   O8        1.0  0.06027  0.35749  0.15805  1.0000
  O   O9        1.0  0.80154  0.93079  0.91090  1.0000
  O   O10       1.0  0.06921  0.19846  0.58909  1.0000
  O   O11       1.0  0.19846  0.06921  0.08910  1.0000
  O   O12       1.0  0.93079  0.80155  0.41091  1.0000
  O   O13       1.0  0.15177  0.05389  0.83777  1.0000
  O   O14       1.0  0.94611  0.84823  0.66223  1.0000
  O   O15       1.0  0.84823  0.94611  0.16222  1.0000
  O   O16       1.0  0.05389  0.15177  0.33777  1.0000
  O   O17       1.0  0.69561  0.05654  0.72220  1.0000
  O   O18       1.0  0.94345  0.30438  0.77780  1.0000
  O   O19       1.0  0.30438  0.94346  0.27781  1.0000
  O   O20       1.0  0.05654  0.69562  0.22220  1.0000
  O   O21       1.0  0.42343  0.32295  0.75661  1.0000
  O   O22       1.0  0.67705  0.57658  0.74339  1.0000
  O   O23       1.0  0.57657  0.67706  0.24339  1.0000
  O   O24       1.0  0.32295  0.42342  0.25661  1.0000
  O   O25       1.0  0.61760  0.67715  0.94868  1.0000
  O   O26       1.0  0.32285  0.38240  0.55132  1.0000
  O   O27       1.0  0.38240  0.32284  0.05132  1.0000
  O   O28       1.0  0.67715  0.61760  0.44868  1.0000
  O   O29       1.0  0.47217  0.85351  0.80773  1.0000
  O   O30       1.0  0.14649  0.52783  0.69227  1.0000
  O   O31       1.0  0.52783  0.14649  0.19227  1.0000
  O   O32       1.0  0.85351  0.47217  0.30773  1.0000
