data_image0
_chemical_formula_structural       Er4H24C32O32
_chemical_formula_sum              "Er4 H24 C32 O32"
_cell_length_a       8.79278
_cell_length_b       8.79282
_cell_length_c       12.553
_cell_angle_alpha    83.499
_cell_angle_beta     83.4994
_cell_angle_gamma    87.0227

_space_group_name_H-M_alt    "P 1"
_space_group_IT_number       1

loop_
  _space_group_symop_operation_xyz
  'x, y, z'

loop_
  _atom_site_type_symbol
  _atom_site_label
  _atom_site_symmetry_multiplicity
  _atom_site_fract_x
  _atom_site_fract_y
  _atom_site_fract_z
  _atom_site_occupancy
  Er  Er1       1.0  0.73520  0.80712  0.77745  1.0000
  Er  Er2       1.0  0.19289  0.26480  0.72255  1.0000
  Er  Er3       1.0  0.26480  0.19289  0.22255  1.0000
  Er  Er4       1.0  0.80712  0.73520  0.27745  1.0000
  H   H1        1.0  0.44814  0.81895  0.02395  1.0000
  H   H2        1.0  0.18105  0.55186  0.47605  1.0000
  H   H3        1.0  0.55186  0.18105  0.97605  1.0000
  H   H4        1.0  0.81895  0.44814  0.52395  1.0000
  H   H5        1.0  0.40534  0.61917  0.03409  1.0000
  H   H6        1.0  0.38084  0.59466  0.46591  1.0000
  H   H7        1.0  0.59467  0.38084  0.96591  1.0000
  H   H8        1.0  0.61916  0.40534  0.53409  1.0000
  H   H9        1.0  0.26311  0.78998  0.89580  1.0000
  H   H10       1.0  0.21002  0.73688  0.60421  1.0000
  H   H11       1.0  0.73688  0.21002  0.10421  1.0000
  H   H12       1.0  0.78998  0.26312  0.39580  1.0000
  H   H13       1.0  0.37969  0.63866  0.84015  1.0000
  H   H14       1.0  0.36134  0.62031  0.65986  1.0000
  H   H15       1.0  0.62031  0.36134  0.15986  1.0000
  H   H16       1.0  0.63866  0.37969  0.34014  1.0000
  H   H17       1.0  0.67873  0.68457  0.01093  1.0000
  H   H18       1.0  0.31543  0.32127  0.48907  1.0000
  H   H19       1.0  0.32128  0.31543  0.98907  1.0000
  H   H20       1.0  0.68457  0.67873  0.51092  1.0000
  H   H21       1.0  0.41132  0.92911  0.76217  1.0000
  H   H22       1.0  0.07090  0.58866  0.73783  1.0000
  H   H23       1.0  0.58867  0.07089  0.23783  1.0000
  H   H24       1.0  0.92911  0.41133  0.26217  1.0000
  C   C1        1.0  0.56627  0.91991  0.54466  1.0000
  C   C2        1.0  0.08010  0.43371  0.95532  1.0000
  C   C3        1.0  0.43371  0.08008  0.45533  1.0000
  C   C4        1.0  0.91993  0.56627  0.04466  1.0000
  C   C5        1.0  0.43653  0.02772  0.57117  1.0000
  C   C6        1.0  0.97228  0.56344  0.92884  1.0000
  C   C7        1.0  0.56344  0.97227  0.42884  1.0000
  C   C8        1.0  0.02773  0.43653  0.07117  1.0000
  C   C9        1.0  0.91136  0.96915  0.95894  1.0000
  C   C10       1.0  0.03085  0.08865  0.54105  1.0000
  C   C11       1.0  0.08864  0.03084  0.04106  1.0000
  C   C12       1.0  0.96917  0.91136  0.45894  1.0000
  C   C13       1.0  0.06791  0.02334  0.92670  1.0000
  C   C14       1.0  0.97666  0.93207  0.57332  1.0000
  C   C15       1.0  0.93207  0.97665  0.07333  1.0000
  C   C16       1.0  0.02335  0.06792  0.42669  1.0000
  C   C17       1.0  0.69190  0.19551  0.74115  1.0000
  C   C18       1.0  0.80449  0.30811  0.75885  1.0000
  C   C19       1.0  0.30810  0.80450  0.25885  1.0000
  C   C20       1.0  0.19551  0.69189  0.24115  1.0000
  C   C21       1.0  0.56924  0.31612  0.74905  1.0000
  C   C22       1.0  0.68388  0.43078  0.75096  1.0000
  C   C23       1.0  0.43077  0.68389  0.25096  1.0000
  C   C24       1.0  0.31612  0.56924  0.24905  1.0000
  C   C25       1.0  0.45791  0.71535  0.98139  1.0000
  C   C26       1.0  0.28466  0.54209  0.51861  1.0000
  C   C27       1.0  0.54209  0.28466  0.01861  1.0000
  C   C28       1.0  0.71534  0.45791  0.48139  1.0000
  C   C29       1.0  0.38102  0.74481  0.87908  1.0000
  C   C30       1.0  0.25519  0.61897  0.62092  1.0000
  C   C31       1.0  0.61898  0.25519  0.12092  1.0000
  C   C32       1.0  0.74481  0.38102  0.37908  1.0000
  O   O1        1.0  0.64702  0.82137  0.59665  1.0000
  O   O2        1.0  0.17863  0.35298  0.90335  1.0000
  O   O3        1.0  0.35297  0.17863  0.40335  1.0000
  O   O4        1.0  0.82137  0.64702  0.09666  1.0000
  O   O5        1.0  0.35798  0.05801  0.65755  1.0000
  O   O6        1.0  0.94198  0.64201  0.84245  1.0000
  O   O7        1.0  0.64202  0.94198  0.34244  1.0000
  O   O8        1.0  0.05802  0.35800  0.15754  1.0000
  O   O9        1.0  0.80288  0.93198  0.91164  1.0000
  O   O10       1.0  0.06801  0.19713  0.58836  1.0000
  O   O11       1.0  0.19712  0.06802  0.08837  1.0000
  O   O12       1.0  0.93199  0.80288  0.41164  1.0000
  O   O13       1.0  0.15147  0.05115  0.83883  1.0000
  O   O14       1.0  0.94885  0.84855  0.66116  1.0000
  O   O15       1.0  0.84855  0.94885  0.16116  1.0000
  O   O16       1.0  0.05115  0.15147  0.33883  1.0000
  O   O17       1.0  0.69631  0.05864  0.72139  1.0000
  O   O18       1.0  0.94136  0.30372  0.77860  1.0000
  O   O19       1.0  0.30370  0.94135  0.27860  1.0000
  O   O20       1.0  0.05864  0.69630  0.22140  1.0000
  O   O21       1.0  0.42549  0.32278  0.75685  1.0000
  O   O22       1.0  0.67720  0.57450  0.74316  1.0000
  O   O23       1.0  0.57449  0.67722  0.24316  1.0000
  O   O24       1.0  0.32279  0.42551  0.25684  1.0000
  O   O25       1.0  0.61709  0.67775  0.94970  1.0000
  O   O26       1.0  0.32225  0.38291  0.55030  1.0000
  O   O27       1.0  0.38291  0.32225  0.05030  1.0000
  O   O28       1.0  0.67775  0.61709  0.44970  1.0000
  O   O29       1.0  0.47118  0.85545  0.80970  1.0000
  O   O30       1.0  0.14455  0.52881  0.69030  1.0000
  O   O31       1.0  0.52881  0.14455  0.19030  1.0000
  O   O32       1.0  0.85545  0.47119  0.30970  1.0000
