data_image0
_chemical_formula_structural       Hg2H8C12S4N8
_chemical_formula_sum              "Hg2 H8 C12 S4 N8"
_cell_length_a       7.23884
_cell_length_b       7.24561
_cell_length_c       10.4167
_cell_angle_alpha    99.3918
_cell_angle_beta     106.034
_cell_angle_gamma    111.558

_space_group_name_H-M_alt    "P 1"
_space_group_IT_number       1

loop_
  _space_group_symop_operation_xyz
  'x, y, z'

loop_
  _atom_site_type_symbol
  _atom_site_label
  _atom_site_symmetry_multiplicity
  _atom_site_fract_x
  _atom_site_fract_y
  _atom_site_fract_z
  _atom_site_occupancy
  Hg  Hg1       1.0  0.64011  0.89029  0.75010  1.0000
  Hg  Hg2       1.0  0.35989  0.10971  0.24990  1.0000
  H   H1        1.0  0.42429  0.67183  0.96663  1.0000
  H   H2        1.0  0.20570  0.45842  0.53361  1.0000
  H   H3        1.0  0.57570  0.32817  0.03337  1.0000
  H   H4        1.0  0.79431  0.54157  0.46639  1.0000
  H   H5        1.0  0.11179  0.36288  0.96695  1.0000
  H   H6        1.0  0.89670  0.14506  0.53290  1.0000
  H   H7        1.0  0.88821  0.63712  0.03305  1.0000
  H   H8        1.0  0.10331  0.85494  0.46710  1.0000
  C   C1        1.0  0.30483  0.55333  0.86997  1.0000
  C   C2        1.0  0.18360  0.43529  0.63017  1.0000
  C   C3        1.0  0.69517  0.44667  0.13002  1.0000
  C   C4        1.0  0.81640  0.56471  0.36983  1.0000
  C   C5        1.0  0.13205  0.38250  0.86928  1.0000
  C   C6        1.0  0.01362  0.26295  0.63069  1.0000
  C   C7        1.0  0.86795  0.61750  0.13072  1.0000
  C   C8        1.0  0.98638  0.73704  0.36931  1.0000
  C   C9        1.0  0.09182  0.88753  0.88878  1.0000
  C   C10       1.0  0.49875  0.20307  0.61121  1.0000
  C   C11       1.0  0.90817  0.11246  0.11121  1.0000
  C   C12       1.0  0.50126  0.79696  0.38880  1.0000
  S   S1        1.0  0.87928  0.70836  0.75758  1.0000
  S   S2        1.0  0.45059  0.12179  0.74246  1.0000
  S   S3        1.0  0.12071  0.29163  0.24242  1.0000
  S   S4        1.0  0.54940  0.87821  0.25755  1.0000
  N   N1        1.0  0.32865  0.57882  0.75011  1.0000
  N   N2        1.0  0.67135  0.42118  0.24989  1.0000
  N   N3        1.0  0.98730  0.23706  0.74993  1.0000
  N   N4        1.0  0.01270  0.76294  0.25007  1.0000
  N   N5        1.0  0.24912  0.01181  0.98164  1.0000
  N   N6        1.0  0.53017  0.26735  0.51829  1.0000
  N   N7        1.0  0.75089  0.98820  0.01836  1.0000
  N   N8        1.0  0.46983  0.73265  0.48172  1.0000
