data_image0
_chemical_formula_structural       Hg2H16C16S4N8
_chemical_formula_sum              "Hg2 H16 C16 S4 N8"
_cell_length_a       7.82674
_cell_length_b       7.82677
_cell_length_c       11.0597
_cell_angle_alpha    101.586
_cell_angle_beta     101.585
_cell_angle_gamma    115.669

_space_group_name_H-M_alt    "P 1"
_space_group_IT_number       1

loop_
  _space_group_symop_operation_xyz
  'x, y, z'

loop_
  _atom_site_type_symbol
  _atom_site_label
  _atom_site_symmetry_multiplicity
  _atom_site_fract_x
  _atom_site_fract_y
  _atom_site_fract_z
  _atom_site_occupancy
  Hg  Hg1       1.0  0.62338  0.62301  0.99999  1.0000
  Hg  Hg2       1.0  0.87301  0.37338  0.49998  1.0000
  H   H1        1.0  0.96919  0.13128  0.17260  1.0000
  H   H2        1.0  0.96006  0.79609  0.82692  1.0000
  H   H3        1.0  0.04610  0.71008  0.32693  1.0000
  H   H4        1.0  0.38129  0.71919  0.67260  1.0000
  H   H5        1.0  0.28881  0.60058  0.17486  1.0000
  H   H6        1.0  0.42684  0.11441  0.82536  1.0000
  H   H7        1.0  0.36442  0.17686  0.32537  1.0000
  H   H8        1.0  0.85058  0.03881  0.67485  1.0000
  H   H9        1.0  0.23989  0.46399  0.28698  1.0000
  H   H10       1.0  0.17811  0.95339  0.71301  1.0000
  H   H11       1.0  0.20339  0.92813  0.21302  1.0000
  H   H12       1.0  0.71400  0.98988  0.78698  1.0000
  H   H13       1.0  0.46708  0.53993  0.24825  1.0000
  H   H14       1.0  0.29277  0.21943  0.75216  1.0000
  H   H15       1.0  0.46943  0.04278  0.25216  1.0000
  H   H16       1.0  0.78994  0.21708  0.74825  1.0000
  C   C1        1.0  0.62613  0.53140  0.64208  1.0000
  C   C2        1.0  0.88809  0.98366  0.35793  1.0000
  C   C3        1.0  0.23365  0.63808  0.85793  1.0000
  C   C4        1.0  0.78141  0.37613  0.14208  1.0000
  C   C5        1.0  0.03562  0.12384  0.09538  1.0000
  C   C6        1.0  0.02949  0.93958  0.90427  1.0000
  C   C7        1.0  0.18959  0.77951  0.40428  1.0000
  C   C8        1.0  0.37384  0.78561  0.59538  1.0000
  C   C9        1.0  0.20634  0.29256  0.09815  1.0000
  C   C10       1.0  0.19532  0.10806  0.90190  1.0000
  C   C11       1.0  0.35807  0.94534  0.40191  1.0000
  C   C12       1.0  0.54258  0.95635  0.59815  1.0000
  C   C13       1.0  0.30546  0.48409  0.20875  1.0000
  C   C14       1.0  0.27640  0.09711  0.79139  1.0000
  C   C15       1.0  0.34712  0.02642  0.29141  1.0000
  C   C16       1.0  0.73411  0.05546  0.70875  1.0000
  S   S1        1.0  0.70366  0.57488  0.51719  1.0000
  S   S2        1.0  0.05647  0.18591  0.48317  1.0000
  S   S3        1.0  0.43587  0.80643  0.98315  1.0000
  S   S4        1.0  0.82488  0.45366  0.01719  1.0000
  N   N1        1.0  0.56690  0.50985  0.73091  1.0000
  N   N2        1.0  0.77785  0.83574  0.26889  1.0000
  N   N3        1.0  0.08571  0.52782  0.76887  1.0000
  N   N4        1.0  0.75985  0.31690  0.23090  1.0000
  N   N5        1.0  0.94950  0.94858  0.99975  1.0000
  N   N6        1.0  0.19859  0.69951  0.49975  1.0000
  N   N7        1.0  0.28313  0.28273  0.00009  1.0000
  N   N8        1.0  0.53274  0.03314  0.50010  1.0000
