data_image0
_chemical_formula_structural       Hg2H16C12Br4N4
_chemical_formula_sum              "Hg2 H16 C12 Br4 N4"
_cell_length_a       4.08346
_cell_length_b       10.28
_cell_length_c       12.1569
_cell_angle_alpha    106.789
_cell_angle_beta     94.4511
_cell_angle_gamma    99.0693

_space_group_name_H-M_alt    "P 1"
_space_group_IT_number       1

loop_
  _space_group_symop_operation_xyz
  'x, y, z'

loop_
  _atom_site_type_symbol
  _atom_site_label
  _atom_site_symmetry_multiplicity
  _atom_site_fract_x
  _atom_site_fract_y
  _atom_site_fract_z
  _atom_site_occupancy
  Hg  Hg1       1.0  0.74017  0.84719  0.07653  1.0000
  Hg  Hg2       1.0  0.25982  0.15281  0.92347  1.0000
  H   H1        1.0  0.41445  0.57462  0.15699  1.0000
  H   H2        1.0  0.58555  0.42538  0.84301  1.0000
  H   H3        1.0  0.57369  0.35333  0.30229  1.0000
  H   H4        1.0  0.42632  0.64667  0.69770  1.0000
  H   H5        1.0  0.20676  0.39567  0.24600  1.0000
  H   H6        1.0  0.79325  0.60432  0.75400  1.0000
  H   H7        1.0  0.30694  0.43071  0.39976  1.0000
  H   H8        1.0  0.69306  0.56929  0.60024  1.0000
  H   H9        1.0  0.12989  0.91541  0.34618  1.0000
  H   H10       1.0  0.87011  0.08460  0.65383  1.0000
  H   H11       1.0  0.08473  0.84345  0.62088  1.0000
  H   H12       1.0  0.91527  0.15655  0.37912  1.0000
  H   H13       1.0  0.34194  0.93944  0.54848  1.0000
  H   H14       1.0  0.65805  0.06056  0.45152  1.0000
  H   H15       1.0  0.42144  0.77689  0.55739  1.0000
  H   H16       1.0  0.57856  0.22311  0.44261  1.0000
  C   C1        1.0  0.58398  0.62692  0.23709  1.0000
  C   C2        1.0  0.41602  0.37308  0.76291  1.0000
  C   C3        1.0  0.60710  0.56873  0.32822  1.0000
  C   C4        1.0  0.39290  0.43127  0.67178  1.0000
  C   C5        1.0  0.40914  0.43012  0.31864  1.0000
  C   C6        1.0  0.59087  0.56988  0.68136  1.0000
  C   C7        1.0  0.97869  0.81647  0.34295  1.0000
  C   C8        1.0  0.02131  0.18353  0.65706  1.0000
  C   C9        1.0  0.99956  0.76093  0.43515  1.0000
  C   C10       1.0  0.00045  0.23907  0.56485  1.0000
  C   C11       1.0  0.22439  0.83505  0.54618  1.0000
  C   C12       1.0  0.77561  0.16495  0.45382  1.0000
  Br  Br1       1.0  0.22539  0.66942  0.96512  1.0000
  Br  Br2       1.0  0.77460  0.33058  0.03488  1.0000
  Br  Br3       1.0  0.22458  0.05066  0.16616  1.0000
  Br  Br4       1.0  0.77542  0.94934  0.83384  1.0000
  N   N1        1.0  0.76985  0.74931  0.24543  1.0000
  N   N2        1.0  0.23016  0.25070  0.75457  1.0000
  N   N3        1.0  0.81373  0.63725  0.42646  1.0000
  N   N4        1.0  0.18627  0.36275  0.57353  1.0000
