data_image0
_chemical_formula_structural       Hg4H16C20S8N12
_chemical_formula_sum              "Hg4 H16 C20 S8 N12"
_cell_length_a       9.38498
_cell_length_b       9.3849
_cell_length_c       11.174
_cell_angle_alpha    70.0674
_cell_angle_beta     70.0673
_cell_angle_gamma    72.1421

_space_group_name_H-M_alt    "P 1"
_space_group_IT_number       1

loop_
  _space_group_symop_operation_xyz
  'x, y, z'

loop_
  _atom_site_type_symbol
  _atom_site_label
  _atom_site_symmetry_multiplicity
  _atom_site_fract_x
  _atom_site_fract_y
  _atom_site_fract_z
  _atom_site_occupancy
  Hg  Hg1       1.0  0.64841  0.82036  0.89688  1.0000
  Hg  Hg2       1.0  0.17964  0.35159  0.60312  1.0000
  Hg  Hg3       1.0  0.35159  0.17964  0.10312  1.0000
  Hg  Hg4       1.0  0.82036  0.64841  0.39688  1.0000
  H   H1        1.0  0.62656  0.45122  0.11522  1.0000
  H   H2        1.0  0.54879  0.37344  0.38479  1.0000
  H   H3        1.0  0.37344  0.54878  0.88479  1.0000
  H   H4        1.0  0.45122  0.62656  0.61522  1.0000
  H   H5        1.0  0.74331  0.26713  0.09611  1.0000
  H   H6        1.0  0.73288  0.25669  0.40389  1.0000
  H   H7        1.0  0.25669  0.73288  0.90389  1.0000
  H   H8        1.0  0.26713  0.74331  0.59611  1.0000
  H   H9        1.0  0.69461  0.41549  0.95816  1.0000
  H   H10       1.0  0.58452  0.30539  0.54185  1.0000
  H   H11       1.0  0.30539  0.58451  0.04184  1.0000
  H   H12       1.0  0.41549  0.69461  0.45815  1.0000
  H   H13       1.0  0.99864  0.77165  0.88942  1.0000
  H   H14       1.0  0.22835  0.00137  0.61057  1.0000
  H   H15       1.0  0.00136  0.22835  0.11058  1.0000
  H   H16       1.0  0.77165  0.99863  0.38943  1.0000
  C   C1        1.0  0.72604  0.39230  0.05000  1.0000
  C   C2        1.0  0.60771  0.27396  0.45000  1.0000
  C   C3        1.0  0.27396  0.60771  0.95000  1.0000
  C   C4        1.0  0.39230  0.72603  0.55000  1.0000
  C   C5        1.0  0.99997  0.64898  0.93917  1.0000
  C   C6        1.0  0.35102  0.00003  0.56082  1.0000
  C   C7        1.0  0.00003  0.35102  0.06083  1.0000
  C   C8        1.0  0.64899  0.99997  0.43917  1.0000
  C   C9        1.0  0.86771  0.45001  0.02351  1.0000
  C   C10       1.0  0.55000  0.13228  0.47649  1.0000
  C   C11       1.0  0.13229  0.54999  0.97649  1.0000
  C   C12       1.0  0.45001  0.86771  0.52351  1.0000
  C   C13       1.0  0.57220  0.69227  0.20281  1.0000
  C   C14       1.0  0.30773  0.42780  0.29719  1.0000
  C   C15       1.0  0.42780  0.30773  0.79719  1.0000
  C   C16       1.0  0.69227  0.57219  0.70280  1.0000
  C   C17       1.0  0.91216  0.83944  0.62676  1.0000
  C   C18       1.0  0.16057  0.08784  0.87325  1.0000
  C   C19       1.0  0.08784  0.16056  0.37324  1.0000
  C   C20       1.0  0.83943  0.91217  0.12676  1.0000
  S   S1        1.0  0.45024  0.78310  0.10909  1.0000
  S   S2        1.0  0.21690  0.54976  0.39091  1.0000
  S   S3        1.0  0.54975  0.21690  0.89091  1.0000
  S   S4        1.0  0.78310  0.45024  0.60908  1.0000
  S   S5        1.0  0.80507  0.97700  0.70239  1.0000
  S   S6        1.0  0.02300  0.19493  0.79762  1.0000
  S   S7        1.0  0.19492  0.02300  0.29761  1.0000
  S   S8        1.0  0.97700  0.80508  0.20239  1.0000
  N   N1        1.0  0.87111  0.60045  0.96195  1.0000
  N   N2        1.0  0.39956  0.12889  0.53804  1.0000
  N   N3        1.0  0.12889  0.39956  0.03805  1.0000
  N   N4        1.0  0.60045  0.87111  0.46195  1.0000
  N   N5        1.0  0.65448  0.62374  0.27289  1.0000
  N   N6        1.0  0.37627  0.34551  0.22711  1.0000
  N   N7        1.0  0.34552  0.37626  0.72711  1.0000
  N   N8        1.0  0.62373  0.65448  0.77289  1.0000
  N   N9        1.0  0.99131  0.74544  0.57006  1.0000
  N   N10       1.0  0.25456  0.00869  0.92994  1.0000
  N   N11       1.0  0.00868  0.25456  0.42995  1.0000
  N   N12       1.0  0.74543  0.99132  0.07006  1.0000
