data_image0
_chemical_formula_structural       Cd8H40C32O48
_chemical_formula_sum              "Cd8 H40 C32 O48"
_cell_length_a       6.33409
_cell_length_b       7.60104
_cell_length_c       27.181
_cell_angle_alpha    89.9999
_cell_angle_beta     90.0002
_cell_angle_gamma    107.096

_space_group_name_H-M_alt    "P 1"
_space_group_IT_number       1

loop_
  _space_group_symop_operation_xyz
  'x, y, z'

loop_
  _atom_site_type_symbol
  _atom_site_label
  _atom_site_symmetry_multiplicity
  _atom_site_fract_x
  _atom_site_fract_y
  _atom_site_fract_z
  _atom_site_occupancy
  Cd  Cd1       1.0  0.09812  0.81308  0.78511  1.0000
  Cd  Cd2       1.0  0.40188  0.68691  0.28510  1.0000
  Cd  Cd3       1.0  0.90188  0.18691  0.21489  1.0000
  Cd  Cd4       1.0  0.59813  0.31309  0.71490  1.0000
  Cd  Cd5       1.0  0.46845  0.79308  0.95705  1.0000
  Cd  Cd6       1.0  0.03155  0.70692  0.45705  1.0000
  Cd  Cd7       1.0  0.53155  0.20692  0.04295  1.0000
  Cd  Cd8       1.0  0.96845  0.29308  0.54295  1.0000
  H   H1        1.0  0.47099  0.18326  0.88254  1.0000
  H   H2        1.0  0.02901  0.31673  0.38253  1.0000
  H   H3        1.0  0.52901  0.81674  0.11746  1.0000
  H   H4        1.0  0.97099  0.68327  0.61747  1.0000
  H   H5        1.0  0.05274  0.29021  0.85709  1.0000
  H   H6        1.0  0.44726  0.20979  0.35709  1.0000
  H   H7        1.0  0.94725  0.70979  0.14291  1.0000
  H   H8        1.0  0.55274  0.79021  0.64291  1.0000
  H   H9        1.0  0.90011  0.16698  0.93567  1.0000
  H   H10       1.0  0.59989  0.33302  0.43567  1.0000
  H   H11       1.0  0.09989  0.83301  0.06433  1.0000
  H   H12       1.0  0.40011  0.66698  0.56433  1.0000
  H   H13       1.0  0.97969  0.83422  0.91774  1.0000
  H   H14       1.0  0.52030  0.66578  0.41774  1.0000
  H   H15       1.0  0.02031  0.16578  0.08226  1.0000
  H   H16       1.0  0.47970  0.33422  0.58227  1.0000
  H   H17       1.0  0.41001  0.60071  0.78109  1.0000
  H   H18       1.0  0.08999  0.89929  0.28108  1.0000
  H   H19       1.0  0.58999  0.39929  0.21891  1.0000
  H   H20       1.0  0.91001  0.10071  0.71892  1.0000
  H   H21       1.0  0.54634  0.80716  0.78926  1.0000
  H   H22       1.0  0.95366  0.69284  0.28926  1.0000
  H   H23       1.0  0.45366  0.19284  0.21074  1.0000
  H   H24       1.0  0.04634  0.30716  0.71074  1.0000
  H   H25       1.0  0.77934  0.50260  0.82965  1.0000
  H   H26       1.0  0.72066  0.99740  0.32965  1.0000
  H   H27       1.0  0.22066  0.49740  0.17035  1.0000
  H   H28       1.0  0.27935  0.00261  0.67035  1.0000
  H   H29       1.0  0.99732  0.55731  0.86563  1.0000
  H   H30       1.0  0.50268  0.94269  0.36563  1.0000
  H   H31       1.0  0.00268  0.44269  0.13437  1.0000
  H   H32       1.0  0.49732  0.05731  0.63437  1.0000
  H   H33       1.0  0.18777  0.49722  0.00730  1.0000
  H   H34       1.0  0.31223  0.00278  0.50730  1.0000
  H   H35       1.0  0.81223  0.50278  0.99270  1.0000
  H   H36       1.0  0.68777  0.99722  0.49270  1.0000
  H   H37       1.0  0.35700  0.60012  0.04581  1.0000
  H   H38       1.0  0.14300  0.89988  0.54581  1.0000
  H   H39       1.0  0.64300  0.39988  0.95419  1.0000
  H   H40       1.0  0.85700  0.10012  0.45419  1.0000
  C   C1        1.0  0.31965  0.16607  0.86073  1.0000
  C   C2        1.0  0.18035  0.33392  0.36072  1.0000
  C   C3        1.0  0.68035  0.83392  0.13927  1.0000
  C   C4        1.0  0.81965  0.66608  0.63928  1.0000
  C   C5        1.0  0.17489  0.27289  0.88400  1.0000
  C   C6        1.0  0.32511  0.22711  0.38400  1.0000
  C   C7        1.0  0.82510  0.72711  0.11600  1.0000
  C   C8        1.0  0.67489  0.77289  0.61600  1.0000
  C   C9        1.0  0.04904  0.13369  0.92374  1.0000
  C   C10       1.0  0.45096  0.36631  0.42374  1.0000
  C   C11       1.0  0.95096  0.86631  0.07626  1.0000
  C   C12       1.0  0.54904  0.63369  0.57626  1.0000
  C   C13       1.0  0.99968  0.95520  0.89400  1.0000
  C   C14       1.0  0.50031  0.54480  0.39400  1.0000
  C   C15       1.0  0.00031  0.04480  0.10600  1.0000
  C   C16       1.0  0.49969  0.45520  0.60600  1.0000
  C   C17       1.0  0.39368  0.22445  0.80866  1.0000
  C   C18       1.0  0.10632  0.27554  0.30866  1.0000
  C   C19       1.0  0.60632  0.77555  0.19134  1.0000
  C   C20       1.0  0.89368  0.72446  0.69134  1.0000
  C   C21       1.0  0.29444  0.46058  0.90494  1.0000
  C   C22       1.0  0.20556  0.03942  0.40494  1.0000
  C   C23       1.0  0.70556  0.53942  0.09506  1.0000
  C   C24       1.0  0.79444  0.96058  0.59506  1.0000
  C   C25       1.0  0.19385  0.14004  0.96902  1.0000
  C   C26       1.0  0.30615  0.35996  0.46902  1.0000
  C   C27       1.0  0.80615  0.85996  0.03098  1.0000
  C   C28       1.0  0.69385  0.64004  0.53098  1.0000
  C   C29       1.0  0.78906  0.92586  0.86296  1.0000
  C   C30       1.0  0.71094  0.57414  0.36296  1.0000
  C   C31       1.0  0.21094  0.07414  0.13704  1.0000
  C   C32       1.0  0.28906  0.42586  0.63704  1.0000
  O   O1        1.0  0.41105  0.72661  0.77274  1.0000
  O   O2        1.0  0.08895  0.77339  0.27274  1.0000
  O   O3        1.0  0.58895  0.27339  0.22726  1.0000
  O   O4        1.0  0.91105  0.22661  0.72726  1.0000
  O   O5        1.0  0.19136  0.97449  0.86337  1.0000
  O   O6        1.0  0.30863  0.52550  0.36337  1.0000
  O   O7        1.0  0.80864  0.02550  0.13663  1.0000
  O   O8        1.0  0.69136  0.47450  0.63663  1.0000
  O   O9        1.0  0.94145  0.55287  0.83116  1.0000
  O   O10       1.0  0.55855  0.94713  0.33115  1.0000
  O   O11       1.0  0.05855  0.44713  0.16884  1.0000
  O   O12       1.0  0.44145  0.05287  0.66885  1.0000
  O   O13       1.0  0.34924  0.10775  0.77383  1.0000
  O   O14       1.0  0.15076  0.39225  0.27383  1.0000
  O   O15       1.0  0.65076  0.89225  0.22616  1.0000
  O   O16       1.0  0.84924  0.60775  0.72617  1.0000
  O   O17       1.0  0.50880  0.39079  0.80170  1.0000
  O   O18       1.0  0.99120  0.10921  0.30170  1.0000
  O   O19       1.0  0.49120  0.60921  0.19830  1.0000
  O   O20       1.0  0.00879  0.89079  0.69830  1.0000
  O   O21       1.0  0.25807  0.62334  0.01967  1.0000
  O   O22       1.0  0.24193  0.87666  0.51967  1.0000
  O   O23       1.0  0.74194  0.37665  0.98033  1.0000
  O   O24       1.0  0.75807  0.12334  0.48033  1.0000
  O   O25       1.0  0.49465  0.49764  0.91817  1.0000
  O   O26       1.0  0.00536  0.00236  0.41817  1.0000
  O   O27       1.0  0.50535  0.50236  0.08183  1.0000
  O   O28       1.0  0.99464  0.99764  0.58183  1.0000
  O   O29       1.0  0.18282  0.57470  0.91032  1.0000
  O   O30       1.0  0.31718  0.92530  0.41032  1.0000
  O   O31       1.0  0.81718  0.42530  0.08968  1.0000
  O   O32       1.0  0.68282  0.07471  0.58968  1.0000
  O   O33       1.0  0.32116  0.03711  0.97231  1.0000
  O   O34       1.0  0.17884  0.46289  0.47231  1.0000
  O   O35       1.0  0.67884  0.96289  0.02769  1.0000
  O   O36       1.0  0.82116  0.53711  0.52769  1.0000
  O   O37       1.0  0.19230  0.25627  0.00228  1.0000
  O   O38       1.0  0.30771  0.24373  0.50228  1.0000
  O   O39       1.0  0.80770  0.74372  0.99772  1.0000
  O   O40       1.0  0.69230  0.75627  0.49772  1.0000
  O   O41       1.0  0.61361  0.92309  0.88554  1.0000
  O   O42       1.0  0.88638  0.57691  0.38555  1.0000
  O   O43       1.0  0.38639  0.07691  0.11445  1.0000
  O   O44       1.0  0.11362  0.42309  0.61445  1.0000
  O   O45       1.0  0.79907  0.90878  0.81646  1.0000
  O   O46       1.0  0.70093  0.59122  0.31646  1.0000
  O   O47       1.0  0.20093  0.09121  0.18354  1.0000
  O   O48       1.0  0.29907  0.40879  0.68354  1.0000
