data_image0
_chemical_formula_structural       Cd6H12C12N18Cl6
_chemical_formula_sum              "Cd6 H12 C12 N18 Cl6"
_cell_length_a       8.16061
_cell_length_b       8.1606
_cell_length_c       11.835
_cell_angle_alpha    91.851
_cell_angle_beta     91.8509
_cell_angle_gamma    114.981

_space_group_name_H-M_alt    "P 1"
_space_group_IT_number       1

loop_
  _space_group_symop_operation_xyz
  'x, y, z'

loop_
  _atom_site_type_symbol
  _atom_site_label
  _atom_site_symmetry_multiplicity
  _atom_site_fract_x
  _atom_site_fract_y
  _atom_site_fract_z
  _atom_site_occupancy
  Cd  Cd1       1.0  0.37333  0.62667  0.75000  1.0000
  Cd  Cd2       1.0  0.62667  0.37333  0.25000  1.0000
  Cd  Cd3       1.0  0.87087  0.44135  0.64431  1.0000
  Cd  Cd4       1.0  0.55865  0.12912  0.85569  1.0000
  Cd  Cd5       1.0  0.12913  0.55865  0.35569  1.0000
  Cd  Cd6       1.0  0.44135  0.87088  0.14431  1.0000
  H   H1        1.0  0.59607  0.72666  0.48885  1.0000
  H   H2        1.0  0.27334  0.40393  0.01115  1.0000
  H   H3        1.0  0.40393  0.27334  0.51115  1.0000
  H   H4        1.0  0.72666  0.59607  0.98885  1.0000
  H   H5        1.0  0.80744  0.08796  0.44149  1.0000
  H   H6        1.0  0.91204  0.19256  0.05851  1.0000
  H   H7        1.0  0.19256  0.91204  0.55851  1.0000
  H   H8        1.0  0.08796  0.80744  0.94149  1.0000
  H   H9        1.0  0.84109  0.85795  0.70194  1.0000
  H   H10       1.0  0.14205  0.15891  0.79806  1.0000
  H   H11       1.0  0.15891  0.14204  0.29806  1.0000
  H   H12       1.0  0.85795  0.84108  0.20194  1.0000
  C   C1        1.0  0.62674  0.85116  0.53809  1.0000
  C   C2        1.0  0.14884  0.37326  0.96191  1.0000
  C   C3        1.0  0.37326  0.14885  0.46191  1.0000
  C   C4        1.0  0.85116  0.62674  0.03809  1.0000
  C   C5        1.0  0.73108  0.02963  0.51420  1.0000
  C   C6        1.0  0.97037  0.26893  0.98580  1.0000
  C   C7        1.0  0.26892  0.97037  0.48580  1.0000
  C   C8        1.0  0.02963  0.73108  0.01420  1.0000
  C   C9        1.0  0.97642  0.87522  0.72624  1.0000
  C   C10       1.0  0.12478  0.02358  0.77376  1.0000
  C   C11       1.0  0.02358  0.12478  0.27376  1.0000
  C   C12       1.0  0.87522  0.97642  0.22624  1.0000
  N   N1        1.0  0.20048  0.79952  0.75000  1.0000
  N   N2        1.0  0.79952  0.20048  0.25000  1.0000
  N   N3        1.0  0.02809  0.73892  0.71229  1.0000
  N   N4        1.0  0.26108  0.97191  0.78771  1.0000
  N   N5        1.0  0.97191  0.26108  0.28771  1.0000
  N   N6        1.0  0.73892  0.02809  0.21229  1.0000
  N   N7        1.0  0.72732  0.13379  0.60444  1.0000
  N   N8        1.0  0.86621  0.27269  0.89556  1.0000
  N   N9        1.0  0.27268  0.86621  0.39556  1.0000
  N   N10       1.0  0.13379  0.72732  0.10444  1.0000
  N   N11       1.0  0.56498  0.85331  0.64270  1.0000
  N   N12       1.0  0.14669  0.43502  0.85729  1.0000
  N   N13       1.0  0.43502  0.14669  0.35730  1.0000
  N   N14       1.0  0.85331  0.56497  0.14271  1.0000
  N   N15       1.0  0.62685  0.02550  0.68151  1.0000
  N   N16       1.0  0.97450  0.37315  0.81849  1.0000
  N   N17       1.0  0.37315  0.97450  0.31849  1.0000
  N   N18       1.0  0.02550  0.62685  0.18151  1.0000
  Cl  Cl1       1.0  0.18279  0.44735  0.55747  1.0000
  Cl  Cl2       1.0  0.55264  0.81720  0.94253  1.0000
  Cl  Cl3       1.0  0.81721  0.55265  0.44253  1.0000
  Cl  Cl4       1.0  0.44735  0.18279  0.05747  1.0000
  Cl  Cl5       1.0  0.57093  0.42906  0.75000  1.0000
  Cl  Cl6       1.0  0.42906  0.57093  0.25000  1.0000
