data_image0
_chemical_formula_structural       Ag2H46C44N4O8
_chemical_formula_sum              "Ag2 H46 C44 N4 O8"
_cell_length_a       6.62756
_cell_length_b       11.474
_cell_length_c       14.2461
_cell_angle_alpha    120.287
_cell_angle_beta     89.9937
_cell_angle_gamma    90.0077

_space_group_name_H-M_alt    "P 1"
_space_group_IT_number       1

loop_
  _space_group_symop_operation_xyz
  'x, y, z'

loop_
  _atom_site_type_symbol
  _atom_site_label
  _atom_site_symmetry_multiplicity
  _atom_site_fract_x
  _atom_site_fract_y
  _atom_site_fract_z
  _atom_site_occupancy
  Ag  Ag1       1.0  0.25018  0.95895  0.05257  1.0000
  Ag  Ag2       1.0  0.74997  0.04105  0.94742  1.0000
  H   H1        1.0  0.25062  0.74297  0.72767  1.0000
  H   H2        1.0  0.75038  0.25703  0.27234  1.0000
  H   H3        1.0  0.24981  0.24668  0.20053  1.0000
  H   H4        1.0  0.74990  0.75331  0.79945  1.0000
  H   H5        1.0  0.24992  0.46757  0.21120  1.0000
  H   H6        1.0  0.74998  0.53242  0.78879  1.0000
  H   H7        1.0  0.25007  0.25115  0.85872  1.0000
  H   H8        1.0  0.74997  0.74885  0.14127  1.0000
  H   H9        1.0  0.25002  0.04074  0.86308  1.0000
  H   H10       1.0  0.74996  0.95926  0.13691  1.0000
  H   H11       1.0  0.25005  0.64617  0.87023  1.0000
  H   H12       1.0  0.74998  0.35384  0.12977  1.0000
  H   H13       1.0  0.25010  0.42673  0.86135  1.0000
  H   H14       1.0  0.74998  0.57327  0.13864  1.0000
  H   H15       1.0  0.24987  0.64326  0.21301  1.0000
  H   H16       1.0  0.75003  0.35673  0.78698  1.0000
  H   H17       1.0  0.24980  0.85434  0.20666  1.0000
  H   H18       1.0  0.75006  0.14566  0.79334  1.0000
  H   H19       1.0  0.11621  0.35206  0.42279  1.0000
  H   H20       1.0  0.61616  0.64793  0.57722  1.0000
  H   H21       1.0  0.88378  0.64798  0.57725  1.0000
  H   H22       1.0  0.38382  0.35204  0.42276  1.0000
  H   H23       1.0  0.06137  0.44264  0.71459  1.0000
  H   H24       1.0  0.56140  0.55734  0.28541  1.0000
  H   H25       1.0  0.93872  0.55742  0.28544  1.0000
  H   H26       1.0  0.43868  0.44260  0.71457  1.0000
  H   H27       1.0  0.92451  0.40719  0.59544  1.0000
  H   H28       1.0  0.42451  0.59280  0.40457  1.0000
  H   H29       1.0  0.07556  0.59287  0.40460  1.0000
  H   H30       1.0  0.57555  0.40714  0.59541  1.0000
  H   H31       1.0  0.92496  0.20637  0.61986  1.0000
  H   H32       1.0  0.42503  0.79361  0.38012  1.0000
  H   H33       1.0  0.07506  0.79372  0.38021  1.0000
  H   H34       1.0  0.57498  0.20631  0.61981  1.0000
  H   H35       1.0  0.05708  0.03730  0.43734  1.0000
  H   H36       1.0  0.55712  0.96270  0.56266  1.0000
  H   H37       1.0  0.94283  0.96274  0.56272  1.0000
  H   H38       1.0  0.44279  0.03727  0.43730  1.0000
  H   H39       1.0  0.92532  0.16667  0.42994  1.0000
  H   H40       1.0  0.42531  0.83332  0.57006  1.0000
  H   H41       1.0  0.07458  0.83339  0.57013  1.0000
  H   H42       1.0  0.57460  0.16663  0.42989  1.0000
  H   H43       1.0  0.24992  0.08940  0.60951  1.0000
  H   H44       1.0  0.75003  0.91059  0.39049  1.0000
  H   H45       1.0  0.24998  0.25566  0.72182  1.0000
  H   H46       1.0  0.75011  0.74433  0.27818  1.0000
  C   C1        1.0  0.24989  0.25330  0.12690  1.0000
  C   C2        1.0  0.74994  0.74668  0.87308  1.0000
  C   C3        1.0  0.24993  0.37692  0.13147  1.0000
  C   C4        1.0  0.74996  0.62307  0.86852  1.0000
  C   C5        1.0  0.24999  0.38199  0.03501  1.0000
  C   C6        1.0  0.74999  0.61800  0.96498  1.0000
  C   C7        1.0  0.25004  0.25773  0.93752  1.0000
  C   C8        1.0  0.74996  0.74227  0.06247  1.0000
  C   C9        1.0  0.25000  0.13718  0.93879  1.0000
  C   C10       1.0  0.74995  0.86281  0.06119  1.0000
  C   C11       1.0  0.25001  0.64156  0.94472  1.0000
  C   C12       1.0  0.74999  0.35844  0.05527  1.0000
  C   C13       1.0  0.25006  0.51797  0.94075  1.0000
  C   C14       1.0  0.75000  0.48203  0.05925  1.0000
  C   C15       1.0  0.25001  0.51230  0.03670  1.0000
  C   C16       1.0  0.75000  0.48770  0.96330  1.0000
  C   C17       1.0  0.24991  0.63697  0.13420  1.0000
  C   C18       1.0  0.75002  0.36302  0.86579  1.0000
  C   C19       1.0  0.24988  0.75668  0.13196  1.0000
  C   C20       1.0  0.75002  0.24332  0.86804  1.0000
  C   C21       1.0  0.24992  0.10213  0.29205  1.0000
  C   C22       1.0  0.74985  0.89789  0.70795  1.0000
  C   C23       1.0  0.24996  0.17658  0.41760  1.0000
  C   C24       1.0  0.74994  0.82342  0.58240  1.0000
  C   C25       1.0  0.25001  0.32815  0.45511  1.0000
  C   C26       1.0  0.74998  0.67184  0.54489  1.0000
  C   C27       1.0  0.25004  0.41507  0.57991  1.0000
  C   C28       1.0  0.75003  0.58493  0.42010  1.0000
  C   C29       1.0  0.25011  0.56236  0.61040  1.0000
  C   C30       1.0  0.75008  0.43764  0.38961  1.0000
  C   C31       1.0  0.06044  0.38133  0.62522  1.0000
  C   C32       1.0  0.56046  0.61866  0.37478  1.0000
  C   C33       1.0  0.93963  0.61872  0.37481  1.0000
  C   C34       1.0  0.43959  0.38129  0.62520  1.0000
  C   C35       1.0  0.06130  0.23007  0.58817  1.0000
  C   C36       1.0  0.56135  0.76992  0.41183  1.0000
  C   C37       1.0  0.93872  0.76998  0.41187  1.0000
  C   C38       1.0  0.43866  0.23004  0.58815  1.0000
  C   C39       1.0  0.06036  0.14538  0.46331  1.0000
  C   C40       1.0  0.56038  0.85460  0.53668  1.0000
  C   C41       1.0  0.93956  0.85465  0.53672  1.0000
  C   C42       1.0  0.43954  0.14537  0.46329  1.0000
  C   C43       1.0  0.24997  0.19644  0.63232  1.0000
  C   C44       1.0  0.75006  0.80356  0.36768  1.0000
  N   N1        1.0  0.24991  0.13465  0.03232  1.0000
  N   N2        1.0  0.74993  0.86534  0.96766  1.0000
  N   N3        1.0  0.24992  0.76014  0.03881  1.0000
  N   N4        1.0  0.75000  0.23986  0.96119  1.0000
  O   O1        1.0  0.42012  0.07565  0.24373  1.0000
  O   O2        1.0  0.92003  0.92443  0.75628  1.0000
  O   O3        1.0  0.57962  0.92412  0.75621  1.0000
  O   O4        1.0  0.07971  0.07584  0.24378  1.0000
  O   O5        1.0  0.24989  0.60184  0.54503  1.0000
  O   O6        1.0  0.74999  0.39815  0.45498  1.0000
  O   O7        1.0  0.25048  0.65215  0.71918  1.0000
  O   O8        1.0  0.75028  0.34785  0.28084  1.0000
