data_image0
_chemical_formula_structural       FeH8C6N8O6
_chemical_formula_sum              "Fe1 H8 C6 N8 O6"
_cell_length_a       7.13335
_cell_length_b       6.78156
_cell_length_c       8.17412
_cell_angle_alpha    106.117
_cell_angle_beta     91.8851
_cell_angle_gamma    115.897

_space_group_name_H-M_alt    "P 1"
_space_group_IT_number       1

loop_
  _space_group_symop_operation_xyz
  'x, y, z'

loop_
  _atom_site_type_symbol
  _atom_site_label
  _atom_site_symmetry_multiplicity
  _atom_site_fract_x
  _atom_site_fract_y
  _atom_site_fract_z
  _atom_site_occupancy
  Fe  Fe1       1.0  0.50004  0.49980  0.50007  1.0000
  H   H1        1.0  0.76183  0.00384  0.69972  1.0000
  H   H2        1.0  0.23797  0.99562  0.30057  1.0000
  H   H3        1.0  0.22836  0.62804  0.30832  1.0000
  H   H4        1.0  0.77152  0.37146  0.69200  1.0000
  H   H5        1.0  0.17447  0.27555  0.63088  1.0000
  H   H6        1.0  0.82535  0.72414  0.36878  1.0000
  H   H7        1.0  0.07712  0.25302  0.44821  1.0000
  H   H8        1.0  0.92333  0.74767  0.55151  1.0000
  C   C1        1.0  0.64398  0.00080  0.61009  1.0000
  C   C2        1.0  0.35595  0.99864  0.39009  1.0000
  C   C3        1.0  0.35090  0.79375  0.39401  1.0000
  C   C4        1.0  0.64907  0.20572  0.60617  1.0000
  C   C5        1.0  0.34603  0.30803  0.10999  1.0000
  C   C6        1.0  0.65389  0.69191  0.89012  1.0000
  N   N1        1.0  0.49597  0.79180  0.50339  1.0000
  N   N2        1.0  0.50410  0.20765  0.49673  1.0000
  N   N3        1.0  0.40214  0.37736  0.26080  1.0000
  N   N4        1.0  0.59803  0.62229  0.73931  1.0000
  N   N5        1.0  0.17675  0.04557  0.85016  1.0000
  N   N6        1.0  0.82313  0.95515  0.14972  1.0000
  N   N7        1.0  0.29229  0.26889  0.94532  1.0000
  N   N8        1.0  0.70759  0.73159  0.05492  1.0000
  O   O1        1.0  0.18052  0.36937  0.55506  1.0000
  O   O2        1.0  0.82000  0.63079  0.44477  1.0000
  O   O3        1.0  0.13412  0.88121  0.90702  1.0000
  O   O4        1.0  0.86567  0.11903  0.09230  1.0000
  O   O5        1.0  0.11140  0.01352  0.69209  1.0000
  O   O6        1.0  0.88845  0.98775  0.30788  1.0000
