data_image0
_chemical_formula_structural       CoH8C6N8O6
_chemical_formula_sum              "Co1 H8 C6 N8 O6"
_cell_length_a       6.61812
_cell_length_b       6.66842
_cell_length_c       8.55368
_cell_angle_alpha    107.713
_cell_angle_beta     97.4659
_cell_angle_gamma    106.206

_space_group_name_H-M_alt    "P 1"
_space_group_IT_number       1

loop_
  _space_group_symop_operation_xyz
  'x, y, z'

loop_
  _atom_site_type_symbol
  _atom_site_label
  _atom_site_symmetry_multiplicity
  _atom_site_fract_x
  _atom_site_fract_y
  _atom_site_fract_z
  _atom_site_occupancy
  Co  Co1       1.0  0.49998  0.49997  0.50002  1.0000
  H   H1        1.0  0.74586  0.97171  0.72254  1.0000
  H   H2        1.0  0.25414  0.02824  0.27747  1.0000
  H   H3        1.0  0.25966  0.65714  0.27866  1.0000
  H   H4        1.0  0.74036  0.34282  0.72136  1.0000
  H   H5        1.0  0.09825  0.43212  0.55195  1.0000
  H   H6        1.0  0.90145  0.56832  0.44779  1.0000
  H   H7        1.0  0.03321  0.24529  0.37193  1.0000
  H   H8        1.0  0.96687  0.75471  0.62805  1.0000
  C   C1        1.0  0.63642  0.98261  0.62178  1.0000
  C   C2        1.0  0.36358  0.01735  0.37824  1.0000
  C   C3        1.0  0.36725  0.81028  0.37762  1.0000
  C   C4        1.0  0.63276  0.18969  0.62240  1.0000
  C   C5        1.0  0.42816  0.31930  0.12100  1.0000
  C   C6        1.0  0.57184  0.68065  0.87902  1.0000
  N   N1        1.0  0.50352  0.79132  0.49941  1.0000
  N   N2        1.0  0.49649  0.20865  0.50062  1.0000
  N   N3        1.0  0.48347  0.39778  0.26908  1.0000
  N   N4        1.0  0.51658  0.60218  0.73097  1.0000
  N   N5        1.0  0.23531  0.04825  0.87771  1.0000
  N   N6        1.0  0.76472  0.95175  0.12233  1.0000
  N   N7        1.0  0.37357  0.25948  0.95725  1.0000
  N   N8        1.0  0.62641  0.74044  0.04281  1.0000
  O   O1        1.0  0.14141  0.39580  0.44475  1.0000
  O   O2        1.0  0.85872  0.60418  0.55518  1.0000
  O   O3        1.0  0.18411  0.91261  0.95165  1.0000
  O   O4        1.0  0.81586  0.08737  0.04835  1.0000
  O   O5        1.0  0.16128  0.99823  0.72112  1.0000
  O   O6        1.0  0.83876  0.00174  0.27893  1.0000
