data_image0
_chemical_formula_structural       Fe2H40C44N20O12
_chemical_formula_sum              "Fe2 H40 C44 N20 O12"
_cell_length_a       7.16201
_cell_length_b       11.2547
_cell_length_c       15.2014
_cell_angle_alpha    90.0002
_cell_angle_beta     103.529
_cell_angle_gamma    89.9996

_space_group_name_H-M_alt    "P 1"
_space_group_IT_number       1

loop_
  _space_group_symop_operation_xyz
  'x, y, z'

loop_
  _atom_site_type_symbol
  _atom_site_label
  _atom_site_symmetry_multiplicity
  _atom_site_fract_x
  _atom_site_fract_y
  _atom_site_fract_z
  _atom_site_occupancy
  Fe  Fe1       1.0  0.50000  0.34618  0.25000  1.0000
  Fe  Fe2       1.0  0.50000  0.65382  0.75000  1.0000
  H   H1        1.0  0.68175  0.53051  0.37785  1.0000
  H   H2        1.0  0.31823  0.53051  0.12215  1.0000
  H   H3        1.0  0.31824  0.46949  0.62215  1.0000
  H   H4        1.0  0.68177  0.46949  0.87785  1.0000
  H   H5        1.0  0.56898  0.92414  0.39671  1.0000
  H   H6        1.0  0.43102  0.92414  0.10329  1.0000
  H   H7        1.0  0.43102  0.07586  0.60329  1.0000
  H   H8        1.0  0.56897  0.07586  0.89671  1.0000
  H   H9        1.0  0.68834  0.75003  0.38416  1.0000
  H   H10       1.0  0.31166  0.75003  0.11584  1.0000
  H   H11       1.0  0.31167  0.24997  0.61584  1.0000
  H   H12       1.0  0.68834  0.24997  0.88417  1.0000
  H   H13       1.0  0.56896  0.14248  0.38992  1.0000
  H   H14       1.0  0.43105  0.14248  0.11007  1.0000
  H   H15       1.0  0.43103  0.85752  0.61008  1.0000
  H   H16       1.0  0.56895  0.85751  0.88992  1.0000
  H   H17       1.0  0.31826  0.32555  0.38435  1.0000
  H   H18       1.0  0.68174  0.32555  0.11565  1.0000
  H   H19       1.0  0.68174  0.67445  0.61565  1.0000
  H   H20       1.0  0.31826  0.67444  0.88435  1.0000
  H   H21       1.0  0.54928  0.31816  0.43090  1.0000
  H   H22       1.0  0.45072  0.31816  0.06910  1.0000
  H   H23       1.0  0.45072  0.68184  0.56910  1.0000
  H   H24       1.0  0.54928  0.68184  0.93090  1.0000
  H   H25       1.0  0.12334  0.51862  0.30366  1.0000
  H   H26       1.0  0.87665  0.51862  0.19635  1.0000
  H   H27       1.0  0.87666  0.48138  0.69634  1.0000
  H   H28       1.0  0.12335  0.48138  0.80366  1.0000
  H   H29       1.0  0.31678  0.52771  0.46037  1.0000
  H   H30       1.0  0.68321  0.52771  0.03963  1.0000
  H   H31       1.0  0.68322  0.47230  0.53963  1.0000
  H   H32       1.0  0.31679  0.47229  0.96037  1.0000
  H   H33       1.0  0.02470  0.89734  0.32243  1.0000
  H   H34       1.0  0.97529  0.89733  0.17757  1.0000
  H   H35       1.0  0.97530  0.10267  0.67757  1.0000
  H   H36       1.0  0.02470  0.10267  0.82243  1.0000
  H   H37       1.0  0.22422  0.89089  0.47680  1.0000
  H   H38       1.0  0.77578  0.89089  0.02320  1.0000
  H   H39       1.0  0.77579  0.10912  0.52320  1.0000
  H   H40       1.0  0.22421  0.10912  0.97680  1.0000
  C   C1        1.0  0.60113  0.58291  0.32158  1.0000
  C   C2        1.0  0.39886  0.58291  0.17843  1.0000
  C   C3        1.0  0.39887  0.41709  0.67843  1.0000
  C   C4        1.0  0.60114  0.41709  0.82158  1.0000
  C   C5        1.0  0.50000  0.77137  0.25000  1.0000
  C   C6        1.0  0.50000  0.22863  0.75000  1.0000
  C   C7        1.0  0.50001  0.90267  0.25000  1.0000
  C   C8        1.0  0.50000  0.09733  0.75000  1.0000
  C   C9        1.0  0.53799  0.96746  0.33094  1.0000
  C   C10       1.0  0.46202  0.96746  0.16905  1.0000
  C   C11       1.0  0.46201  0.03254  0.66906  1.0000
  C   C12       1.0  0.53798  0.03254  0.83095  1.0000
  C   C13       1.0  0.60369  0.70606  0.32412  1.0000
  C   C14       1.0  0.39631  0.70606  0.17588  1.0000
  C   C15       1.0  0.39632  0.29393  0.67588  1.0000
  C   C16       1.0  0.60370  0.29393  0.82412  1.0000
  C   C17       1.0  0.53803  0.09080  0.32795  1.0000
  C   C18       1.0  0.46198  0.09080  0.17204  1.0000
  C   C19       1.0  0.46197  0.90919  0.67205  1.0000
  C   C20       1.0  0.53802  0.90919  0.82795  1.0000
  C   C21       1.0  0.91561  0.30192  0.34563  1.0000
  C   C22       1.0  0.08439  0.30192  0.15437  1.0000
  C   C23       1.0  0.08438  0.69808  0.65437  1.0000
  C   C24       1.0  0.91560  0.69808  0.84563  1.0000
  C   C25       1.0  0.13771  0.60304  0.33954  1.0000
  C   C26       1.0  0.86228  0.60304  0.16046  1.0000
  C   C27       1.0  0.86229  0.39697  0.66046  1.0000
  C   C28       1.0  0.13772  0.39697  0.83954  1.0000
  C   C29       1.0  0.24762  0.60790  0.42780  1.0000
  C   C30       1.0  0.75238  0.60790  0.07220  1.0000
  C   C31       1.0  0.75238  0.39210  0.57220  1.0000
  C   C32       1.0  0.24762  0.39210  0.92780  1.0000
  C   C33       1.0  0.08711  0.81265  0.34883  1.0000
  C   C34       1.0  0.91288  0.81265  0.15117  1.0000
  C   C35       1.0  0.91289  0.18735  0.65117  1.0000
  C   C36       1.0  0.08712  0.18735  0.84883  1.0000
  C   C37       1.0  0.05630  0.70786  0.29735  1.0000
  C   C38       1.0  0.94369  0.70786  0.20265  1.0000
  C   C39       1.0  0.94370  0.29214  0.70265  1.0000
  C   C40       1.0  0.05630  0.29214  0.79735  1.0000
  C   C41       1.0  0.19929  0.80937  0.43686  1.0000
  C   C42       1.0  0.80071  0.80936  0.06314  1.0000
  C   C43       1.0  0.80072  0.19064  0.56314  1.0000
  C   C44       1.0  0.19929  0.19064  0.93686  1.0000
  N   N1        1.0  0.50000  0.52065  0.25000  1.0000
  N   N2        1.0  0.50000  0.47934  0.75000  1.0000
  N   N3        1.0  0.50001  0.15223  0.25000  1.0000
  N   N4        1.0  0.49999  0.84776  0.75000  1.0000
  N   N5        1.0  0.76332  0.33309  0.30403  1.0000
  N   N6        1.0  0.23668  0.33309  0.19597  1.0000
  N   N7        1.0  0.23668  0.66691  0.69597  1.0000
  N   N8        1.0  0.76333  0.66691  0.80403  1.0000
  N   N9        1.0  0.08850  0.27725  0.39354  1.0000
  N   N10       1.0  0.91150  0.27725  0.10646  1.0000
  N   N11       1.0  0.91150  0.72275  0.60646  1.0000
  N   N12       1.0  0.08850  0.72275  0.89354  1.0000
  N   N13       1.0  0.11328  0.15864  0.41694  1.0000
  N   N14       1.0  0.88672  0.15864  0.08306  1.0000
  N   N15       1.0  0.88671  0.84136  0.58306  1.0000
  N   N16       1.0  0.11329  0.84135  0.91694  1.0000
  N   N17       1.0  0.28050  0.70893  0.47610  1.0000
  N   N18       1.0  0.71949  0.70892  0.02390  1.0000
  N   N19       1.0  0.71950  0.29108  0.52390  1.0000
  N   N20       1.0  0.28051  0.29108  0.97610  1.0000
  O   O1        1.0  0.44682  0.35648  0.38067  1.0000
  O   O2        1.0  0.55318  0.35649  0.11932  1.0000
  O   O3        1.0  0.55317  0.64351  0.61932  1.0000
  O   O4        1.0  0.44683  0.64351  0.88068  1.0000
  O   O5        1.0  0.27450  0.13219  0.46535  1.0000
  O   O6        1.0  0.72550  0.13219  0.03464  1.0000
  O   O7        1.0  0.72549  0.86780  0.53464  1.0000
  O   O8        1.0  0.27451  0.86780  0.96536  1.0000
  O   O9        1.0  0.98077  0.08565  0.38988  1.0000
  O   O10       1.0  0.01923  0.08564  0.11012  1.0000
  O   O11       1.0  0.01923  0.91435  0.61011  1.0000
  O   O12       1.0  0.98079  0.91436  0.88988  1.0000
