data_image0
_chemical_formula_structural       Gd4H24C20O32
_chemical_formula_sum              "Gd4 H24 C20 O32"
_cell_length_a       9.51389
_cell_length_b       9.51395
_cell_length_c       13.8637
_cell_angle_alpha    100.051
_cell_angle_beta     100.046
_cell_angle_gamma    119.383

_space_group_name_H-M_alt    "P 1"
_space_group_IT_number       1

loop_
  _space_group_symop_operation_xyz
  'x, y, z'

loop_
  _atom_site_type_symbol
  _atom_site_label
  _atom_site_symmetry_multiplicity
  _atom_site_fract_x
  _atom_site_fract_y
  _atom_site_fract_z
  _atom_site_occupancy
  Gd  Gd1       1.0  0.74733  0.99732  0.99470  1.0000
  Gd  Gd2       1.0  0.50268  0.75269  0.50530  1.0000
  Gd  Gd3       1.0  0.25268  0.00268  0.00530  1.0000
  Gd  Gd4       1.0  0.49730  0.24730  0.49469  1.0000
  H   H1        1.0  0.56920  0.96024  0.15915  1.0000
  H   H2        1.0  0.08958  0.19815  0.15940  1.0000
  H   H3        1.0  0.53975  0.93078  0.34084  1.0000
  H   H4        1.0  0.30185  0.41042  0.34060  1.0000
  H   H5        1.0  0.43080  0.03977  0.84085  1.0000
  H   H6        1.0  0.91042  0.80185  0.84060  1.0000
  H   H7        1.0  0.46024  0.06921  0.65916  1.0000
  H   H8        1.0  0.69814  0.58958  0.65940  1.0000
  H   H9        1.0  0.73236  0.96267  0.21345  1.0000
  H   H10       1.0  0.98086  0.25041  0.21373  1.0000
  H   H11       1.0  0.53733  0.76763  0.28655  1.0000
  H   H12       1.0  0.24959  0.51911  0.28628  1.0000
  H   H13       1.0  0.26766  0.03735  0.78655  1.0000
  H   H14       1.0  0.01916  0.74962  0.78628  1.0000
  H   H15       1.0  0.46270  0.23239  0.71345  1.0000
  H   H16       1.0  0.75044  0.48090  0.71372  1.0000
  H   H17       1.0  0.09316  0.52791  0.93346  1.0000
  H   H18       1.0  0.34047  0.40577  0.93369  1.0000
  H   H19       1.0  0.97209  0.40686  0.56655  1.0000
  H   H20       1.0  0.09425  0.15955  0.56633  1.0000
  H   H21       1.0  0.90687  0.47210  0.06656  1.0000
  H   H22       1.0  0.65953  0.59422  0.06630  1.0000
  H   H23       1.0  0.02789  0.59313  0.43345  1.0000
  H   H24       1.0  0.90576  0.84045  0.43367  1.0000
  C   C1        1.0  0.35692  0.70075  0.93921  1.0000
  C   C2        1.0  0.08232  0.23867  0.93935  1.0000
  C   C3        1.0  0.79925  0.14309  0.56078  1.0000
  C   C4        1.0  0.26136  0.41770  0.56067  1.0000
  C   C5        1.0  0.64309  0.29925  0.06079  1.0000
  C   C6        1.0  0.91768  0.76133  0.06064  1.0000
  C   C7        1.0  0.20075  0.85690  0.43921  1.0000
  C   C8        1.0  0.73863  0.58230  0.43933  1.0000
  C   C9        1.0  0.21023  0.53357  0.93224  1.0000
  C   C10       1.0  0.22212  0.39887  0.93233  1.0000
  C   C11       1.0  0.96642  0.28977  0.56776  1.0000
  C   C12       1.0  0.10115  0.27790  0.56769  1.0000
  C   C13       1.0  0.78976  0.46642  0.06776  1.0000
  C   C14       1.0  0.77789  0.60114  0.06767  1.0000
  C   C15       1.0  0.03356  0.71022  0.43224  1.0000
  C   C16       1.0  0.89885  0.72210  0.43231  1.0000
  C   C17       1.0  0.67199  0.82800  0.74999  1.0000
  C   C18       1.0  0.57798  0.92203  0.75000  1.0000
  C   C19       1.0  0.32800  0.17199  0.25001  1.0000
  C   C20       1.0  0.42205  0.07800  0.25001  1.0000
  O   O1        1.0  0.33518  0.82442  0.95136  1.0000
  O   O2        1.0  0.11631  0.12725  0.95163  1.0000
  O   O3        1.0  0.67557  0.16481  0.54862  1.0000
  O   O4        1.0  0.37278  0.38369  0.54840  1.0000
  O   O5        1.0  0.66483  0.17559  0.04864  1.0000
  O   O6        1.0  0.88370  0.87276  0.04838  1.0000
  O   O7        1.0  0.32442  0.83517  0.45137  1.0000
  O   O8        1.0  0.62722  0.61632  0.45160  1.0000
  O   O9        1.0  0.65133  0.92710  0.14706  1.0000
  O   O10       1.0  0.99498  0.21864  0.14730  1.0000
  O   O11       1.0  0.57289  0.84866  0.35293  1.0000
  O   O12       1.0  0.28135  0.50502  0.35271  1.0000
  O   O13       1.0  0.34866  0.07290  0.85294  1.0000
  O   O14       1.0  0.00502  0.78135  0.85270  1.0000
  O   O15       1.0  0.42710  0.15133  0.64707  1.0000
  O   O16       1.0  0.71864  0.49498  0.64729  1.0000
  O   O17       1.0  0.49686  0.71789  0.93629  1.0000
  O   O18       1.0  0.93936  0.21851  0.93635  1.0000
  O   O19       1.0  0.78213  0.00315  0.56370  1.0000
  O   O20       1.0  0.28150  0.56065  0.56365  1.0000
  O   O21       1.0  0.50315  0.28211  0.06370  1.0000
  O   O22       1.0  0.06064  0.78149  0.06365  1.0000
  O   O23       1.0  0.21787  0.99685  0.43630  1.0000
  O   O24       1.0  0.71847  0.43935  0.43635  1.0000
  O   O25       1.0  0.75734  0.84325  0.83644  1.0000
  O   O26       1.0  0.57902  0.99315  0.83646  1.0000
  O   O27       1.0  0.65675  0.74266  0.66356  1.0000
  O   O28       1.0  0.50687  0.92099  0.66356  1.0000
  O   O29       1.0  0.24267  0.15676  0.16355  1.0000
  O   O30       1.0  0.42098  0.00687  0.16355  1.0000
  O   O31       1.0  0.34324  0.25733  0.33645  1.0000
  O   O32       1.0  0.49312  0.07900  0.33644  1.0000
