data_image0
_chemical_formula_structural       K4H64C48N16
_chemical_formula_sum              "K4 H64 C48 N16"
_cell_length_a       8.79213
_cell_length_b       9.56349
_cell_length_c       15.1618
_cell_angle_alpha    89.9998
_cell_angle_beta     89.9996
_cell_angle_gamma    103.769

_space_group_name_H-M_alt    "P 1"
_space_group_IT_number       1

loop_
  _space_group_symop_operation_xyz
  'x, y, z'

loop_
  _atom_site_type_symbol
  _atom_site_label
  _atom_site_symmetry_multiplicity
  _atom_site_fract_x
  _atom_site_fract_y
  _atom_site_fract_z
  _atom_site_occupancy
  K   K1        1.0  0.82894  0.02408  0.45194  1.0000
  K   K2        1.0  0.67106  0.97591  0.95194  1.0000
  K   K3        1.0  0.17105  0.97592  0.54806  1.0000
  K   K4        1.0  0.32894  0.02409  0.04807  1.0000
  H   H1        1.0  0.84585  0.66187  0.42868  1.0000
  H   H2        1.0  0.65415  0.33814  0.92869  1.0000
  H   H3        1.0  0.15415  0.33812  0.57132  1.0000
  H   H4        1.0  0.34584  0.66186  0.07132  1.0000
  H   H5        1.0  0.92766  0.48740  0.32789  1.0000
  H   H6        1.0  0.57236  0.51261  0.82789  1.0000
  H   H7        1.0  0.07235  0.51260  0.67212  1.0000
  H   H8        1.0  0.42766  0.48740  0.17212  1.0000
  H   H9        1.0  0.16301  0.58021  0.22801  1.0000
  H   H10       1.0  0.33704  0.41980  0.72800  1.0000
  H   H11       1.0  0.83700  0.41980  0.77200  1.0000
  H   H12       1.0  0.66300  0.58021  0.27201  1.0000
  H   H13       1.0  0.29224  0.83717  0.22998  1.0000
  H   H14       1.0  0.20782  0.16285  0.72997  1.0000
  H   H15       1.0  0.70775  0.16283  0.77002  1.0000
  H   H16       1.0  0.79222  0.83717  0.27003  1.0000
  H   H17       1.0  0.41318  0.04354  0.25104  1.0000
  H   H18       1.0  0.08684  0.95648  0.75103  1.0000
  H   H19       1.0  0.58682  0.95647  0.74896  1.0000
  H   H20       1.0  0.91317  0.04354  0.24897  1.0000
  H   H21       1.0  0.51008  0.30492  0.24724  1.0000
  H   H22       1.0  0.98992  0.69509  0.74723  1.0000
  H   H23       1.0  0.48991  0.69509  0.75276  1.0000
  H   H24       1.0  0.01008  0.30492  0.25276  1.0000
  H   H25       1.0  0.35739  0.46309  0.32810  1.0000
  H   H26       1.0  0.14260  0.53693  0.82810  1.0000
  H   H27       1.0  0.64260  0.53691  0.67190  1.0000
  H   H28       1.0  0.85740  0.46308  0.17190  1.0000
  H   H29       1.0  0.12699  0.34055  0.41727  1.0000
  H   H30       1.0  0.37301  0.65945  0.91728  1.0000
  H   H31       1.0  0.87300  0.65945  0.58273  1.0000
  H   H32       1.0  0.62700  0.34055  0.08273  1.0000
  H   H33       1.0  0.82964  0.34205  0.42319  1.0000
  H   H34       1.0  0.67037  0.65795  0.92318  1.0000
  H   H35       1.0  0.17035  0.65794  0.57681  1.0000
  H   H36       1.0  0.32963  0.34205  0.07682  1.0000
  H   H37       1.0  0.65340  0.27376  0.38493  1.0000
  H   H38       1.0  0.84660  0.72624  0.88493  1.0000
  H   H39       1.0  0.34658  0.72623  0.61507  1.0000
  H   H40       1.0  0.15340  0.27376  0.11507  1.0000
  H   H41       1.0  0.64368  0.46711  0.48883  1.0000
  H   H42       1.0  0.85633  0.53288  0.98882  1.0000
  H   H43       1.0  0.35631  0.53288  0.51117  1.0000
  H   H44       1.0  0.14366  0.46711  0.01118  1.0000
  H   H45       1.0  0.73505  0.37428  0.56664  1.0000
  H   H46       1.0  0.76495  0.62571  0.06664  1.0000
  H   H47       1.0  0.26494  0.62571  0.43335  1.0000
  H   H48       1.0  0.23505  0.37429  0.93336  1.0000
  H   H49       1.0  0.44118  0.33523  0.58367  1.0000
  H   H50       1.0  0.05882  0.66477  0.08366  1.0000
  H   H51       1.0  0.55880  0.66477  0.41633  1.0000
  H   H52       1.0  0.94117  0.33522  0.91634  1.0000
  H   H53       1.0  0.41794  0.25546  0.47807  1.0000
  H   H54       1.0  0.08206  0.74455  0.97807  1.0000
  H   H55       1.0  0.58204  0.74453  0.52193  1.0000
  H   H56       1.0  0.91794  0.25544  0.02193  1.0000
  H   H57       1.0  0.56385  0.08337  0.54599  1.0000
  H   H58       1.0  0.93614  0.91663  0.04598  1.0000
  H   H59       1.0  0.43614  0.91663  0.45401  1.0000
  H   H60       1.0  0.06386  0.08337  0.95401  1.0000
  H   H61       1.0  0.52575  0.14536  0.64145  1.0000
  H   H62       1.0  0.97423  0.85463  0.14145  1.0000
  H   H63       1.0  0.47424  0.85464  0.35854  1.0000
  H   H64       1.0  0.02576  0.14536  0.85854  1.0000
  C   C1        1.0  0.94463  0.69876  0.38347  1.0000
  C   C2        1.0  0.55538  0.30124  0.88347  1.0000
  C   C3        1.0  0.05537  0.30123  0.61653  1.0000
  C   C4        1.0  0.44463  0.69876  0.11654  1.0000
  C   C5        1.0  0.99091  0.59988  0.32848  1.0000
  C   C6        1.0  0.50911  0.40012  0.82847  1.0000
  C   C7        1.0  0.00911  0.40012  0.67152  1.0000
  C   C8        1.0  0.49090  0.59988  0.17154  1.0000
  C   C9        1.0  0.12032  0.65256  0.27211  1.0000
  C   C10       1.0  0.37971  0.34745  0.77209  1.0000
  C   C11       1.0  0.87969  0.34743  0.72790  1.0000
  C   C12       1.0  0.62032  0.65257  0.22791  1.0000
  C   C13       1.0  0.19333  0.79719  0.27384  1.0000
  C   C14       1.0  0.30670  0.20282  0.77382  1.0000
  C   C15       1.0  0.80669  0.20282  0.72616  1.0000
  C   C16       1.0  0.69331  0.79719  0.22618  1.0000
  C   C17       1.0  0.13704  0.89353  0.33025  1.0000
  C   C18       1.0  0.36298  0.10648  0.83023  1.0000
  C   C19       1.0  0.86296  0.10645  0.66975  1.0000
  C   C20       1.0  0.63704  0.89354  0.16977  1.0000
  C   C21       1.0  0.20609  0.04648  0.33157  1.0000
  C   C22       1.0  0.29391  0.95354  0.83156  1.0000
  C   C23       1.0  0.79391  0.95351  0.66844  1.0000
  C   C24       1.0  0.70609  0.04647  0.16844  1.0000
  C   C25       1.0  0.34657  0.11023  0.28480  1.0000
  C   C26       1.0  0.15343  0.88977  0.78479  1.0000
  C   C27       1.0  0.65342  0.88978  0.71521  1.0000
  C   C28       1.0  0.84658  0.11024  0.21521  1.0000
  C   C29       1.0  0.40220  0.25797  0.28291  1.0000
  C   C30       1.0  0.09781  0.74204  0.78291  1.0000
  C   C31       1.0  0.59780  0.74204  0.71709  1.0000
  C   C32       1.0  0.90219  0.25798  0.21709  1.0000
  C   C33       1.0  0.31954  0.34615  0.32861  1.0000
  C   C34       1.0  0.18045  0.65385  0.82861  1.0000
  C   C35       1.0  0.68045  0.65386  0.67139  1.0000
  C   C36       1.0  0.81955  0.34615  0.17138  1.0000
  C   C37       1.0  0.18933  0.27624  0.37746  1.0000
  C   C38       1.0  0.31067  0.72376  0.87746  1.0000
  C   C39       1.0  0.81066  0.72377  0.62254  1.0000
  C   C40       1.0  0.68933  0.27624  0.12254  1.0000
  C   C41       1.0  0.65516  0.35915  0.50971  1.0000
  C   C42       1.0  0.84484  0.64084  0.00971  1.0000
  C   C43       1.0  0.34483  0.64084  0.49028  1.0000
  C   C44       1.0  0.15515  0.35916  0.99029  1.0000
  C   C45       1.0  0.49324  0.27167  0.53708  1.0000
  C   C46       1.0  0.00677  0.72833  0.03708  1.0000
  C   C47       1.0  0.50675  0.72832  0.46292  1.0000
  C   C48       1.0  0.99323  0.27166  0.96292  1.0000
  N   N1        1.0  0.01049  0.84031  0.38561  1.0000
  N   N2        1.0  0.48953  0.15968  0.88561  1.0000
  N   N3        1.0  0.98951  0.15970  0.61439  1.0000
  N   N4        1.0  0.51049  0.84031  0.11440  1.0000
  N   N5        1.0  0.13200  0.13341  0.38127  1.0000
  N   N6        1.0  0.36800  0.86659  0.88127  1.0000
  N   N7        1.0  0.86799  0.86659  0.61873  1.0000
  N   N8        1.0  0.63200  0.13341  0.11874  1.0000
  N   N9        1.0  0.72110  0.28282  0.44062  1.0000
  N   N10       1.0  0.77890  0.71718  0.94062  1.0000
  N   N11       1.0  0.27889  0.71717  0.55938  1.0000
  N   N12       1.0  0.22110  0.28282  0.05938  1.0000
  N   N13       1.0  0.48685  0.13092  0.57782  1.0000
  N   N14       1.0  0.01314  0.86908  0.07782  1.0000
  N   N15       1.0  0.51314  0.86908  0.42218  1.0000
  N   N16       1.0  0.98686  0.13091  0.92217  1.0000
