data_image0
_chemical_formula_structural       Ho4H28C56N8O32
_chemical_formula_sum              "Ho4 H28 C56 N8 O32"
_cell_length_a       8.36667
_cell_length_b       12.2183
_cell_length_c       13.3962
_cell_angle_alpha    102.412
_cell_angle_beta     90.0002
_cell_angle_gamma    90

_space_group_name_H-M_alt    "P 1"
_space_group_IT_number       1

loop_
  _space_group_symop_operation_xyz
  'x, y, z'

loop_
  _atom_site_type_symbol
  _atom_site_label
  _atom_site_symmetry_multiplicity
  _atom_site_fract_x
  _atom_site_fract_y
  _atom_site_fract_z
  _atom_site_occupancy
  Ho  Ho1       1.0  0.73024  0.80230  0.68156  1.0000
  Ho  Ho2       1.0  0.76976  0.80230  0.18156  1.0000
  Ho  Ho3       1.0  0.26976  0.19770  0.31844  1.0000
  Ho  Ho4       1.0  0.23024  0.19770  0.81844  1.0000
  H   H1        1.0  0.40314  0.66219  0.65786  1.0000
  H   H2        1.0  0.09686  0.66219  0.15786  1.0000
  H   H3        1.0  0.59687  0.33781  0.34214  1.0000
  H   H4        1.0  0.90313  0.33781  0.84214  1.0000
  H   H5        1.0  0.71063  0.33743  0.59420  1.0000
  H   H6        1.0  0.78937  0.33743  0.09420  1.0000
  H   H7        1.0  0.28937  0.66257  0.40580  1.0000
  H   H8        1.0  0.21063  0.66257  0.90580  1.0000
  H   H9        1.0  0.01064  0.30747  0.59272  1.0000
  H   H10       1.0  0.48936  0.30747  0.09272  1.0000
  H   H11       1.0  0.98936  0.69253  0.40728  1.0000
  H   H12       1.0  0.51064  0.69253  0.90728  1.0000
  H   H13       1.0  0.18939  0.47592  0.62511  1.0000
  H   H14       1.0  0.31061  0.47592  0.12511  1.0000
  H   H15       1.0  0.81061  0.52408  0.37489  1.0000
  H   H16       1.0  0.68939  0.52408  0.87489  1.0000
  H   H17       1.0  0.40739  0.84273  0.33413  1.0000
  H   H18       1.0  0.09262  0.84273  0.83413  1.0000
  H   H19       1.0  0.59262  0.15727  0.66587  1.0000
  H   H20       1.0  0.90738  0.15727  0.16587  1.0000
  H   H21       1.0  0.15107  0.91592  0.42115  1.0000
  H   H22       1.0  0.34893  0.91592  0.92115  1.0000
  H   H23       1.0  0.84893  0.08408  0.57885  1.0000
  H   H24       1.0  0.65107  0.08408  0.07885  1.0000
  H   H25       1.0  0.14509  0.97186  0.61325  1.0000
  H   H26       1.0  0.35491  0.97186  0.11326  1.0000
  H   H27       1.0  0.85491  0.02814  0.38674  1.0000
  H   H28       1.0  0.64509  0.02814  0.88674  1.0000
  C   C1        1.0  0.56029  0.53859  0.62857  1.0000
  C   C2        1.0  0.93971  0.53859  0.12857  1.0000
  C   C3        1.0  0.43971  0.46141  0.37143  1.0000
  C   C4        1.0  0.06029  0.46141  0.87143  1.0000
  C   C5        1.0  0.73570  0.51658  0.62683  1.0000
  C   C6        1.0  0.76430  0.51658  0.12683  1.0000
  C   C7        1.0  0.26430  0.48342  0.37317  1.0000
  C   C8        1.0  0.23570  0.48342  0.87317  1.0000
  C   C9        1.0  0.79418  0.40723  0.60809  1.0000
  C   C10       1.0  0.70581  0.40723  0.10809  1.0000
  C   C11       1.0  0.20582  0.59277  0.39191  1.0000
  C   C12       1.0  0.29419  0.59277  0.89191  1.0000
  C   C13       1.0  0.95903  0.39122  0.60800  1.0000
  C   C14       1.0  0.54097  0.39122  0.10800  1.0000
  C   C15       1.0  0.04097  0.60878  0.39200  1.0000
  C   C16       1.0  0.45903  0.60878  0.89200  1.0000
  C   C17       1.0  0.05959  0.48466  0.62576  1.0000
  C   C18       1.0  0.44041  0.48466  0.12576  1.0000
  C   C19       1.0  0.94041  0.51534  0.37424  1.0000
  C   C20       1.0  0.55959  0.51534  0.87424  1.0000
  C   C21       1.0  0.99100  0.59142  0.64372  1.0000
  C   C22       1.0  0.50900  0.59142  0.14372  1.0000
  C   C23       1.0  0.00900  0.40858  0.35628  1.0000
  C   C24       1.0  0.49100  0.40858  0.85628  1.0000
  C   C25       1.0  0.08708  0.69900  0.66441  1.0000
  C   C26       1.0  0.41292  0.69900  0.16441  1.0000
  C   C27       1.0  0.91292  0.30100  0.33559  1.0000
  C   C28       1.0  0.58707  0.30100  0.83558  1.0000
  C   C29       1.0  0.68480  0.79213  0.43719  1.0000
  C   C30       1.0  0.81520  0.79213  0.93719  1.0000
  C   C31       1.0  0.31520  0.20787  0.56281  1.0000
  C   C32       1.0  0.18480  0.20787  0.06281  1.0000
  C   C33       1.0  0.52569  0.84142  0.47701  1.0000
  C   C34       1.0  0.97431  0.84142  0.97701  1.0000
  C   C35       1.0  0.47431  0.15858  0.52299  1.0000
  C   C36       1.0  0.02569  0.15858  0.02299  1.0000
  C   C37       1.0  0.39693  0.86104  0.41710  1.0000
  C   C38       1.0  0.10307  0.86104  0.91710  1.0000
  C   C39       1.0  0.60307  0.13896  0.58290  1.0000
  C   C40       1.0  0.89693  0.13896  0.08290  1.0000
  C   C41       1.0  0.25555  0.90425  0.46605  1.0000
  C   C42       1.0  0.24445  0.90425  0.96606  1.0000
  C   C43       1.0  0.74445  0.09574  0.53395  1.0000
  C   C44       1.0  0.75555  0.09575  0.03395  1.0000
  C   C45       1.0  0.25055  0.93414  0.57230  1.0000
  C   C46       1.0  0.24945  0.93414  0.07230  1.0000
  C   C47       1.0  0.74945  0.06586  0.42770  1.0000
  C   C48       1.0  0.75055  0.06586  0.92770  1.0000
  C   C49       1.0  0.38591  0.91362  0.62621  1.0000
  C   C50       1.0  0.11409  0.91361  0.12621  1.0000
  C   C51       1.0  0.61409  0.08638  0.37379  1.0000
  C   C52       1.0  0.88591  0.08638  0.87380  1.0000
  C   C53       1.0  0.40056  0.94338  0.74041  1.0000
  C   C54       1.0  0.09944  0.94338  0.24041  1.0000
  C   C55       1.0  0.59944  0.05662  0.25959  1.0000
  C   C56       1.0  0.90056  0.05662  0.75959  1.0000
  N   N1        1.0  0.83185  0.60658  0.64462  1.0000
  N   N2        1.0  0.66815  0.60658  0.14462  1.0000
  N   N3        1.0  0.16815  0.39342  0.35538  1.0000
  N   N4        1.0  0.33185  0.39342  0.85538  1.0000
  N   N5        1.0  0.51717  0.86488  0.57955  1.0000
  N   N6        1.0  0.98284  0.86488  0.07954  1.0000
  N   N7        1.0  0.48283  0.13512  0.42046  1.0000
  N   N8        1.0  0.01717  0.13512  0.92046  1.0000
  O   O1        1.0  0.52623  0.64937  0.65230  1.0000
  O   O2        1.0  0.97377  0.64937  0.15230  1.0000
  O   O3        1.0  0.47378  0.35063  0.34770  1.0000
  O   O4        1.0  0.02622  0.35063  0.84770  1.0000
  O   O5        1.0  0.45898  0.46478  0.61133  1.0000
  O   O6        1.0  0.04102  0.46479  0.11133  1.0000
  O   O7        1.0  0.54102  0.53522  0.38867  1.0000
  O   O8        1.0  0.95898  0.53522  0.88867  1.0000
  O   O9        1.0  0.00656  0.78919  0.67384  1.0000
  O   O10       1.0  0.49344  0.78919  0.17384  1.0000
  O   O11       1.0  0.99344  0.21081  0.32616  1.0000
  O   O12       1.0  0.50655  0.21081  0.82616  1.0000
  O   O13       1.0  0.23642  0.69557  0.67445  1.0000
  O   O14       1.0  0.26358  0.69557  0.17445  1.0000
  O   O15       1.0  0.76358  0.30443  0.32555  1.0000
  O   O16       1.0  0.73642  0.30443  0.82554  1.0000
  O   O17       1.0  0.77786  0.76725  0.50416  1.0000
  O   O18       1.0  0.72215  0.76725  0.00416  1.0000
  O   O19       1.0  0.22214  0.23275  0.49584  1.0000
  O   O20       1.0  0.27786  0.23275  0.99584  1.0000
  O   O21       1.0  0.71707  0.77952  0.34310  1.0000
  O   O22       1.0  0.78292  0.77951  0.84311  1.0000
  O   O23       1.0  0.28293  0.22048  0.65690  1.0000
  O   O24       1.0  0.21708  0.22048  0.15690  1.0000
  O   O25       1.0  0.50769  0.89256  0.77994  1.0000
  O   O26       1.0  0.99231  0.89256  0.27994  1.0000
  O   O27       1.0  0.49231  0.10744  0.22005  1.0000
  O   O28       1.0  0.00768  0.10744  0.72006  1.0000
  O   O29       1.0  0.30825  0.01835  0.78991  1.0000
  O   O30       1.0  0.19175  0.01834  0.28992  1.0000
  O   O31       1.0  0.69175  0.98166  0.21009  1.0000
  O   O32       1.0  0.80825  0.98166  0.71008  1.0000
