data_image0
_chemical_formula_structural       Dy2H32C32N20Cl2O12
_chemical_formula_sum              "Dy2 H32 C32 N20 Cl2 O12"
_cell_length_a       8.98149
_cell_length_b       10.9215
_cell_length_c       12.7895
_cell_angle_alpha    115.281
_cell_angle_beta     106.39
_cell_angle_gamma    89.9584

_space_group_name_H-M_alt    "P 1"
_space_group_IT_number       1

loop_
  _space_group_symop_operation_xyz
  'x, y, z'

loop_
  _atom_site_type_symbol
  _atom_site_label
  _atom_site_symmetry_multiplicity
  _atom_site_fract_x
  _atom_site_fract_y
  _atom_site_fract_z
  _atom_site_occupancy
  Dy  Dy1       1.0  0.74985  0.06851  0.00001  1.0000
  Dy  Dy2       1.0  0.25016  0.93149  1.00000  1.0000
  H   H1        1.0  0.01594  0.22237  0.00602  1.0000
  H   H2        1.0  0.48387  0.21675  0.99440  1.0000
  H   H3        1.0  0.98407  0.77764  0.99398  1.0000
  H   H4        1.0  0.51614  0.78324  0.00560  1.0000
  H   H5        1.0  0.46567  0.27117  0.31485  1.0000
  H   H6        1.0  0.03419  0.95739  0.68551  1.0000
  H   H7        1.0  0.53433  0.72885  0.68514  1.0000
  H   H8        1.0  0.96581  0.04261  0.31449  1.0000
  H   H9        1.0  0.52619  0.14005  0.35818  1.0000
  H   H10       1.0  0.97460  0.78284  0.64222  1.0000
  H   H11       1.0  0.47378  0.85996  0.64181  1.0000
  H   H12       1.0  0.02541  0.21716  0.35778  1.0000
  H   H13       1.0  0.99616  0.17670  0.61960  1.0000
  H   H14       1.0  0.50432  0.55727  0.38055  1.0000
  H   H15       1.0  0.00384  0.82330  0.38040  1.0000
  H   H16       1.0  0.49568  0.44272  0.61945  1.0000
  H   H17       1.0  0.12636  0.60578  0.73398  1.0000
  H   H18       1.0  0.37370  0.87184  0.26589  1.0000
  H   H19       1.0  0.87363  0.39423  0.26602  1.0000
  H   H20       1.0  0.62631  0.12816  0.73412  1.0000
  H   H21       1.0  0.40629  0.41582  0.92065  1.0000
  H   H22       1.0  0.09419  0.49526  0.07936  1.0000
  H   H23       1.0  0.59371  0.58417  0.07934  1.0000
  H   H24       1.0  0.90582  0.50474  0.92064  1.0000
  H   H25       1.0  0.23775  0.19123  0.78707  1.0000
  H   H26       1.0  0.26289  0.40440  0.21316  1.0000
  H   H27       1.0  0.76225  0.80877  0.21292  1.0000
  H   H28       1.0  0.73711  0.59559  0.78684  1.0000
  H   H29       1.0  0.86179  0.26852  0.93415  1.0000
  H   H30       1.0  0.63801  0.33466  0.06611  1.0000
  H   H31       1.0  0.13822  0.73148  0.06586  1.0000
  H   H32       1.0  0.36199  0.66534  0.93389  1.0000
  C   C1        1.0  0.59876  0.13513  0.21004  1.0000
  C   C2        1.0  0.90132  0.92562  0.79017  1.0000
  C   C3        1.0  0.40123  0.86486  0.78996  1.0000
  C   C4        1.0  0.09869  0.07438  0.20984  1.0000
  C   C5        1.0  0.56271  0.21327  0.32952  1.0000
  C   C6        1.0  0.93750  0.88457  0.67079  1.0000
  C   C7        1.0  0.43728  0.78674  0.67048  1.0000
  C   C8        1.0  0.06250  0.11544  0.32922  1.0000
  C   C9        1.0  0.90367  0.38423  0.56888  1.0000
  C   C10       1.0  0.59647  0.81542  0.43116  1.0000
  C   C11       1.0  0.09632  0.61578  0.43112  1.0000
  C   C12       1.0  0.40353  0.18458  0.56885  1.0000
  C   C13       1.0  0.04431  0.38975  0.66293  1.0000
  C   C14       1.0  0.45595  0.72689  0.33708  1.0000
  C   C15       1.0  0.95568  0.61025  0.33707  1.0000
  C   C16       1.0  0.54406  0.27310  0.66293  1.0000
  C   C17       1.0  0.07646  0.27170  0.67855  1.0000
  C   C18       1.0  0.42395  0.59328  0.32153  1.0000
  C   C19       1.0  0.92353  0.72830  0.32145  1.0000
  C   C20       1.0  0.57605  0.40671  0.67847  1.0000
  C   C21       1.0  0.14649  0.51128  0.74197  1.0000
  C   C22       1.0  0.35371  0.76939  0.25796  1.0000
  C   C23       1.0  0.85351  0.48872  0.25803  1.0000
  C   C24       1.0  0.64630  0.23061  0.74204  1.0000
  C   C25       1.0  0.30300  0.40524  0.84606  1.0000
  C   C26       1.0  0.19743  0.55930  0.15391  1.0000
  C   C27       1.0  0.69700  0.59475  0.15393  1.0000
  C   C28       1.0  0.80258  0.44069  0.84608  1.0000
  C   C29       1.0  0.20861  0.27955  0.77073  1.0000
  C   C30       1.0  0.29189  0.50898  0.22931  1.0000
  C   C31       1.0  0.79138  0.72045  0.22926  1.0000
  C   C32       1.0  0.70811  0.49102  0.77069  1.0000
  N   N1        1.0  0.81016  0.26628  0.48904  1.0000
  N   N2        1.0  0.69022  0.77751  0.51113  1.0000
  N   N3        1.0  0.18983  0.73373  0.51096  1.0000
  N   N4        1.0  0.30978  0.22249  0.48888  1.0000
  N   N5        1.0  0.69437  0.30788  0.42735  1.0000
  N   N6        1.0  0.80572  0.88095  0.57279  1.0000
  N   N7        1.0  0.30563  0.69213  0.57264  1.0000
  N   N8        1.0  0.19428  0.11906  0.42721  1.0000
  N   N9        1.0  0.71209  0.44319  0.46347  1.0000
  N   N10       1.0  0.78760  0.98002  0.53653  1.0000
  N   N11       1.0  0.28790  0.55682  0.53654  1.0000
  N   N12       1.0  0.21239  0.01998  0.46347  1.0000
  N   N13       1.0  0.84497  0.49305  0.55359  1.0000
  N   N14       1.0  0.65478  0.93956  0.44635  1.0000
  N   N15       1.0  0.15502  0.50695  0.44642  1.0000
  N   N16       1.0  0.34522  0.06044  0.55365  1.0000
  N   N17       1.0  0.27248  0.51852  0.83193  1.0000
  N   N18       1.0  0.22776  0.68670  0.16801  1.0000
  N   N19       1.0  0.72752  0.48148  0.16807  1.0000
  N   N20       1.0  0.77224  0.31329  0.83199  1.0000
  Cl  Cl1       1.0  0.75000  0.81949  0.99974  1.0000
  Cl  Cl2       1.0  0.25000  0.18051  0.00026  1.0000
  O   O1        1.0  0.49537  0.03855  0.12626  1.0000
  O   O2        1.0  0.00492  0.91292  0.87395  1.0000
  O   O3        1.0  0.50464  0.96146  0.87374  1.0000
  O   O4        1.0  0.99508  0.08708  0.12604  1.0000
  O   O5        1.0  0.72611  0.16993  0.19962  1.0000
  O   O6        1.0  0.77369  0.97044  0.80046  1.0000
  O   O7        1.0  0.27390  0.83007  0.80038  1.0000
  O   O8        1.0  0.22630  0.02957  0.19954  1.0000
  O   O9        1.0  0.90688  0.23925  0.00295  1.0000
  O   O10       1.0  0.59285  0.23661  0.99734  1.0000
  O   O11       1.0  0.09312  0.76075  0.99705  1.0000
  O   O12       1.0  0.40715  0.76338  0.00266  1.0000
