data_image0
_chemical_formula_structural       Pr2H32C32N20Cl2O12
_chemical_formula_sum              "Pr2 H32 C32 N20 Cl2 O12"
_cell_length_a       8.75346
_cell_length_b       11.1442
_cell_length_c       13.0825
_cell_angle_alpha    115.189
_cell_angle_beta     105.636
_cell_angle_gamma    89.9916

_space_group_name_H-M_alt    "P 1"
_space_group_IT_number       1

loop_
  _space_group_symop_operation_xyz
  'x, y, z'

loop_
  _atom_site_type_symbol
  _atom_site_label
  _atom_site_symmetry_multiplicity
  _atom_site_fract_x
  _atom_site_fract_y
  _atom_site_fract_z
  _atom_site_occupancy
  Pr  Pr1       1.0  0.75003  0.44708  0.00002  1.0000
  Pr  Pr2       1.0  0.24997  0.55292  0.99998  1.0000
  H   H1        1.0  0.52923  0.70275  0.34557  1.0000
  H   H2        1.0  0.97054  0.35699  0.65425  1.0000
  H   H3        1.0  0.47077  0.29725  0.65443  1.0000
  H   H4        1.0  0.02946  0.64301  0.34574  1.0000
  H   H5        1.0  0.47474  0.53212  0.30634  1.0000
  H   H6        1.0  0.02542  0.22581  0.69375  1.0000
  H   H7        1.0  0.52526  0.46788  0.69366  1.0000
  H   H8        1.0  0.97458  0.77419  0.30625  1.0000
  H   H9        1.0  0.00345  0.93608  0.61801  1.0000
  H   H10       1.0  0.49662  0.31763  0.38199  1.0000
  H   H11       1.0  0.99656  0.06392  0.38198  1.0000
  H   H12       1.0  0.50338  0.68237  0.61801  1.0000
  H   H13       1.0  0.39855  0.00020  0.92434  1.0000
  H   H14       1.0  0.10145  0.07572  0.07571  1.0000
  H   H15       1.0  0.60145  0.99980  0.07566  1.0000
  H   H16       1.0  0.89855  0.92428  0.92429  1.0000
  H   H17       1.0  0.11644  0.63126  0.73739  1.0000
  H   H18       1.0  0.38354  0.89356  0.26268  1.0000
  H   H19       1.0  0.88356  0.36874  0.26261  1.0000
  H   H20       1.0  0.61646  0.10644  0.73732  1.0000
  H   H21       1.0  0.24094  0.08634  0.78710  1.0000
  H   H22       1.0  0.25911  0.29901  0.21295  1.0000
  H   H23       1.0  0.75906  0.91366  0.21290  1.0000
  H   H24       1.0  0.74089  0.70099  0.78705  1.0000
  H   H25       1.0  0.01874  0.27549  0.00100  1.0000
  H   H26       1.0  0.48138  0.27459  0.99906  1.0000
  H   H27       1.0  0.98126  0.72451  0.99900  1.0000
  H   H28       1.0  0.51862  0.72541  0.00094  1.0000
  H   H29       1.0  0.85458  0.17011  0.93586  1.0000
  H   H30       1.0  0.64549  0.23417  0.06412  1.0000
  H   H31       1.0  0.14542  0.82989  0.06414  1.0000
  H   H32       1.0  0.35451  0.76583  0.93588  1.0000
  C   C1        1.0  0.62915  0.56401  0.21433  1.0000
  C   C2        1.0  0.87089  0.34961  0.78566  1.0000
  C   C3        1.0  0.37085  0.43600  0.78567  1.0000
  C   C4        1.0  0.12911  0.65039  0.21434  1.0000
  C   C5        1.0  0.57350  0.60566  0.32416  1.0000
  C   C6        1.0  0.92650  0.28138  0.67584  1.0000
  C   C7        1.0  0.42650  0.39434  0.67584  1.0000
  C   C8        1.0  0.07350  0.71862  0.32416  1.0000
  C   C9        1.0  0.90442  0.68353  0.56956  1.0000
  C   C10       1.0  0.59564  0.11354  0.43054  1.0000
  C   C11       1.0  0.09558  0.31647  0.43044  1.0000
  C   C12       1.0  0.40436  0.88646  0.56946  1.0000
  C   C13       1.0  0.04297  0.77169  0.66432  1.0000
  C   C14       1.0  0.45705  0.10696  0.33576  1.0000
  C   C15       1.0  0.95703  0.22831  0.33568  1.0000
  C   C16       1.0  0.54295  0.89304  0.66424  1.0000
  C   C17       1.0  0.07886  0.90166  0.67871  1.0000
  C   C18       1.0  0.42115  0.22258  0.32136  1.0000
  C   C19       1.0  0.92114  0.09834  0.32129  1.0000
  C   C20       1.0  0.57885  0.77742  0.67864  1.0000
  C   C21       1.0  0.29751  0.93667  0.84903  1.0000
  C   C22       1.0  0.20249  0.08748  0.15104  1.0000
  C   C23       1.0  0.70249  0.06333  0.15097  1.0000
  C   C24       1.0  0.79751  0.91252  0.84896  1.0000
  C   C25       1.0  0.13963  0.73131  0.74517  1.0000
  C   C26       1.0  0.36033  0.98585  0.25494  1.0000
  C   C27       1.0  0.86037  0.26869  0.25483  1.0000
  C   C28       1.0  0.63967  0.01415  0.74506  1.0000
  C   C29       1.0  0.20883  0.98464  0.77196  1.0000
  C   C30       1.0  0.29116  0.21244  0.22812  1.0000
  C   C31       1.0  0.79117  0.01536  0.22804  1.0000
  C   C32       1.0  0.70884  0.78756  0.77188  1.0000
  N   N1        1.0  0.81500  0.71753  0.48751  1.0000
  N   N2        1.0  0.68491  0.22963  0.51249  1.0000
  N   N3        1.0  0.18500  0.28247  0.51249  1.0000
  N   N4        1.0  0.31509  0.77037  0.48751  1.0000
  N   N5        1.0  0.69967  0.61483  0.42576  1.0000
  N   N6        1.0  0.80040  0.18881  0.57432  1.0000
  N   N7        1.0  0.30033  0.38517  0.57424  1.0000
  N   N8        1.0  0.19960  0.81119  0.42568  1.0000
  N   N9        1.0  0.71410  0.51993  0.46387  1.0000
  N   N10       1.0  0.78622  0.05587  0.53635  1.0000
  N   N11       1.0  0.28590  0.48007  0.53613  1.0000
  N   N12       1.0  0.21378  0.94413  0.46365  1.0000
  N   N13       1.0  0.84387  0.56262  0.55559  1.0000
  N   N14       1.0  0.65644  0.00672  0.44463  1.0000
  N   N15       1.0  0.15613  0.43738  0.44441  1.0000
  N   N16       1.0  0.34356  0.99328  0.55537  1.0000
  N   N17       1.0  0.26377  0.81251  0.83589  1.0000
  N   N18       1.0  0.23622  0.97644  0.16420  1.0000
  N   N19       1.0  0.73623  0.18749  0.16411  1.0000
  N   N20       1.0  0.76378  0.02356  0.83580  1.0000
  Cl  Cl1       1.0  0.74998  0.69958  0.99994  1.0000
  Cl  Cl2       1.0  0.25002  0.30042  0.00006  1.0000
  O   O1        1.0  0.53219  0.56346  0.12170  1.0000
  O   O2        1.0  0.96781  0.44171  0.87823  1.0000
  O   O3        1.0  0.46781  0.43654  0.87830  1.0000
  O   O4        1.0  0.03219  0.55829  0.12177  1.0000
  O   O5        1.0  0.76737  0.53015  0.21695  1.0000
  O   O6        1.0  0.73267  0.31320  0.78307  1.0000
  O   O7        1.0  0.23263  0.46985  0.78305  1.0000
  O   O8        1.0  0.26733  0.68680  0.21694  1.0000
  O   O9        1.0  0.90575  0.26547  0.99971  1.0000
  O   O10       1.0  0.59436  0.26583  0.00033  1.0000
  O   O11       1.0  0.09425  0.73453  0.00029  1.0000
  O   O12       1.0  0.40564  0.73417  0.99967  1.0000
