data_image0
_chemical_formula_structural       Cd6H32C56N20O16
_chemical_formula_sum              "Cd6 H32 C56 N20 O16"
_cell_length_a       9.66668
_cell_length_b       10.3019
_cell_length_c       15.2486
_cell_angle_alpha    90
_cell_angle_beta     92.7511
_cell_angle_gamma    90.0001

_space_group_name_H-M_alt    "P 1"
_space_group_IT_number       1

loop_
  _space_group_symop_operation_xyz
  'x, y, z'

loop_
  _atom_site_type_symbol
  _atom_site_label
  _atom_site_symmetry_multiplicity
  _atom_site_fract_x
  _atom_site_fract_y
  _atom_site_fract_z
  _atom_site_occupancy
  Cd  Cd1       1.0  0.86147  0.62336  0.95617  1.0000
  Cd  Cd2       1.0  0.13853  0.12336  0.54383  1.0000
  Cd  Cd3       1.0  0.13853  0.37664  0.04383  1.0000
  Cd  Cd4       1.0  0.86147  0.87664  0.45617  1.0000
  Cd  Cd5       1.0  0.50000  0.50000  1.00000  1.0000
  Cd  Cd6       1.0  0.50000  0.00000  0.50000  1.0000
  H   H1        1.0  0.20507  0.15150  0.34268  1.0000
  H   H2        1.0  0.79493  0.65150  0.15732  1.0000
  H   H3        1.0  0.79493  0.84850  0.65732  1.0000
  H   H4        1.0  0.20507  0.34850  0.84268  1.0000
  H   H5        1.0  0.10367  0.22436  0.19967  1.0000
  H   H6        1.0  0.89633  0.72436  0.30033  1.0000
  H   H7        1.0  0.89633  0.77564  0.80033  1.0000
  H   H8        1.0  0.10367  0.27564  0.69967  1.0000
  H   H9        1.0  0.75312  0.37079  0.33668  1.0000
  H   H10       1.0  0.24688  0.87079  0.16332  1.0000
  H   H11       1.0  0.24688  0.62921  0.66332  1.0000
  H   H12       1.0  0.75312  0.12921  0.83668  1.0000
  H   H13       1.0  0.86677  0.28241  0.47459  1.0000
  H   H14       1.0  0.13323  0.78241  0.02541  1.0000
  H   H15       1.0  0.13323  0.71759  0.52541  1.0000
  H   H16       1.0  0.86677  0.21759  0.97459  1.0000
  H   H17       1.0  0.56073  0.64119  0.26567  1.0000
  H   H18       1.0  0.43927  0.14119  0.23433  1.0000
  H   H19       1.0  0.43927  0.35881  0.73433  1.0000
  H   H20       1.0  0.56073  0.85881  0.76567  1.0000
  H   H21       1.0  0.16470  0.47941  0.31891  1.0000
  H   H22       1.0  0.83530  0.97941  0.18109  1.0000
  H   H23       1.0  0.83530  0.52059  0.68109  1.0000
  H   H24       1.0  0.16470  0.02059  0.81891  1.0000
  H   H25       1.0  0.20703  0.52562  0.47876  1.0000
  H   H26       1.0  0.79297  0.02562  0.02124  1.0000
  H   H27       1.0  0.79297  0.47438  0.52124  1.0000
  H   H28       1.0  0.20703  0.97439  0.97876  1.0000
  H   H29       1.0  0.42102  0.64738  0.52972  1.0000
  H   H30       1.0  0.57898  0.14738  0.97028  1.0000
  H   H31       1.0  0.57898  0.35262  0.47028  1.0000
  H   H32       1.0  0.42103  0.85262  0.02972  1.0000
  C   C1        1.0  0.10375  0.19824  0.33857  1.0000
  C   C2        1.0  0.89625  0.69824  0.16143  1.0000
  C   C3        1.0  0.89625  0.80176  0.66143  1.0000
  C   C4        1.0  0.10375  0.30176  0.83857  1.0000
  C   C5        1.0  0.04659  0.24105  0.25842  1.0000
  C   C6        1.0  0.95341  0.74105  0.24158  1.0000
  C   C7        1.0  0.95341  0.75895  0.74158  1.0000
  C   C8        1.0  0.04659  0.25895  0.75842  1.0000
  C   C9        1.0  0.91818  0.30452  0.25636  1.0000
  C   C10       1.0  0.08182  0.80452  0.24364  1.0000
  C   C11       1.0  0.08182  0.69548  0.74364  1.0000
  C   C12       1.0  0.91818  0.19548  0.75636  1.0000
  C   C13       1.0  0.85237  0.32094  0.33555  1.0000
  C   C14       1.0  0.14763  0.82094  0.16445  1.0000
  C   C15       1.0  0.14763  0.67906  0.66445  1.0000
  C   C16       1.0  0.85237  0.17906  0.83555  1.0000
  C   C17       1.0  0.91608  0.27300  0.41231  1.0000
  C   C18       1.0  0.08392  0.77300  0.08769  1.0000
  C   C19       1.0  0.08392  0.72700  0.58769  1.0000
  C   C20       1.0  0.91608  0.22700  0.91231  1.0000
  C   C21       1.0  0.85286  0.35629  0.17545  1.0000
  C   C22       1.0  0.14714  0.85629  0.32455  1.0000
  C   C23       1.0  0.14714  0.64371  0.82455  1.0000
  C   C24       1.0  0.85286  0.14371  0.67545  1.0000
  C   C25       1.0  0.50377  0.65024  0.40103  1.0000
  C   C26       1.0  0.49623  0.15024  0.09897  1.0000
  C   C27       1.0  0.49623  0.34976  0.59897  1.0000
  C   C28       1.0  0.50377  0.84976  0.90103  1.0000
  C   C29       1.0  0.48240  0.61817  0.31228  1.0000
  C   C30       1.0  0.51760  0.11816  0.18772  1.0000
  C   C31       1.0  0.51760  0.38184  0.68772  1.0000
  C   C32       1.0  0.48241  0.88183  0.81228  1.0000
  C   C33       1.0  0.25946  0.52732  0.34294  1.0000
  C   C34       1.0  0.74053  0.02732  0.15706  1.0000
  C   C35       1.0  0.74054  0.47268  0.65706  1.0000
  C   C36       1.0  0.25947  0.97268  0.84294  1.0000
  C   C37       1.0  0.28240  0.55591  0.43186  1.0000
  C   C38       1.0  0.71760  0.05591  0.06814  1.0000
  C   C39       1.0  0.71760  0.44409  0.56814  1.0000
  C   C40       1.0  0.28240  0.94409  0.93186  1.0000
  C   C41       1.0  0.40263  0.62101  0.46087  1.0000
  C   C42       1.0  0.59737  0.12101  0.03913  1.0000
  C   C43       1.0  0.59737  0.37899  0.53913  1.0000
  C   C44       1.0  0.40263  0.87899  0.96087  1.0000
  C   C45       1.0  0.63383  0.71734  0.43082  1.0000
  C   C46       1.0  0.36617  0.21733  0.06918  1.0000
  C   C47       1.0  0.36617  0.28267  0.56918  1.0000
  C   C48       1.0  0.63383  0.78266  0.93082  1.0000
  C   C49       1.0  0.33155  0.53008  0.18629  1.0000
  C   C50       1.0  0.66845  0.03008  0.31371  1.0000
  C   C51       1.0  0.66845  0.46992  0.81371  1.0000
  C   C52       1.0  0.33155  0.96991  0.68629  1.0000
  C   C53       1.0  0.35856  0.55980  0.28236  1.0000
  C   C54       1.0  0.64144  0.05980  0.21764  1.0000
  C   C55       1.0  0.64144  0.44020  0.71764  1.0000
  C   C56       1.0  0.35856  0.94020  0.78236  1.0000
  N   N1        1.0  0.91870  0.38702  0.10204  1.0000
  N   N2        1.0  0.08130  0.88702  0.39796  1.0000
  N   N3        1.0  0.08130  0.61298  0.89796  1.0000
  N   N4        1.0  0.91870  0.11298  0.60204  1.0000
  N   N5        1.0  0.82137  0.43643  0.04654  1.0000
  N   N6        1.0  0.17863  0.93643  0.45345  1.0000
  N   N7        1.0  0.17863  0.56357  0.95346  1.0000
  N   N8        1.0  0.82137  0.06357  0.54655  1.0000
  N   N9        1.0  0.70114  0.43449  0.08503  1.0000
  N   N10       1.0  0.29886  0.93449  0.41497  1.0000
  N   N11       1.0  0.29886  0.56551  0.91497  1.0000
  N   N12       1.0  0.70114  0.06551  0.58503  1.0000
  N   N13       1.0  0.71692  0.38573  0.16546  1.0000
  N   N14       1.0  0.28308  0.88573  0.33454  1.0000
  N   N15       1.0  0.28308  0.61427  0.83454  1.0000
  N   N16       1.0  0.71692  0.11427  0.66546  1.0000
  N   N17       1.0  0.03968  0.21272  0.41444  1.0000
  N   N18       1.0  0.96032  0.71272  0.08556  1.0000
  N   N19       1.0  0.96032  0.78728  0.58556  1.0000
  N   N20       1.0  0.03968  0.28728  0.91444  1.0000
  O   O1        1.0  0.62870  0.80742  0.48956  1.0000
  O   O2        1.0  0.37130  0.30742  0.01044  1.0000
  O   O3        1.0  0.37130  0.19258  0.51044  1.0000
  O   O4        1.0  0.62870  0.69258  0.98956  1.0000
  O   O5        1.0  0.74700  0.68633  0.39747  1.0000
  O   O6        1.0  0.25300  0.18633  0.10253  1.0000
  O   O7        1.0  0.25300  0.31367  0.60253  1.0000
  O   O8        1.0  0.74700  0.81367  0.89747  1.0000
  O   O9        1.0  0.42170  0.56508  0.13323  1.0000
  O   O10       1.0  0.57830  0.06509  0.36677  1.0000
  O   O11       1.0  0.57830  0.43492  0.86677  1.0000
  O   O12       1.0  0.42170  0.93491  0.63322  1.0000
  O   O13       1.0  0.21715  0.47225  0.16722  1.0000
  O   O14       1.0  0.78285  0.97226  0.33278  1.0000
  O   O15       1.0  0.78285  0.52774  0.83278  1.0000
  O   O16       1.0  0.21715  0.02774  0.66722  1.0000
