data_image0
_chemical_formula_structural       Cd8H32C40N32O20
_chemical_formula_sum              "Cd8 H32 C40 N32 O20"
_cell_length_a       9.29651
_cell_length_b       10.0206
_cell_length_c       15.7313
_cell_angle_alpha    90
_cell_angle_beta     90
_cell_angle_gamma    89.3684

_space_group_name_H-M_alt    "P 1"
_space_group_IT_number       1

loop_
  _space_group_symop_operation_xyz
  'x, y, z'

loop_
  _atom_site_type_symbol
  _atom_site_label
  _atom_site_symmetry_multiplicity
  _atom_site_fract_x
  _atom_site_fract_y
  _atom_site_fract_z
  _atom_site_occupancy
  Cd  Cd1       1.0  0.09888  0.90350  0.27379  1.0000
  Cd  Cd2       1.0  0.40112  0.59650  0.77379  1.0000
  Cd  Cd3       1.0  0.90112  0.09650  0.72621  1.0000
  Cd  Cd4       1.0  0.59888  0.40350  0.22621  1.0000
  Cd  Cd5       1.0  0.11029  0.61765  0.44193  1.0000
  Cd  Cd6       1.0  0.38971  0.88235  0.94193  1.0000
  Cd  Cd7       1.0  0.88971  0.38235  0.55807  1.0000
  Cd  Cd8       1.0  0.61029  0.11765  0.05807  1.0000
  H   H1        1.0  0.41432  0.89458  0.60568  1.0000
  H   H2        1.0  0.08567  0.60542  0.10568  1.0000
  H   H3        1.0  0.58567  0.10542  0.39432  1.0000
  H   H4        1.0  0.91433  0.39458  0.89432  1.0000
  H   H5        1.0  0.53106  0.10230  0.65615  1.0000
  H   H6        1.0  0.96894  0.39770  0.15614  1.0000
  H   H7        1.0  0.46894  0.89770  0.34385  1.0000
  H   H8        1.0  0.03106  0.60230  0.84385  1.0000
  H   H9        1.0  0.45045  0.32363  0.59834  1.0000
  H   H10       1.0  0.04955  0.17637  0.09834  1.0000
  H   H11       1.0  0.54955  0.67637  0.40166  1.0000
  H   H12       1.0  0.95045  0.82363  0.90166  1.0000
  H   H13       1.0  0.12655  0.12823  0.44972  1.0000
  H   H14       1.0  0.37345  0.37177  0.94972  1.0000
  H   H15       1.0  0.87345  0.87177  0.55028  1.0000
  H   H16       1.0  0.62655  0.62823  0.05028  1.0000
  H   H17       1.0  0.42418  0.75525  0.16203  1.0000
  H   H18       1.0  0.07582  0.74475  0.66203  1.0000
  H   H19       1.0  0.57582  0.24475  0.83797  1.0000
  H   H20       1.0  0.92418  0.25525  0.33797  1.0000
  H   H21       1.0  0.77803  0.75009  0.17652  1.0000
  H   H22       1.0  0.72197  0.74991  0.67652  1.0000
  H   H23       1.0  0.22197  0.24991  0.82348  1.0000
  H   H24       1.0  0.27803  0.25009  0.32348  1.0000
  H   H25       1.0  0.14258  0.82292  0.09005  1.0000
  H   H26       1.0  0.35742  0.67708  0.59005  1.0000
  H   H27       1.0  0.85741  0.17708  0.90995  1.0000
  H   H28       1.0  0.64259  0.32292  0.40995  1.0000
  H   H29       1.0  0.00008  0.91004  0.09032  1.0000
  H   H30       1.0  0.49992  0.58996  0.59032  1.0000
  H   H31       1.0  0.99992  0.08996  0.90968  1.0000
  H   H32       1.0  0.50008  0.41004  0.40968  1.0000
  C   C1        1.0  0.26458  0.99868  0.52345  1.0000
  C   C2        1.0  0.23542  0.50132  0.02345  1.0000
  C   C3        1.0  0.73542  0.00132  0.47655  1.0000
  C   C4        1.0  0.76458  0.49868  0.97655  1.0000
  C   C5        1.0  0.37675  0.99163  0.58304  1.0000
  C   C6        1.0  0.12325  0.50837  0.08304  1.0000
  C   C7        1.0  0.62325  0.00837  0.41696  1.0000
  C   C8        1.0  0.87675  0.49163  0.91696  1.0000
  C   C9        1.0  0.44284  0.10814  0.61066  1.0000
  C   C10       1.0  0.05715  0.39186  0.11066  1.0000
  C   C11       1.0  0.55716  0.89187  0.38934  1.0000
  C   C12       1.0  0.94284  0.60814  0.88934  1.0000
  C   C13       1.0  0.39830  0.23171  0.57886  1.0000
  C   C14       1.0  0.10170  0.26829  0.07886  1.0000
  C   C15       1.0  0.60170  0.76829  0.42114  1.0000
  C   C16       1.0  0.89830  0.73171  0.92114  1.0000
  C   C17       1.0  0.28319  0.23964  0.52123  1.0000
  C   C18       1.0  0.21680  0.26036  0.02123  1.0000
  C   C19       1.0  0.71681  0.76036  0.47877  1.0000
  C   C20       1.0  0.78319  0.73964  0.97877  1.0000
  C   C21       1.0  0.21628  0.12307  0.49414  1.0000
  C   C22       1.0  0.28372  0.37693  0.99414  1.0000
  C   C23       1.0  0.78372  0.87694  0.50586  1.0000
  C   C24       1.0  0.71628  0.62306  0.00586  1.0000
  C   C25       1.0  0.19784  0.87533  0.48958  1.0000
  C   C26       1.0  0.30216  0.62467  0.98958  1.0000
  C   C27       1.0  0.80216  0.12467  0.51042  1.0000
  C   C28       1.0  0.69784  0.37533  0.01042  1.0000
  C   C29       1.0  0.23457  0.37287  0.48952  1.0000
  C   C30       1.0  0.26543  0.12713  0.98952  1.0000
  C   C31       1.0  0.76543  0.62713  0.51048  1.0000
  C   C32       1.0  0.73457  0.87287  0.01048  1.0000
  C   C33       1.0  0.38197  0.69491  0.21330  1.0000
  C   C34       1.0  0.11803  0.80509  0.71330  1.0000
  C   C35       1.0  0.61803  0.30509  0.78670  1.0000
  C   C36       1.0  0.88197  0.19491  0.28670  1.0000
  C   C37       1.0  0.81817  0.69066  0.22906  1.0000
  C   C38       1.0  0.68183  0.80934  0.72906  1.0000
  C   C39       1.0  0.18183  0.30934  0.77094  1.0000
  C   C40       1.0  0.31817  0.19066  0.27094  1.0000
  N   N1        1.0  0.27851  0.73571  0.26697  1.0000
  N   N2        1.0  0.22149  0.76429  0.76697  1.0000
  N   N3        1.0  0.72149  0.26429  0.73303  1.0000
  N   N4        1.0  0.77851  0.23571  0.23303  1.0000
  N   N5        1.0  0.25781  0.63186  0.31995  1.0000
  N   N6        1.0  0.24219  0.86813  0.81995  1.0000
  N   N7        1.0  0.74219  0.36814  0.68005  1.0000
  N   N8        1.0  0.75781  0.13187  0.18005  1.0000
  N   N9        1.0  0.34216  0.53226  0.29956  1.0000
  N   N10       1.0  0.15784  0.96774  0.79956  1.0000
  N   N11       1.0  0.65784  0.46774  0.70044  1.0000
  N   N12       1.0  0.84216  0.03226  0.20044  1.0000
  N   N13       1.0  0.42244  0.56933  0.23235  1.0000
  N   N14       1.0  0.07756  0.93067  0.73235  1.0000
  N   N15       1.0  0.57756  0.43067  0.76765  1.0000
  N   N16       1.0  0.92244  0.06933  0.26765  1.0000
  N   N17       1.0  0.92171  0.73029  0.28218  1.0000
  N   N18       1.0  0.57830  0.76971  0.78219  1.0000
  N   N19       1.0  0.07830  0.26971  0.71782  1.0000
  N   N20       1.0  0.42170  0.23029  0.21781  1.0000
  N   N21       1.0  0.93848  0.62854  0.33717  1.0000
  N   N22       1.0  0.56152  0.87146  0.83717  1.0000
  N   N23       1.0  0.06152  0.37146  0.66283  1.0000
  N   N24       1.0  0.43848  0.12854  0.16283  1.0000
  N   N25       1.0  0.85136  0.53103  0.31904  1.0000
  N   N26       1.0  0.64865  0.96897  0.81904  1.0000
  N   N27       1.0  0.14865  0.46897  0.68096  1.0000
  N   N28       1.0  0.35135  0.03103  0.18096  1.0000
  N   N29       1.0  0.77331  0.56806  0.25063  1.0000
  N   N30       1.0  0.72669  0.93194  0.75063  1.0000
  N   N31       1.0  0.22669  0.43194  0.74938  1.0000
  N   N32       1.0  0.27331  0.06806  0.24937  1.0000
  O   O1        1.0  0.22210  0.76423  0.52826  1.0000
  O   O2        1.0  0.27790  0.73577  0.02826  1.0000
  O   O3        1.0  0.77790  0.23577  0.47174  1.0000
  O   O4        1.0  0.72210  0.26423  0.97174  1.0000
  O   O5        1.0  0.11731  0.88060  0.42414  1.0000
  O   O6        1.0  0.38269  0.61940  0.92414  1.0000
  O   O7        1.0  0.88269  0.11940  0.57586  1.0000
  O   O8        1.0  0.61731  0.38060  0.07586  1.0000
  O   O9        1.0  0.10105  0.38770  0.46563  1.0000
  O   O10       1.0  0.39895  0.11230  0.96563  1.0000
  O   O11       1.0  0.89895  0.61230  0.53437  1.0000
  O   O12       1.0  0.60105  0.88770  0.03437  1.0000
  O   O13       1.0  0.32229  0.46754  0.48630  1.0000
  O   O14       1.0  0.17771  0.03246  0.98630  1.0000
  O   O15       1.0  0.67771  0.53246  0.51370  1.0000
  O   O16       1.0  0.82229  0.96754  0.01370  1.0000
  O   O17       1.0  0.06164  0.85308  0.12611  1.0000
  O   O18       1.0  0.43835  0.64692  0.62612  1.0000
  O   O19       1.0  0.93836  0.14692  0.87389  1.0000
  O   O20       1.0  0.56165  0.35308  0.37388  1.0000
