data_image0
_chemical_formula_structural       Cu4H36C36S4Cl4
_chemical_formula_sum              "Cu4 H36 C36 S4 Cl4"
_cell_length_a       5.92422
_cell_length_b       8.66391
_cell_length_c       18.1749
_cell_angle_alpha    91.1343
_cell_angle_beta     89.9525
_cell_angle_gamma    99.9898

_space_group_name_H-M_alt    "P 1"
_space_group_IT_number       1

loop_
  _space_group_symop_operation_xyz
  'x, y, z'

loop_
  _atom_site_type_symbol
  _atom_site_label
  _atom_site_symmetry_multiplicity
  _atom_site_fract_x
  _atom_site_fract_y
  _atom_site_fract_z
  _atom_site_occupancy
  Cu  Cu1       1.0  0.67647  0.35915  0.49325  1.0000
  Cu  Cu2       1.0  0.32354  0.64084  0.50675  1.0000
  Cu  Cu3       1.0  0.89989  0.69955  0.38287  1.0000
  Cu  Cu4       1.0  0.10012  0.30045  0.61713  1.0000
  H   H1        1.0  0.44236  0.21303  0.99150  1.0000
  H   H2        1.0  0.55768  0.78698  0.00850  1.0000
  H   H3        1.0  0.42704  0.44811  0.34421  1.0000
  H   H4        1.0  0.57297  0.55189  0.65581  1.0000
  H   H5        1.0  0.49300  0.29941  0.28085  1.0000
  H   H6        1.0  0.50698  0.70059  0.71916  1.0000
  H   H7        1.0  0.50737  0.64738  0.24970  1.0000
  H   H8        1.0  0.49261  0.35261  0.75031  1.0000
  H   H9        1.0  0.77916  0.71540  0.20868  1.0000
  H   H10       1.0  0.22080  0.28460  0.79133  1.0000
  H   H11       1.0  0.23924  0.43200  0.18977  1.0000
  H   H12       1.0  0.76072  0.56799  0.81023  1.0000
  H   H13       1.0  0.14617  0.24523  0.08506  1.0000
  H   H14       1.0  0.85384  0.75476  0.91494  1.0000
  H   H15       1.0  0.83755  0.36890  0.00467  1.0000
  H   H16       1.0  0.16247  0.63111  0.99534  1.0000
  H   H17       1.0  0.93325  0.55060  0.11148  1.0000
  H   H18       1.0  0.06673  0.44940  0.88854  1.0000
  H   H19       1.0  0.65834  0.95739  0.47252  1.0000
  H   H20       1.0  0.34171  0.04259  0.52748  1.0000
  H   H21       1.0  0.94035  0.06927  0.46644  1.0000
  H   H22       1.0  0.05967  0.93071  0.53356  1.0000
  H   H23       1.0  0.03722  0.17522  0.32163  1.0000
  H   H24       1.0  0.96281  0.82477  0.67837  1.0000
  H   H25       1.0  0.21565  0.03371  0.34325  1.0000
  H   H26       1.0  0.78435  0.96626  0.65674  1.0000
  H   H27       1.0  0.76643  0.10600  0.20683  1.0000
  H   H28       1.0  0.23355  0.89400  0.79317  1.0000
  H   H29       1.0  0.74894  0.01062  0.07745  1.0000
  H   H30       1.0  0.25104  0.98940  0.92255  1.0000
  H   H31       1.0  0.03580  0.85292  0.03060  1.0000
  H   H32       1.0  0.96419  0.14712  0.96939  1.0000
  H   H33       1.0  0.34196  0.79397  0.11465  1.0000
  H   H34       1.0  0.65803  0.20605  0.88533  1.0000
  H   H35       1.0  0.35739  0.89024  0.24486  1.0000
  H   H36       1.0  0.64260  0.10975  0.75512  1.0000
  C   C1        1.0  0.48539  0.29402  0.03805  1.0000
  C   C2        1.0  0.51465  0.70599  0.96195  1.0000
  C   C3        1.0  0.68761  0.18250  0.42306  1.0000
  C   C4        1.0  0.31239  0.81749  0.57695  1.0000
  C   C5        1.0  0.62963  0.29164  0.38761  1.0000
  C   C6        1.0  0.37039  0.70834  0.61240  1.0000
  C   C7        1.0  0.55843  0.37922  0.32693  1.0000
  C   C8        1.0  0.44158  0.62078  0.67308  1.0000
  C   C9        1.0  0.65634  0.61046  0.22306  1.0000
  C   C10       1.0  0.34364  0.38954  0.77695  1.0000
  C   C11       1.0  0.59362  0.50337  0.15788  1.0000
  C   C12       1.0  0.40635  0.49663  0.84212  1.0000
  C   C13       1.0  0.37148  0.41742  0.14951  1.0000
  C   C14       1.0  0.62853  0.58258  0.85050  1.0000
  C   C15       1.0  0.31845  0.31288  0.09007  1.0000
  C   C16       1.0  0.68155  0.68712  0.90993  1.0000
  C   C17       1.0  0.70660  0.38057  0.04559  1.0000
  C   C18       1.0  0.29341  0.61945  0.95442  1.0000
  C   C19       1.0  0.76032  0.48365  0.10529  1.0000
  C   C20       1.0  0.23969  0.51637  0.89472  1.0000
  C   C21       1.0  0.77407  0.03938  0.43833  1.0000
  C   C22       1.0  0.22596  0.96061  0.56167  1.0000
  C   C23       1.0  0.06121  0.05289  0.31397  1.0000
  C   C24       1.0  0.93880  0.94710  0.68602  1.0000
  C   C25       1.0  0.06471  0.00547  0.23414  1.0000
  C   C26       1.0  0.93528  0.99452  0.76586  1.0000
  C   C27       1.0  0.89364  0.03847  0.18640  1.0000
  C   C28       1.0  0.10634  0.96153  0.81360  1.0000
  C   C29       1.0  0.88336  0.98387  0.11360  1.0000
  C   C30       1.0  0.11663  0.01615  0.88639  1.0000
  C   C31       1.0  0.04487  0.89607  0.08745  1.0000
  C   C32       1.0  0.95512  0.10395  0.91254  1.0000
  C   C33       1.0  0.21656  0.86360  0.13439  1.0000
  C   C34       1.0  0.78342  0.13641  0.86560  1.0000
  C   C35       1.0  0.22600  0.91756  0.20755  1.0000
  C   C36       1.0  0.77399  0.08244  0.79244  1.0000
  S   S1        1.0  0.80774  0.92990  0.35310  1.0000
  S   S2        1.0  0.19227  0.07010  0.64690  1.0000
  S   S3        1.0  0.80586  0.51788  0.29383  1.0000
  S   S4        1.0  0.19414  0.48212  0.70618  1.0000
  Cl  Cl1       1.0  0.30185  0.72412  0.39017  1.0000
  Cl  Cl2       1.0  0.69815  0.27586  0.60984  1.0000
  Cl  Cl3       1.0  0.77831  0.62855  0.50060  1.0000
  Cl  Cl4       1.0  0.22170  0.37145  0.49940  1.0000
