data_image0
_chemical_formula_structural       Fe2H16C24N8
_chemical_formula_sum              "Fe2 H16 C24 N8"
_cell_length_a       5.59654
_cell_length_b       13.6758
_cell_length_c       13.6757
_cell_angle_alpha    87.61
_cell_angle_beta     72.2513
_cell_angle_gamma    72.2501

_space_group_name_H-M_alt    "P 1"
_space_group_IT_number       1

loop_
  _space_group_symop_operation_xyz
  'x, y, z'

loop_
  _atom_site_type_symbol
  _atom_site_label
  _atom_site_symmetry_multiplicity
  _atom_site_fract_x
  _atom_site_fract_y
  _atom_site_fract_z
  _atom_site_occupancy
  Fe  Fe1       1.0  0.75001  0.47322  0.52677  1.0000
  Fe  Fe2       1.0  0.25001  0.52677  0.47323  1.0000
  H   H1        1.0  0.75226  0.40994  0.29346  1.0000
  H   H2        1.0  0.74778  0.70654  0.59006  1.0000
  H   H3        1.0  0.24777  0.58999  0.70657  1.0000
  H   H4        1.0  0.25227  0.29343  0.41001  1.0000
  H   H5        1.0  0.31827  0.58093  0.21365  1.0000
  H   H6        1.0  0.18172  0.78635  0.41909  1.0000
  H   H7        1.0  0.68135  0.41919  0.78639  1.0000
  H   H8        1.0  0.81858  0.21360  0.58086  1.0000
  H   H9        1.0  0.76971  0.39131  0.94895  1.0000
  H   H10       1.0  0.73028  0.05104  0.60870  1.0000
  H   H11       1.0  0.22999  0.60876  0.05109  1.0000
  H   H12       1.0  0.27004  0.94889  0.39124  1.0000
  H   H13       1.0  0.80436  0.38669  0.12355  1.0000
  H   H14       1.0  0.69568  0.87643  0.61331  1.0000
  H   H15       1.0  0.19533  0.61340  0.87649  1.0000
  H   H16       1.0  0.30465  0.12350  0.38661  1.0000
  C   C1        1.0  0.89263  0.45101  0.28990  1.0000
  C   C2        1.0  0.60739  0.71009  0.54899  1.0000
  C   C3        1.0  0.10740  0.54896  0.71009  1.0000
  C   C4        1.0  0.39263  0.28990  0.45104  1.0000
  C   C5        1.0  0.17857  0.53982  0.24972  1.0000
  C   C6        1.0  0.32141  0.75028  0.46019  1.0000
  C   C7        1.0  0.82122  0.46023  0.75033  1.0000
  C   C8        1.0  0.67876  0.24967  0.53978  1.0000
  C   C9        1.0  0.03393  0.49544  0.20647  1.0000
  C   C10       1.0  0.46607  0.79352  0.50456  1.0000
  C   C11       1.0  0.96598  0.50458  0.79354  1.0000
  C   C12       1.0  0.53401  0.20646  0.49542  1.0000
  C   C13       1.0  0.02012  0.49730  0.10158  1.0000
  C   C14       1.0  0.47986  0.89843  0.50271  1.0000
  C   C15       1.0  0.97967  0.50276  0.89844  1.0000
  C   C16       1.0  0.52032  0.10155  0.49725  1.0000
  C   C17       1.0  0.86999  0.43972  0.97087  1.0000
  C   C18       1.0  0.62999  0.02913  0.56029  1.0000
  C   C19       1.0  0.12969  0.56037  0.02918  1.0000
  C   C20       1.0  0.37028  0.97082  0.43963  1.0000
  C   C21       1.0  0.89012  0.43704  0.06979  1.0000
  C   C22       1.0  0.60987  0.93021  0.56296  1.0000
  C   C23       1.0  0.10961  0.56302  0.93026  1.0000
  C   C24       1.0  0.39038  0.06973  0.43699  1.0000
  N   N1        1.0  0.94747  0.46870  0.37566  1.0000
  N   N2        1.0  0.55255  0.62433  0.53130  1.0000
  N   N3        1.0  0.05262  0.53129  0.62434  1.0000
  N   N4        1.0  0.44739  0.37565  0.46872  1.0000
  N   N5        1.0  0.12390  0.52344  0.35095  1.0000
  N   N6        1.0  0.37610  0.64904  0.47656  1.0000
  N   N7        1.0  0.87609  0.47660  0.64907  1.0000
  N   N8        1.0  0.62391  0.35092  0.52342  1.0000
