data_image0
_chemical_formula_structural       Co2H16C24N8
_chemical_formula_sum              "Co2 H16 C24 N8"
_cell_length_a       5.73365
_cell_length_b       7.20949
_cell_length_c       12.7633
_cell_angle_alpha    92.6559
_cell_angle_beta     102.989
_cell_angle_gamma    90.0478

_space_group_name_H-M_alt    "P 1"
_space_group_IT_number       1

loop_
  _space_group_symop_operation_xyz
  'x, y, z'

loop_
  _atom_site_type_symbol
  _atom_site_label
  _atom_site_symmetry_multiplicity
  _atom_site_fract_x
  _atom_site_fract_y
  _atom_site_fract_z
  _atom_site_occupancy
  Co  Co1       1.0  0.45226  0.25009  0.99998  1.0000
  Co  Co2       1.0  0.54774  0.74990  0.00002  1.0000
  H   H1        1.0  0.11080  0.36817  0.39707  1.0000
  H   H2        1.0  0.71585  0.13288  0.60333  1.0000
  H   H3        1.0  0.88920  0.63183  0.60293  1.0000
  H   H4        1.0  0.28414  0.86712  0.39668  1.0000
  H   H5        1.0  0.22512  0.34207  0.59254  1.0000
  H   H6        1.0  0.63339  0.15919  0.40793  1.0000
  H   H7        1.0  0.77487  0.65792  0.40746  1.0000
  H   H8        1.0  0.36658  0.84081  0.59207  1.0000
  H   H9        1.0  0.46614  0.19895  0.75855  1.0000
  H   H10       1.0  0.70588  0.30110  0.24174  1.0000
  H   H11       1.0  0.53387  0.80104  0.24145  1.0000
  H   H12       1.0  0.29412  0.69889  0.75828  1.0000
  H   H13       1.0  0.78458  0.74895  0.80250  1.0000
  H   H14       1.0  0.98112  0.75165  0.19751  1.0000
  H   H15       1.0  0.21539  0.25107  0.19749  1.0000
  H   H16       1.0  0.01889  0.24834  0.80249  1.0000
  C   C1        1.0  0.28265  0.42512  0.44132  1.0000
  C   C2        1.0  0.84260  0.07547  0.55888  1.0000
  C   C3        1.0  0.71736  0.57488  0.55867  1.0000
  C   C4        1.0  0.15741  0.92452  0.44112  1.0000
  C   C5        1.0  0.34853  0.40972  0.55229  1.0000
  C   C6        1.0  0.79685  0.09119  0.44797  1.0000
  C   C7        1.0  0.65147  0.59029  0.44771  1.0000
  C   C8        1.0  0.20315  0.90880  0.55203  1.0000
  C   C9        1.0  0.56715  0.48413  0.61334  1.0000
  C   C10       1.0  0.95331  0.01615  0.38664  1.0000
  C   C11       1.0  0.43285  0.51588  0.38665  1.0000
  C   C12       1.0  0.04671  0.98383  0.61337  1.0000
  C   C13       1.0  0.62091  0.47382  0.73072  1.0000
  C   C14       1.0  0.88915  0.02653  0.26940  1.0000
  C   C15       1.0  0.37909  0.52619  0.26928  1.0000
  C   C16       1.0  0.11084  0.97347  0.73061  1.0000
  C   C17       1.0  0.54098  0.33460  0.78809  1.0000
  C   C18       1.0  0.75146  0.16561  0.21216  1.0000
  C   C19       1.0  0.45903  0.66540  0.21190  1.0000
  C   C20       1.0  0.24852  0.83439  0.78785  1.0000
  C   C21       1.0  0.71130  0.61274  0.81068  1.0000
  C   C22       1.0  0.89935  0.88769  0.18937  1.0000
  C   C23       1.0  0.28870  0.38727  0.18932  1.0000
  C   C24       1.0  0.10067  0.11230  0.81063  1.0000
  N   N1        1.0  0.57051  0.38957  0.89286  1.0000
  N   N2        1.0  0.67577  0.11069  0.10749  1.0000
  N   N3        1.0  0.42950  0.61043  0.10713  1.0000
  N   N4        1.0  0.32423  0.88932  0.89252  1.0000
  N   N5        1.0  0.67419  0.56406  0.90702  1.0000
  N   N6        1.0  0.76545  0.93622  0.09317  1.0000
  N   N7        1.0  0.32580  0.43595  0.09297  1.0000
  N   N8        1.0  0.23457  0.06379  0.90684  1.0000
