data_image0
_chemical_formula_structural       Co2H16C24N8
_chemical_formula_sum              "Co2 H16 C24 N8"
_cell_length_a       5.33436
_cell_length_b       13.4098
_cell_length_c       13.7112
_cell_angle_alpha    92.084
_cell_angle_beta     73.7967
_cell_angle_gamma    75.4137

_space_group_name_H-M_alt    "P 1"
_space_group_IT_number       1

loop_
  _space_group_symop_operation_xyz
  'x, y, z'

loop_
  _atom_site_type_symbol
  _atom_site_label
  _atom_site_symmetry_multiplicity
  _atom_site_fract_x
  _atom_site_fract_y
  _atom_site_fract_z
  _atom_site_occupancy
  Co  Co1       1.0  0.19563  0.52541  0.48260  1.0000
  Co  Co2       1.0  0.80446  0.47457  0.51739  1.0000
  H   H1        1.0  0.28930  0.58385  0.71408  1.0000
  H   H2        1.0  0.22112  0.28722  0.41424  1.0000
  H   H3        1.0  0.71064  0.41618  0.28594  1.0000
  H   H4        1.0  0.77893  0.71278  0.58576  1.0000
  H   H5        1.0  0.65887  0.42148  0.77687  1.0000
  H   H6        1.0  0.84005  0.23301  0.57040  1.0000
  H   H7        1.0  0.34108  0.57855  0.22314  1.0000
  H   H8        1.0  0.16007  0.76692  0.42957  1.0000
  H   H9        1.0  0.24916  0.60999  0.06126  1.0000
  H   H10       1.0  0.25354  0.93251  0.39534  1.0000
  H   H11       1.0  0.75074  0.39005  0.93875  1.0000
  H   H12       1.0  0.74640  0.06747  0.60465  1.0000
  H   H13       1.0  0.21759  0.61391  0.88691  1.0000
  H   H14       1.0  0.28521  0.11077  0.38855  1.0000
  H   H15       1.0  0.78242  0.38609  0.11310  1.0000
  H   H16       1.0  0.71463  0.88922  0.61147  1.0000
  C   C1        1.0  0.13240  0.54584  0.71421  1.0000
  C   C2        1.0  0.37496  0.29001  0.45122  1.0000
  C   C3        1.0  0.86758  0.45419  0.28582  1.0000
  C   C4        1.0  0.62509  0.70998  0.54878  1.0000
  C   C5        1.0  0.81421  0.46030  0.74531  1.0000
  C   C6        1.0  0.68600  0.26303  0.53316  1.0000
  C   C7        1.0  0.18579  0.53973  0.25468  1.0000
  C   C8        1.0  0.31412  0.73693  0.46681  1.0000
  C   C9        1.0  0.97345  0.50311  0.79307  1.0000
  C   C10       1.0  0.52905  0.21165  0.49312  1.0000
  C   C11       1.0  0.02654  0.49694  0.20694  1.0000
  C   C12       1.0  0.47099  0.78833  0.50684  1.0000
  C   C13       1.0  0.98325  0.50191  0.89806  1.0000
  C   C14       1.0  0.51762  0.10428  0.49618  1.0000
  C   C15       1.0  0.01667  0.49813  0.10195  1.0000
  C   C16       1.0  0.48235  0.89570  0.50380  1.0000
  C   C17       1.0  0.14004  0.56111  0.03505  1.0000
  C   C18       1.0  0.36144  0.96137  0.44196  1.0000
  C   C19       1.0  0.85989  0.43893  0.96496  1.0000
  C   C20       1.0  0.63851  0.03862  0.55803  1.0000
  C   C21       1.0  0.12277  0.56313  0.93596  1.0000
  C   C22       1.0  0.37922  0.06278  0.43822  1.0000
  C   C23       1.0  0.87717  0.43691  0.06405  1.0000
  C   C24       1.0  0.62072  0.93719  0.56177  1.0000
  N   N1        1.0  0.07200  0.52848  0.62762  1.0000
  N   N2        1.0  0.43573  0.38010  0.46545  1.0000
  N   N3        1.0  0.92803  0.47153  0.37240  1.0000
  N   N4        1.0  0.56438  0.61987  0.53456  1.0000
  N   N5        1.0  0.87644  0.47709  0.64645  1.0000
  N   N6        1.0  0.62633  0.36352  0.51611  1.0000
  N   N7        1.0  0.12359  0.52291  0.35354  1.0000
  N   N8        1.0  0.37382  0.63645  0.48389  1.0000
