data_image0
_chemical_formula_structural       Fe2H16C24N8
_chemical_formula_sum              "Fe2 H16 C24 N8"
_cell_length_a       6.89464
_cell_length_b       6.55238
_cell_length_c       13.0274
_cell_angle_alpha    91.7768
_cell_angle_beta     105.348
_cell_angle_gamma    89.9789

_space_group_name_H-M_alt    "P 1"
_space_group_IT_number       1

loop_
  _space_group_symop_operation_xyz
  'x, y, z'

loop_
  _atom_site_type_symbol
  _atom_site_label
  _atom_site_symmetry_multiplicity
  _atom_site_fract_x
  _atom_site_fract_y
  _atom_site_fract_z
  _atom_site_occupancy
  Fe  Fe1       1.0  0.54712  0.74942  0.00013  1.0000
  Fe  Fe2       1.0  0.45288  0.25058  0.99987  1.0000
  H   H1        1.0  0.29260  0.66623  0.75686  1.0000
  H   H2        1.0  0.53505  0.83345  0.24306  1.0000
  H   H3        1.0  0.70740  0.33378  0.24315  1.0000
  H   H4        1.0  0.46494  0.16656  0.75693  1.0000
  H   H5        1.0  0.05142  0.26504  0.79797  1.0000
  H   H6        1.0  0.25264  0.23475  0.20186  1.0000
  H   H7        1.0  0.94857  0.73495  0.20203  1.0000
  H   H8        1.0  0.74737  0.76525  0.79814  1.0000
  H   H9        1.0  0.16044  0.78282  0.38692  1.0000
  H   H10       1.0  0.77257  0.71821  0.61294  1.0000
  H   H11       1.0  0.83955  0.21717  0.61308  1.0000
  H   H12       1.0  0.22742  0.28178  0.38706  1.0000
  H   H13       1.0  0.25708  0.74481  0.57926  1.0000
  H   H14       1.0  0.67698  0.75571  0.42068  1.0000
  H   H15       1.0  0.74292  0.25517  0.42075  1.0000
  H   H16       1.0  0.32301  0.24429  0.57931  1.0000
  C   C1        1.0  0.25098  0.81296  0.78522  1.0000
  C   C2        1.0  0.46497  0.68680  0.21469  1.0000
  C   C3        1.0  0.74903  0.18705  0.21478  1.0000
  C   C4        1.0  0.53503  0.31321  0.78530  1.0000
  C   C5        1.0  0.12522  0.11756  0.80631  1.0000
  C   C6        1.0  0.31829  0.38212  0.19361  1.0000
  C   C7        1.0  0.87478  0.88245  0.19369  1.0000
  C   C8        1.0  0.68169  0.61788  0.80638  1.0000
  C   C9        1.0  0.12734  0.96488  0.72802  1.0000
  C   C10       1.0  0.39908  0.53464  0.27197  1.0000
  C   C11       1.0  0.87268  0.03513  0.27198  1.0000
  C   C12       1.0  0.60092  0.46537  0.72803  1.0000
  C   C13       1.0  0.05569  0.97758  0.61229  1.0000
  C   C14       1.0  0.44346  0.52208  0.38766  1.0000
  C   C15       1.0  0.94431  0.02242  0.38771  1.0000
  C   C16       1.0  0.55653  0.47792  0.61234  1.0000
  C   C17       1.0  0.08790  0.87793  0.43569  1.0000
  C   C18       1.0  0.65147  0.62277  0.56426  1.0000
  C   C19       1.0  0.91210  0.12205  0.56432  1.0000
  C   C20       1.0  0.34852  0.37723  0.43574  1.0000
  C   C21       1.0  0.14221  0.85579  0.54532  1.0000
  C   C22       1.0  0.59628  0.64459  0.45463  1.0000
  C   C23       1.0  0.85779  0.14419  0.45468  1.0000
  C   C24       1.0  0.40371  0.35541  0.54536  1.0000
  N   N1        1.0  0.32358  0.87456  0.88802  1.0000
  N   N2        1.0  0.43412  0.62551  0.11183  1.0000
  N   N3        1.0  0.67644  0.12546  0.11199  1.0000
  N   N4        1.0  0.56590  0.37449  0.88816  1.0000
  N   N5        1.0  0.24708  0.06488  0.90126  1.0000
  N   N6        1.0  0.34463  0.43504  0.09860  1.0000
  N   N7        1.0  0.75292  0.93514  0.09874  1.0000
  N   N8        1.0  0.65538  0.56496  0.90140  1.0000
