data_image0
_chemical_formula_structural       Fe2H16C24N8
_chemical_formula_sum              "Fe2 H16 C24 N8"
_cell_length_a       7.0557
_cell_length_b       13.4651
_cell_length_c       13.4651
_cell_angle_alpha    90.0487
_cell_angle_beta     90
_cell_angle_gamma    90.0001

_space_group_name_H-M_alt    "P 1"
_space_group_IT_number       1

loop_
  _space_group_symop_operation_xyz
  'x, y, z'

loop_
  _atom_site_type_symbol
  _atom_site_label
  _atom_site_symmetry_multiplicity
  _atom_site_fract_x
  _atom_site_fract_y
  _atom_site_fract_z
  _atom_site_occupancy
  Fe  Fe1       1.0  0.25000  0.00000  1.00000  1.0000
  Fe  Fe2       1.0  0.75000  0.00000  0.00000  1.0000
  H   H1        1.0  0.69325  0.99990  0.23735  1.0000
  H   H2        1.0  0.69325  0.00010  0.76265  1.0000
  H   H3        1.0  0.30665  0.00038  0.23729  1.0000
  H   H4        1.0  0.80675  0.76265  0.00010  1.0000
  H   H5        1.0  0.19335  0.76271  0.99962  1.0000
  H   H6        1.0  0.19335  0.23729  0.00038  1.0000
  H   H7        1.0  0.80675  0.23735  0.99990  1.0000
  H   H8        1.0  0.30665  0.99961  0.76271  1.0000
  H   H9        1.0  0.69450  0.99980  0.40921  1.0000
  H   H10       1.0  0.69450  0.00019  0.59079  1.0000
  H   H11       1.0  0.30554  0.99977  0.40921  1.0000
  H   H12       1.0  0.80550  0.59079  0.00020  1.0000
  H   H13       1.0  0.19446  0.59079  0.00022  1.0000
  H   H14       1.0  0.19446  0.40922  0.99978  1.0000
  H   H15       1.0  0.80549  0.40922  0.99980  1.0000
  H   H16       1.0  0.30554  0.00021  0.59079  1.0000
  C   C1        1.0  0.84375  0.99992  0.22060  1.0000
  C   C2        1.0  0.84375  0.00008  0.77940  1.0000
  C   C3        1.0  0.15615  0.00017  0.22059  1.0000
  C   C4        1.0  0.65625  0.77940  0.00008  1.0000
  C   C5        1.0  0.34384  0.77942  0.99983  1.0000
  C   C6        1.0  0.34385  0.22059  0.00017  1.0000
  C   C7        1.0  0.65625  0.22061  0.99992  1.0000
  C   C8        1.0  0.15615  0.99982  0.77941  1.0000
  C   C9        1.0  0.99997  0.99991  0.28558  1.0000
  C   C10       1.0  0.99996  0.00009  0.71442  1.0000
  C   C11       1.0  0.50004  0.71442  0.00009  1.0000
  C   C12       1.0  0.50004  0.28558  0.99991  1.0000
  C   C13       1.0  0.00000  0.99987  0.39395  1.0000
  C   C14       1.0  0.00000  0.00012  0.60605  1.0000
  C   C15       1.0  0.49999  0.60605  0.00012  1.0000
  C   C16       1.0  0.50000  0.39396  0.99988  1.0000
  C   C17       1.0  0.82972  0.99992  0.44844  1.0000
  C   C18       1.0  0.82972  0.00007  0.55156  1.0000
  C   C19       1.0  0.17031  0.99991  0.44844  1.0000
  C   C20       1.0  0.67028  0.55157  0.00008  1.0000
  C   C21       1.0  0.32969  0.55157  0.00008  1.0000
  C   C22       1.0  0.32968  0.44844  0.99992  1.0000
  C   C23       1.0  0.67028  0.44844  0.99992  1.0000
  C   C24       1.0  0.17031  0.00007  0.55156  1.0000
  N   N1        1.0  0.90277  0.00036  0.12535  1.0000
  N   N2        1.0  0.90276  0.99964  0.87465  1.0000
  N   N3        1.0  0.09708  0.00052  0.12534  1.0000
  N   N4        1.0  0.59724  0.87466  0.99964  1.0000
  N   N5        1.0  0.40292  0.87467  0.99948  1.0000
  N   N6        1.0  0.40292  0.12534  0.00052  1.0000
  N   N7        1.0  0.59724  0.12535  0.00036  1.0000
  N   N8        1.0  0.09708  0.99948  0.87466  1.0000
