data_image0
_chemical_formula_structural       Cd4H32C64O32
_chemical_formula_sum              "Cd4 H32 C64 O32"
_cell_length_a       9.00489
_cell_length_b       10.021
_cell_length_c       16.0755
_cell_angle_alpha    90.0001
_cell_angle_beta     90
_cell_angle_gamma    90

_space_group_name_H-M_alt    "P 1"
_space_group_IT_number       1

loop_
  _space_group_symop_operation_xyz
  'x, y, z'

loop_
  _atom_site_type_symbol
  _atom_site_label
  _atom_site_symmetry_multiplicity
  _atom_site_fract_x
  _atom_site_fract_y
  _atom_site_fract_z
  _atom_site_occupancy
  Cd  Cd1       1.0  0.04580  0.75000  1.00000  1.0000
  Cd  Cd2       1.0  0.45421  0.25000  0.50000  1.0000
  Cd  Cd3       1.0  0.95420  0.25000  0.00000  1.0000
  Cd  Cd4       1.0  0.54579  0.75000  0.50000  1.0000
  H   H1        1.0  0.73701  0.49331  0.18317  1.0000
  H   H2        1.0  0.76299  0.99331  0.31683  1.0000
  H   H3        1.0  0.73701  0.00669  0.81683  1.0000
  H   H4        1.0  0.76299  0.50669  0.68317  1.0000
  H   H5        1.0  0.26298  0.50669  0.81683  1.0000
  H   H6        1.0  0.23701  0.00669  0.68317  1.0000
  H   H7        1.0  0.26298  0.99331  0.18317  1.0000
  H   H8        1.0  0.23701  0.49331  0.31683  1.0000
  H   H9        1.0  0.47875  0.84797  0.22729  1.0000
  H   H10       1.0  0.02125  0.34797  0.27271  1.0000
  H   H11       1.0  0.47875  0.65203  0.77271  1.0000
  H   H12       1.0  0.02125  0.15203  0.72729  1.0000
  H   H13       1.0  0.52125  0.15203  0.77271  1.0000
  H   H14       1.0  0.97875  0.65204  0.72729  1.0000
  H   H15       1.0  0.52125  0.34797  0.22729  1.0000
  H   H16       1.0  0.97875  0.84796  0.27271  1.0000
  H   H17       1.0  0.49449  0.90353  0.07669  1.0000
  H   H18       1.0  0.00551  0.40353  0.42331  1.0000
  H   H19       1.0  0.49449  0.59647  0.92331  1.0000
  H   H20       1.0  0.00551  0.09647  0.57669  1.0000
  H   H21       1.0  0.50551  0.09647  0.92330  1.0000
  H   H22       1.0  0.99449  0.59647  0.57670  1.0000
  H   H23       1.0  0.50551  0.40353  0.07670  1.0000
  H   H24       1.0  0.99449  0.90353  0.42330  1.0000
  H   H25       1.0  0.62634  0.48324  0.38353  1.0000
  H   H26       1.0  0.87365  0.98324  0.11647  1.0000
  H   H27       1.0  0.62634  0.01676  0.61647  1.0000
  H   H28       1.0  0.87365  0.51676  0.88353  1.0000
  H   H29       1.0  0.37366  0.51676  0.61647  1.0000
  H   H30       1.0  0.12634  0.01676  0.88353  1.0000
  H   H31       1.0  0.37366  0.98324  0.38353  1.0000
  H   H32       1.0  0.12634  0.48324  0.11647  1.0000
  C   C1        1.0  0.69705  0.61688  0.07644  1.0000
  C   C2        1.0  0.80295  0.11688  0.42356  1.0000
  C   C3        1.0  0.69705  0.88312  0.92356  1.0000
  C   C4        1.0  0.80295  0.38312  0.57644  1.0000
  C   C5        1.0  0.30295  0.38312  0.92356  1.0000
  C   C6        1.0  0.19705  0.88312  0.57644  1.0000
  C   C7        1.0  0.30295  0.11688  0.07644  1.0000
  C   C8        1.0  0.19705  0.61688  0.42356  1.0000
  C   C9        1.0  0.68387  0.58388  0.16047  1.0000
  C   C10       1.0  0.81613  0.08388  0.33954  1.0000
  C   C11       1.0  0.68388  0.91612  0.83953  1.0000
  C   C12       1.0  0.81613  0.41612  0.66046  1.0000
  C   C13       1.0  0.31613  0.41612  0.83953  1.0000
  C   C14       1.0  0.18387  0.91612  0.66046  1.0000
  C   C15       1.0  0.31613  0.08388  0.16047  1.0000
  C   C16       1.0  0.18387  0.58388  0.33954  1.0000
  C   C17       1.0  0.60625  0.66710  0.21504  1.0000
  C   C18       1.0  0.89375  0.16710  0.28496  1.0000
  C   C19       1.0  0.60625  0.83290  0.78496  1.0000
  C   C20       1.0  0.89375  0.33290  0.71504  1.0000
  C   C21       1.0  0.39375  0.33290  0.78496  1.0000
  C   C22       1.0  0.10625  0.83290  0.71504  1.0000
  C   C23       1.0  0.39375  0.16710  0.21504  1.0000
  C   C24       1.0  0.10625  0.66710  0.28496  1.0000
  C   C25       1.0  0.54014  0.78397  0.18457  1.0000
  C   C26       1.0  0.95985  0.28397  0.31543  1.0000
  C   C27       1.0  0.54015  0.71603  0.81543  1.0000
  C   C28       1.0  0.95985  0.21603  0.68457  1.0000
  C   C29       1.0  0.45986  0.21603  0.81542  1.0000
  C   C30       1.0  0.04014  0.71603  0.68458  1.0000
  C   C31       1.0  0.45986  0.28397  0.18458  1.0000
  C   C32       1.0  0.04014  0.78397  0.31542  1.0000
  C   C33       1.0  0.55099  0.81556  0.10056  1.0000
  C   C34       1.0  0.94901  0.31556  0.39944  1.0000
  C   C35       1.0  0.55099  0.68444  0.89944  1.0000
  C   C36       1.0  0.94901  0.18444  0.60056  1.0000
  C   C37       1.0  0.44901  0.18444  0.89944  1.0000
  C   C38       1.0  0.05099  0.68444  0.60056  1.0000
  C   C39       1.0  0.44901  0.31556  0.10056  1.0000
  C   C40       1.0  0.05099  0.81556  0.39944  1.0000
  C   C41       1.0  0.62952  0.73355  0.04515  1.0000
  C   C42       1.0  0.87049  0.23355  0.45485  1.0000
  C   C43       1.0  0.62952  0.76645  0.95485  1.0000
  C   C44       1.0  0.87048  0.26645  0.54515  1.0000
  C   C45       1.0  0.37048  0.26645  0.95485  1.0000
  C   C46       1.0  0.12951  0.76645  0.54515  1.0000
  C   C47       1.0  0.37049  0.23355  0.04515  1.0000
  C   C48       1.0  0.12951  0.73355  0.45485  1.0000
  C   C49       1.0  0.78851  0.52775  0.02243  1.0000
  C   C50       1.0  0.71150  0.02775  0.47757  1.0000
  C   C51       1.0  0.78851  0.97225  0.97757  1.0000
  C   C52       1.0  0.71150  0.47225  0.52243  1.0000
  C   C53       1.0  0.21150  0.47226  0.97757  1.0000
  C   C54       1.0  0.28850  0.97226  0.52243  1.0000
  C   C55       1.0  0.21150  0.02774  0.02243  1.0000
  C   C56       1.0  0.28850  0.52774  0.47757  1.0000
  C   C57       1.0  0.59175  0.63154  0.30431  1.0000
  C   C58       1.0  0.90825  0.13154  0.19569  1.0000
  C   C59       1.0  0.59175  0.86846  0.69569  1.0000
  C   C60       1.0  0.90825  0.36846  0.80431  1.0000
  C   C61       1.0  0.40825  0.36845  0.69568  1.0000
  C   C62       1.0  0.09174  0.86845  0.80432  1.0000
  C   C63       1.0  0.40825  0.13155  0.30432  1.0000
  C   C64       1.0  0.09174  0.63155  0.19568  1.0000
  O   O1        1.0  0.87379  0.58318  0.96796  1.0000
  O   O2        1.0  0.62622  0.08318  0.53204  1.0000
  O   O3        1.0  0.87379  0.91682  0.03204  1.0000
  O   O4        1.0  0.62622  0.41682  0.46796  1.0000
  O   O5        1.0  0.12621  0.41681  0.03204  1.0000
  O   O6        1.0  0.37379  0.91682  0.46796  1.0000
  O   O7        1.0  0.12621  0.08319  0.96796  1.0000
  O   O8        1.0  0.37379  0.58319  0.53204  1.0000
  O   O9        1.0  0.77771  0.40338  0.03322  1.0000
  O   O10       1.0  0.72229  0.90338  0.46678  1.0000
  O   O11       1.0  0.77771  0.09662  0.96678  1.0000
  O   O12       1.0  0.72229  0.59662  0.53322  1.0000
  O   O13       1.0  0.22230  0.59661  0.96678  1.0000
  O   O14       1.0  0.27771  0.09662  0.53322  1.0000
  O   O15       1.0  0.22230  0.90339  0.03322  1.0000
  O   O16       1.0  0.27771  0.40338  0.46678  1.0000
  O   O17       1.0  0.64086  0.51070  0.32197  1.0000
  O   O18       1.0  0.85914  0.01071  0.17803  1.0000
  O   O19       1.0  0.64086  0.98929  0.67803  1.0000
  O   O20       1.0  0.85914  0.48929  0.82197  1.0000
  O   O21       1.0  0.35914  0.48929  0.67802  1.0000
  O   O22       1.0  0.14086  0.98930  0.82198  1.0000
  O   O23       1.0  0.35914  0.01071  0.32198  1.0000
  O   O24       1.0  0.14086  0.51070  0.17802  1.0000
  O   O25       1.0  0.53551  0.70989  0.35565  1.0000
  O   O26       1.0  0.96449  0.20989  0.14434  1.0000
  O   O27       1.0  0.53551  0.79011  0.64435  1.0000
  O   O28       1.0  0.96448  0.29011  0.85566  1.0000
  O   O29       1.0  0.46448  0.29011  0.64435  1.0000
  O   O30       1.0  0.03552  0.79011  0.85565  1.0000
  O   O31       1.0  0.46448  0.20989  0.35565  1.0000
  O   O32       1.0  0.03552  0.70989  0.14435  1.0000
