data_image0
_chemical_formula_structural       ZnH14C22N6
_chemical_formula_sum              "Zn1 H14 C22 N6"
_cell_length_a       7.39575
_cell_length_b       8.8015
_cell_length_c       10.8641
_cell_angle_alpha    113.959
_cell_angle_beta     90.0869
_cell_angle_gamma    114.889

_space_group_name_H-M_alt    "P 1"
_space_group_IT_number       1

loop_
  _space_group_symop_operation_xyz
  'x, y, z'

loop_
  _atom_site_type_symbol
  _atom_site_label
  _atom_site_symmetry_multiplicity
  _atom_site_fract_x
  _atom_site_fract_y
  _atom_site_fract_z
  _atom_site_occupancy
  Zn  Zn1       1.0  0.99999  1.00000  0.00000  1.0000
  H   H1        1.0  0.62875  0.25733  0.02084  1.0000
  H   H2        1.0  0.37124  0.74266  0.97915  1.0000
  H   H3        1.0  0.93104  0.86230  0.22859  1.0000
  H   H4        1.0  0.06895  0.13770  0.77141  1.0000
  H   H5        1.0  0.76900  0.95550  0.59500  1.0000
  H   H6        1.0  0.81247  0.04216  0.40456  1.0000
  H   H7        1.0  0.23099  0.04451  0.40501  1.0000
  H   H8        1.0  0.18753  0.95785  0.59545  1.0000
  H   H9        1.0  0.79933  0.59641  0.80352  1.0000
  H   H10       1.0  0.20068  0.40359  0.19648  1.0000
  H   H11       1.0  0.64042  0.27874  0.79715  1.0000
  H   H12       1.0  0.35958  0.72126  0.20284  1.0000
  H   H13       1.0  0.77783  0.55669  0.24226  1.0000
  H   H14       1.0  0.22215  0.44330  0.75773  1.0000
  C   C1        1.0  0.69689  0.39313  0.01984  1.0000
  C   C2        1.0  0.30311  0.60686  0.98015  1.0000
  C   C3        1.0  0.60586  0.89325  0.79079  1.0000
  C   C4        1.0  0.71284  0.10589  0.20910  1.0000
  C   C5        1.0  0.39416  0.10675  0.20920  1.0000
  C   C6        1.0  0.28718  0.89410  0.79090  1.0000
  C   C7        1.0  0.45282  0.90630  0.72827  1.0000
  C   C8        1.0  0.54720  0.09370  0.27174  1.0000
  C   C9        1.0  0.47487  0.95003  0.61069  1.0000
  C   C10       1.0  0.52513  0.04998  0.38932  1.0000
  C   C11       1.0  0.86455  0.72887  0.13583  1.0000
  C   C12       1.0  0.13544  0.27112  0.86417  1.0000
  C   C13       1.0  0.65005  0.97481  0.55370  1.0000
  C   C14       1.0  0.67467  0.02388  0.44611  1.0000
  C   C15       1.0  0.34995  0.02521  0.44631  1.0000
  C   C16       1.0  0.32533  0.97613  0.55390  1.0000
  C   C17       1.0  0.79083  0.57985  0.89783  1.0000
  C   C18       1.0  0.20918  0.42015  0.10217  1.0000
  C   C19       1.0  0.70291  0.40416  0.89539  1.0000
  C   C20       1.0  0.29710  0.59584  0.10460  1.0000
  C   C21       1.0  0.77941  0.55886  0.14265  1.0000
  C   C22       1.0  0.22058  0.44113  0.85735  1.0000
  N   N1        1.0  0.73727  0.88254  0.84243  1.0000
  N   N2        1.0  0.85436  0.11601  0.15713  1.0000
  N   N3        1.0  0.26274  0.11746  0.15757  1.0000
  N   N4        1.0  0.14563  0.88399  0.84287  1.0000
  N   N5        1.0  0.87032  0.73959  0.01589  1.0000
  N   N6        1.0  0.12967  0.26041  0.98412  1.0000
