data_image0
_chemical_formula_structural       Ba4H16C16O20
_chemical_formula_sum              "Ba4 H16 C16 O20"
_cell_length_a       6.92567
_cell_length_b       8.20869
_cell_length_c       10.4905
_cell_angle_alpha    90.0001
_cell_angle_beta     90
_cell_angle_gamma    95.0262

_space_group_name_H-M_alt    "P 1"
_space_group_IT_number       1

loop_
  _space_group_symop_operation_xyz
  'x, y, z'

loop_
  _atom_site_type_symbol
  _atom_site_label
  _atom_site_symmetry_multiplicity
  _atom_site_fract_x
  _atom_site_fract_y
  _atom_site_fract_z
  _atom_site_occupancy
  Ba  Ba1       1.0  0.46423  0.73534  0.40167  1.0000
  Ba  Ba2       1.0  0.03576  0.26466  0.90167  1.0000
  Ba  Ba3       1.0  0.53577  0.26466  0.59833  1.0000
  Ba  Ba4       1.0  0.96423  0.73534  0.09833  1.0000
  H   H1        1.0  0.12459  0.09325  0.34271  1.0000
  H   H2        1.0  0.37541  0.90675  0.84271  1.0000
  H   H3        1.0  0.87541  0.90676  0.65729  1.0000
  H   H4        1.0  0.62459  0.09325  0.15729  1.0000
  H   H5        1.0  0.96349  0.17388  0.23285  1.0000
  H   H6        1.0  0.53651  0.82612  0.73285  1.0000
  H   H7        1.0  0.03652  0.82612  0.76715  1.0000
  H   H8        1.0  0.46348  0.17388  0.26716  1.0000
  H   H9        1.0  0.81091  0.44690  0.33047  1.0000
  H   H10       1.0  0.68909  0.55310  0.83047  1.0000
  H   H11       1.0  0.18908  0.55310  0.66953  1.0000
  H   H12       1.0  0.31091  0.44690  0.16953  1.0000
  H   H13       1.0  0.00870  0.27349  0.51411  1.0000
  H   H14       1.0  0.49131  0.72651  0.01410  1.0000
  H   H15       1.0  0.99130  0.72652  0.48589  1.0000
  H   H16       1.0  0.50869  0.27349  0.98589  1.0000
  C   C1        1.0  0.82967  0.01184  0.37254  1.0000
  C   C2        1.0  0.67034  0.98816  0.87254  1.0000
  C   C3        1.0  0.17034  0.98816  0.62746  1.0000
  C   C4        1.0  0.32967  0.01184  0.12747  1.0000
  C   C5        1.0  0.98436  0.14543  0.33414  1.0000
  C   C6        1.0  0.51564  0.85456  0.83414  1.0000
  C   C7        1.0  0.01564  0.85457  0.66586  1.0000
  C   C8        1.0  0.48436  0.14543  0.16586  1.0000
  C   C9        1.0  0.98703  0.30192  0.41293  1.0000
  C   C10       1.0  0.51297  0.69808  0.91293  1.0000
  C   C11       1.0  0.01296  0.69808  0.58707  1.0000
  C   C12       1.0  0.48703  0.30192  0.08707  1.0000
  C   C13       1.0  0.15838  0.42026  0.37173  1.0000
  C   C14       1.0  0.34161  0.57974  0.87173  1.0000
  C   C15       1.0  0.84161  0.57975  0.62827  1.0000
  C   C16       1.0  0.65838  0.42026  0.12827  1.0000
  O   O1        1.0  0.81654  0.88233  0.30390  1.0000
  O   O2        1.0  0.68346  0.11767  0.80389  1.0000
  O   O3        1.0  0.18346  0.11767  0.69610  1.0000
  O   O4        1.0  0.31654  0.88233  0.19610  1.0000
  O   O5        1.0  0.72036  0.02886  0.46807  1.0000
  O   O6        1.0  0.77962  0.97114  0.96806  1.0000
  O   O7        1.0  0.27963  0.97114  0.53193  1.0000
  O   O8        1.0  0.22036  0.02886  0.03193  1.0000
  O   O9        1.0  0.80699  0.37383  0.40468  1.0000
  O   O10       1.0  0.69301  0.62616  0.90468  1.0000
  O   O11       1.0  0.19300  0.62616  0.59532  1.0000
  O   O12       1.0  0.30699  0.37383  0.09532  1.0000
  O   O13       1.0  0.32675  0.38768  0.40638  1.0000
  O   O14       1.0  0.17326  0.61232  0.90638  1.0000
  O   O15       1.0  0.67325  0.61233  0.59362  1.0000
  O   O16       1.0  0.82675  0.38768  0.09362  1.0000
  O   O17       1.0  0.12674  0.54307  0.30255  1.0000
  O   O18       1.0  0.37326  0.45692  0.80254  1.0000
  O   O19       1.0  0.87326  0.45693  0.69746  1.0000
  O   O20       1.0  0.62674  0.54307  0.19745  1.0000
