data_image0
_chemical_formula_structural       Nd2H26C28N4O18
_chemical_formula_sum              "Nd2 H26 C28 N4 O18"
_cell_length_a       7.69502
_cell_length_b       9.68382
_cell_length_c       11.3064
_cell_angle_alpha    100.933
_cell_angle_beta     93.4019
_cell_angle_gamma    105.298

_space_group_name_H-M_alt    "P 1"
_space_group_IT_number       1

loop_
  _space_group_symop_operation_xyz
  'x, y, z'

loop_
  _atom_site_type_symbol
  _atom_site_label
  _atom_site_symmetry_multiplicity
  _atom_site_fract_x
  _atom_site_fract_y
  _atom_site_fract_z
  _atom_site_occupancy
  Nd  Nd1       1.0  0.10173  0.84093  0.05717  1.0000
  Nd  Nd2       1.0  0.89826  0.15906  0.94283  1.0000
  H   H1        1.0  0.83863  0.00218  0.19629  1.0000
  H   H2        1.0  0.16138  0.99783  0.80372  1.0000
  H   H3        1.0  0.99167  0.97765  0.28974  1.0000
  H   H4        1.0  0.00833  0.02236  0.71026  1.0000
  H   H5        1.0  0.19794  0.22935  0.47231  1.0000
  H   H6        1.0  0.80207  0.77065  0.52768  1.0000
  H   H7        1.0  0.08750  0.32991  0.66548  1.0000
  H   H8        1.0  0.91251  0.67009  0.33451  1.0000
  H   H9        1.0  0.11810  0.59382  0.72945  1.0000
  H   H10       1.0  0.88189  0.40617  0.27055  1.0000
  H   H11       1.0  0.26079  0.77054  0.60571  1.0000
  H   H12       1.0  0.73919  0.22945  0.39429  1.0000
  H   H13       1.0  0.51129  0.69581  0.16603  1.0000
  H   H14       1.0  0.48871  0.30419  0.83397  1.0000
  H   H15       1.0  0.40647  0.50951  0.09849  1.0000
  H   H16       1.0  0.59352  0.49049  0.90151  1.0000
  H   H17       1.0  0.62849  0.56236  0.17662  1.0000
  H   H18       1.0  0.37150  0.43764  0.82338  1.0000
  H   H19       1.0  0.53808  0.85184  0.32752  1.0000
  H   H20       1.0  0.46191  0.14816  0.67247  1.0000
  H   H21       1.0  0.48639  0.87802  0.47876  1.0000
  H   H22       1.0  0.51361  0.12197  0.52123  1.0000
  H   H23       1.0  0.35791  0.20878  0.29957  1.0000
  H   H24       1.0  0.64210  0.79122  0.70043  1.0000
  H   H25       1.0  0.47210  0.30062  0.19327  1.0000
  H   H26       1.0  0.52791  0.69938  0.80674  1.0000
  C   C1        1.0  0.28816  0.44614  0.43138  1.0000
  C   C2        1.0  0.71184  0.55385  0.56862  1.0000
  C   C3        1.0  0.21125  0.34607  0.50073  1.0000
  C   C4        1.0  0.78876  0.65392  0.49927  1.0000
  C   C5        1.0  0.15163  0.40326  0.60854  1.0000
  C   C6        1.0  0.84838  0.59674  0.39146  1.0000
  C   C7        1.0  0.16926  0.55409  0.64575  1.0000
  C   C8        1.0  0.83073  0.44590  0.35425  1.0000
  C   C9        1.0  0.24780  0.65401  0.57674  1.0000
  C   C10       1.0  0.75219  0.34599  0.42326  1.0000
  C   C11       1.0  0.30669  0.59694  0.46880  1.0000
  C   C12       1.0  0.69331  0.40306  0.53120  1.0000
  C   C13       1.0  0.41589  0.56064  0.28980  1.0000
  C   C14       1.0  0.58411  0.43936  0.71020  1.0000
  C   C15       1.0  0.49512  0.58374  0.17753  1.0000
  C   C16       1.0  0.50487  0.41625  0.82248  1.0000
  C   C17       1.0  0.43079  0.82102  0.38539  1.0000
  C   C18       1.0  0.56921  0.17898  0.61461  1.0000
  C   C19       1.0  0.26872  0.86872  0.33740  1.0000
  C   C20       1.0  0.73129  0.13128  0.66260  1.0000
  C   C21       1.0  0.35290  0.28905  0.24329  1.0000
  C   C22       1.0  0.64710  0.71096  0.75672  1.0000
  C   C23       1.0  0.17992  0.22973  0.15407  1.0000
  C   C24       1.0  0.82009  0.77028  0.84593  1.0000
  C   C25       1.0  0.90428  0.49641  0.02112  1.0000
  C   C26       1.0  0.09572  0.50360  0.97888  1.0000
  C   C27       1.0  0.53777  0.00333  0.06649  1.0000
  C   C28       1.0  0.46222  0.99669  0.93351  1.0000
  N   N1        1.0  0.38806  0.66397  0.37933  1.0000
  N   N2        1.0  0.61194  0.33603  0.62067  1.0000
  N   N3        1.0  0.35978  0.42865  0.32089  1.0000
  N   N4        1.0  0.64023  0.57134  0.67912  1.0000
  O   O1        1.0  0.25483  0.99385  0.38340  1.0000
  O   O2        1.0  0.74517  0.00614  0.61660  1.0000
  O   O3        1.0  0.16490  0.77663  0.24879  1.0000
  O   O4        1.0  0.83510  0.22337  0.75121  1.0000
  O   O5        1.0  0.16747  0.11379  0.07262  1.0000
  O   O6        1.0  0.83253  0.88622  0.92739  1.0000
  O   O7        1.0  0.05936  0.29507  0.16004  1.0000
  O   O8        1.0  0.94066  0.70496  0.83996  1.0000
  O   O9        1.0  0.86992  0.61676  0.05974  1.0000
  O   O10       1.0  0.13008  0.38324  0.94025  1.0000
  O   O11       1.0  0.79500  0.37112  0.01337  1.0000
  O   O12       1.0  0.20499  0.62887  0.98663  1.0000
  O   O13       1.0  0.42934  0.93900  0.13110  1.0000
  O   O14       1.0  0.57067  0.06102  0.86891  1.0000
  O   O15       1.0  0.70317  0.07379  0.10026  1.0000
  O   O16       1.0  0.29683  0.92623  0.89974  1.0000
  O   O17       1.0  0.90986  0.93523  0.21401  1.0000
  O   O18       1.0  0.09015  0.06478  0.78599  1.0000
