data_image0
_chemical_formula_structural       Dy4H40C44N4O28
_chemical_formula_sum              "Dy4 H40 C44 N4 O28"
_cell_length_a       8.07108
_cell_length_b       8.07111
_cell_length_c       17.8285
_cell_angle_alpha    91.2993
_cell_angle_beta     91.2994
_cell_angle_gamma    89.6869

_space_group_name_H-M_alt    "P 1"
_space_group_IT_number       1

loop_
  _space_group_symop_operation_xyz
  'x, y, z'

loop_
  _atom_site_type_symbol
  _atom_site_label
  _atom_site_symmetry_multiplicity
  _atom_site_fract_x
  _atom_site_fract_y
  _atom_site_fract_z
  _atom_site_occupancy
  Dy  Dy1       1.0  0.54250  0.75763  0.51288  1.0000
  Dy  Dy2       1.0  0.24237  0.45750  0.98712  1.0000
  Dy  Dy3       1.0  0.45750  0.24237  0.48712  1.0000
  Dy  Dy4       1.0  0.75763  0.54250  0.01288  1.0000
  H   H1        1.0  0.41879  0.42260  0.68805  1.0000
  H   H2        1.0  0.57740  0.58122  0.81195  1.0000
  H   H3        1.0  0.58121  0.57740  0.31195  1.0000
  H   H4        1.0  0.42260  0.41878  0.18805  1.0000
  H   H5        1.0  0.18396  0.43213  0.77937  1.0000
  H   H6        1.0  0.56787  0.81605  0.72063  1.0000
  H   H7        1.0  0.81604  0.56788  0.22064  1.0000
  H   H8        1.0  0.43212  0.18395  0.27936  1.0000
  H   H9        1.0  0.90216  0.53677  0.73291  1.0000
  H   H10       1.0  0.46322  0.09784  0.76710  1.0000
  H   H11       1.0  0.09784  0.46323  0.26709  1.0000
  H   H12       1.0  0.53677  0.90215  0.23291  1.0000
  H   H13       1.0  0.12760  0.62343  0.51962  1.0000
  H   H14       1.0  0.37657  0.87239  0.98038  1.0000
  H   H15       1.0  0.87240  0.37657  0.48038  1.0000
  H   H16       1.0  0.62344  0.12760  0.01962  1.0000
  H   H17       1.0  0.87215  0.11165  0.31161  1.0000
  H   H18       1.0  0.88834  0.12785  0.18839  1.0000
  H   H19       1.0  0.12785  0.88835  0.68839  1.0000
  H   H20       1.0  0.11166  0.87215  0.81161  1.0000
  H   H21       1.0  0.84019  0.89650  0.29008  1.0000
  H   H22       1.0  0.10349  0.15981  0.20992  1.0000
  H   H23       1.0  0.15980  0.10350  0.70992  1.0000
  H   H24       1.0  0.89651  0.84019  0.79008  1.0000
  H   H25       1.0  0.99877  0.03820  0.43589  1.0000
  H   H26       1.0  0.96179  0.00123  0.06410  1.0000
  H   H27       1.0  0.00123  0.96180  0.56410  1.0000
  H   H28       1.0  0.03820  0.99877  0.93590  1.0000
  H   H29       1.0  0.95454  0.82708  0.41812  1.0000
  H   H30       1.0  0.17291  0.04546  0.08188  1.0000
  H   H31       1.0  0.04546  0.17291  0.58188  1.0000
  H   H32       1.0  0.82709  0.95454  0.91812  1.0000
  H   H33       1.0  0.15123  0.82142  0.31151  1.0000
  H   H34       1.0  0.17857  0.84877  0.18849  1.0000
  H   H35       1.0  0.84877  0.17857  0.68848  1.0000
  H   H36       1.0  0.82143  0.15123  0.81151  1.0000
  H   H37       1.0  0.19692  0.03625  0.32958  1.0000
  H   H38       1.0  0.96374  0.80308  0.17042  1.0000
  H   H39       1.0  0.80308  0.96374  0.67041  1.0000
  H   H40       1.0  0.03626  0.19692  0.82959  1.0000
  C   C1        1.0  0.29524  0.46767  0.67394  1.0000
  C   C2        1.0  0.53233  0.70477  0.82606  1.0000
  C   C3        1.0  0.70477  0.53234  0.32606  1.0000
  C   C4        1.0  0.46767  0.29523  0.17394  1.0000
  C   C5        1.0  0.16296  0.47364  0.72222  1.0000
  C   C6        1.0  0.52635  0.83705  0.77778  1.0000
  C   C7        1.0  0.83705  0.52636  0.27778  1.0000
  C   C8        1.0  0.47365  0.16295  0.22222  1.0000
  C   C9        1.0  0.00930  0.53273  0.69680  1.0000
  C   C10       1.0  0.46726  0.99070  0.80321  1.0000
  C   C11       1.0  0.99070  0.46727  0.30320  1.0000
  C   C12       1.0  0.53274  0.00929  0.19679  1.0000
  C   C13       1.0  0.99286  0.58827  0.62328  1.0000
  C   C14       1.0  0.41173  0.00714  0.87672  1.0000
  C   C15       1.0  0.00715  0.41173  0.37672  1.0000
  C   C16       1.0  0.58827  0.99286  0.12328  1.0000
  C   C17       1.0  0.12935  0.58123  0.57698  1.0000
  C   C18       1.0  0.41877  0.87065  0.92302  1.0000
  C   C19       1.0  0.87065  0.41877  0.42302  1.0000
  C   C20       1.0  0.58123  0.12935  0.07698  1.0000
  C   C21       1.0  0.83309  0.65571  0.59116  1.0000
  C   C22       1.0  0.34428  0.16691  0.90884  1.0000
  C   C23       1.0  0.16691  0.34429  0.40884  1.0000
  C   C24       1.0  0.65572  0.83309  0.09116  1.0000
  C   C25       1.0  0.69111  0.99471  0.37920  1.0000
  C   C26       1.0  0.00529  0.30889  0.12080  1.0000
  C   C27       1.0  0.30889  0.00529  0.62079  1.0000
  C   C28       1.0  0.99471  0.69111  0.87920  1.0000
  C   C29       1.0  0.84961  0.99035  0.33567  1.0000
  C   C30       1.0  0.00964  0.15039  0.16433  1.0000
  C   C31       1.0  0.15039  0.00965  0.66433  1.0000
  C   C32       1.0  0.99036  0.84961  0.83567  1.0000
  C   C33       1.0  0.98851  0.94265  0.39108  1.0000
  C   C34       1.0  0.05734  0.01149  0.10892  1.0000
  C   C35       1.0  0.01149  0.05734  0.60891  1.0000
  C   C36       1.0  0.94266  0.98851  0.89108  1.0000
  C   C37       1.0  0.15742  0.92041  0.35470  1.0000
  C   C38       1.0  0.07959  0.84259  0.14530  1.0000
  C   C39       1.0  0.84258  0.07959  0.64530  1.0000
  C   C40       1.0  0.92041  0.15742  0.85470  1.0000
  C   C41       1.0  0.27917  0.87236  0.41549  1.0000
  C   C42       1.0  0.12764  0.72083  0.08451  1.0000
  C   C43       1.0  0.72083  0.12764  0.58451  1.0000
  C   C44       1.0  0.87236  0.27917  0.91549  1.0000
  N   N1        1.0  0.27572  0.52019  0.60260  1.0000
  N   N2        1.0  0.47981  0.72428  0.89740  1.0000
  N   N3        1.0  0.72428  0.47981  0.39740  1.0000
  N   N4        1.0  0.52019  0.27572  0.10260  1.0000
  O   O1        1.0  0.40445  0.51033  0.55673  1.0000
  O   O2        1.0  0.48968  0.59554  0.94327  1.0000
  O   O3        1.0  0.59555  0.48967  0.44328  1.0000
  O   O4        1.0  0.51033  0.40445  0.05673  1.0000
  O   O5        1.0  0.83121  0.69327  0.52182  1.0000
  O   O6        1.0  0.30672  0.16879  0.97818  1.0000
  O   O7        1.0  0.16880  0.30672  0.47818  1.0000
  O   O8        1.0  0.69329  0.83121  0.02182  1.0000
  O   O9        1.0  0.70682  0.67460  0.63166  1.0000
  O   O10       1.0  0.32540  0.29318  0.86834  1.0000
  O   O11       1.0  0.29318  0.32540  0.36834  1.0000
  O   O12       1.0  0.67460  0.70682  0.13166  1.0000
  O   O13       1.0  0.63707  0.85542  0.39994  1.0000
  O   O14       1.0  0.14457  0.36293  0.10006  1.0000
  O   O15       1.0  0.36293  0.14457  0.60006  1.0000
  O   O16       1.0  0.85543  0.63707  0.89994  1.0000
  O   O17       1.0  0.62847  0.13609  0.39544  1.0000
  O   O18       1.0  0.86391  0.37153  0.10456  1.0000
  O   O19       1.0  0.37153  0.86391  0.60456  1.0000
  O   O20       1.0  0.13609  0.62847  0.89544  1.0000
  O   O21       1.0  0.30891  0.72070  0.42779  1.0000
  O   O22       1.0  0.27930  0.69108  0.07222  1.0000
  O   O23       1.0  0.69109  0.27930  0.57221  1.0000
  O   O24       1.0  0.72070  0.30892  0.92779  1.0000
  O   O25       1.0  0.34688  0.98553  0.45733  1.0000
  O   O26       1.0  0.01447  0.65313  0.04267  1.0000
  O   O27       1.0  0.65312  0.01447  0.54267  1.0000
  O   O28       1.0  0.98553  0.34688  0.95733  1.0000
