data_image0
_chemical_formula_structural       Cd4H36C42N4O18
_chemical_formula_sum              "Cd4 H36 C42 N4 O18"
_cell_length_a       8.11886
_cell_length_b       10.1227
_cell_length_c       14.1682
_cell_angle_alpha    75.4967
_cell_angle_beta     78.2182
_cell_angle_gamma    73.152

_space_group_name_H-M_alt    "P 1"
_space_group_IT_number       1

loop_
  _space_group_symop_operation_xyz
  'x, y, z'

loop_
  _atom_site_type_symbol
  _atom_site_label
  _atom_site_symmetry_multiplicity
  _atom_site_fract_x
  _atom_site_fract_y
  _atom_site_fract_z
  _atom_site_occupancy
  Cd  Cd1       1.0  0.18609  0.06827  0.17952  1.0000
  Cd  Cd2       1.0  0.81391  0.93173  0.82048  1.0000
  Cd  Cd3       1.0  0.61281  0.84891  0.07893  1.0000
  Cd  Cd4       1.0  0.38719  0.15109  0.92107  1.0000
  H   H1        1.0  0.26301  0.31891  0.09272  1.0000
  H   H2        1.0  0.73699  0.68109  0.90727  1.0000
  H   H3        1.0  0.47431  0.27186  0.06974  1.0000
  H   H4        1.0  0.52569  0.72814  0.93026  1.0000
  H   H5        1.0  0.27291  0.91408  0.03082  1.0000
  H   H6        1.0  0.72710  0.08592  0.96918  1.0000
  H   H7        1.0  0.97595  0.76573  0.02148  1.0000
  H   H8        1.0  0.02405  0.23426  0.97852  1.0000
  H   H9        1.0  0.92441  0.64120  0.11421  1.0000
  H   H10       1.0  0.07559  0.35880  0.88580  1.0000
  H   H11       1.0  0.83284  0.33211  0.41209  1.0000
  H   H12       1.0  0.16716  0.66790  0.58792  1.0000
  H   H13       1.0  0.62913  0.19154  0.51560  1.0000
  H   H14       1.0  0.37087  0.80847  0.48440  1.0000
  H   H15       1.0  0.48409  0.07233  0.43416  1.0000
  H   H16       1.0  0.51592  0.92768  0.56584  1.0000
  H   H17       1.0  0.47645  0.23953  0.68478  1.0000
  H   H18       1.0  0.52355  0.76047  0.31521  1.0000
  H   H19       1.0  0.61134  0.40739  0.55473  1.0000
  H   H20       1.0  0.38866  0.59261  0.44527  1.0000
  H   H21       1.0  0.69694  0.57786  0.78629  1.0000
  H   H22       1.0  0.30306  0.42213  0.21371  1.0000
  H   H23       1.0  0.54946  0.40646  0.90737  1.0000
  H   H24       1.0  0.45054  0.59354  0.09263  1.0000
  H   H25       1.0  0.78956  0.67905  0.62651  1.0000
  H   H26       1.0  0.21044  0.32095  0.37349  1.0000
  H   H27       1.0  0.75954  0.54862  0.45745  1.0000
  H   H28       1.0  0.24047  0.45138  0.54255  1.0000
  H   H29       1.0  0.02264  0.82117  0.18217  1.0000
  H   H30       1.0  0.97735  0.17883  0.81783  1.0000
  H   H31       1.0  0.88046  0.64604  0.29476  1.0000
  H   H32       1.0  0.11954  0.35396  0.70524  1.0000
  H   H33       1.0  0.90536  0.83134  0.53460  1.0000
  H   H34       1.0  0.09464  0.16866  0.46540  1.0000
  H   H35       1.0  0.06756  0.98853  0.41251  1.0000
  H   H36       1.0  0.93243  0.01148  0.58749  1.0000
  C   C1        1.0  0.61999  0.13174  0.29054  1.0000
  C   C2        1.0  0.38001  0.86826  0.70946  1.0000
  C   C3        1.0  0.74101  0.20531  0.23229  1.0000
  C   C4        1.0  0.25899  0.79469  0.76771  1.0000
  C   C5        1.0  0.81596  0.27889  0.27705  1.0000
  C   C6        1.0  0.18404  0.72111  0.72295  1.0000
  C   C7        1.0  0.77321  0.27488  0.37854  1.0000
  C   C8        1.0  0.22679  0.72512  0.62146  1.0000
  C   C9        1.0  0.65794  0.19806  0.43618  1.0000
  C   C10       1.0  0.34206  0.80194  0.56382  1.0000
  C   C11       1.0  0.57894  0.12940  0.39151  1.0000
  C   C12       1.0  0.42106  0.87060  0.60848  1.0000
  C   C13       1.0  0.53913  0.04815  0.24738  1.0000
  C   C14       1.0  0.46086  0.95186  0.75262  1.0000
  C   C15       1.0  0.78816  0.21157  0.12254  1.0000
  C   C16       1.0  0.21184  0.78843  0.87746  1.0000
  C   C17       1.0  0.94059  0.36614  0.21914  1.0000
  C   C18       1.0  0.05941  0.63387  0.78086  1.0000
  C   C19       1.0  0.52478  0.31795  0.70392  1.0000
  C   C20       1.0  0.47522  0.68205  0.29607  1.0000
  C   C21       1.0  0.60179  0.41121  0.63188  1.0000
  C   C22       1.0  0.39821  0.58879  0.36812  1.0000
  C   C23       1.0  0.66741  0.50788  0.65989  1.0000
  C   C24       1.0  0.33259  0.49212  0.34011  1.0000
  C   C25       1.0  0.64659  0.50589  0.76109  1.0000
  C   C26       1.0  0.35342  0.49410  0.23891  1.0000
  C   C27       1.0  0.56616  0.41002  0.82854  1.0000
  C   C28       1.0  0.43384  0.58998  0.17145  1.0000
  C   C29       1.0  0.75485  0.60808  0.59147  1.0000
  C   C30       1.0  0.24515  0.39192  0.40853  1.0000
  C   C31       1.0  0.79393  0.61938  0.49282  1.0000
  C   C32       1.0  0.20608  0.38062  0.50718  1.0000
  C   C33       1.0  0.00045  0.81817  0.26107  1.0000
  C   C34       1.0  0.99955  0.18183  0.73893  1.0000
  C   C35       1.0  0.91687  0.72118  0.32481  1.0000
  C   C36       1.0  0.08313  0.27882  0.67519  1.0000
  C   C37       1.0  0.88079  0.72130  0.42606  1.0000
  C   C38       1.0  0.11921  0.27870  0.57394  1.0000
  C   C39       1.0  0.93295  0.82257  0.45761  1.0000
  C   C40       1.0  0.06704  0.17743  0.54239  1.0000
  C   C41       1.0  0.02077  0.91229  0.38989  1.0000
  C   C42       1.0  0.97922  0.08771  0.61012  1.0000
  N   N1        1.0  0.50705  0.31640  0.80085  1.0000
  N   N2        1.0  0.49295  0.68360  0.19915  1.0000
  N   N3        1.0  0.05394  0.91124  0.29280  1.0000
  N   N4        1.0  0.94606  0.08876  0.70721  1.0000
  O   O1        1.0  0.38199  0.04459  0.28272  1.0000
  O   O2        1.0  0.61801  0.95541  0.71728  1.0000
  O   O3        1.0  0.63589  0.98575  0.18133  1.0000
  O   O4        1.0  0.36411  0.01425  0.81867  1.0000
  O   O5        1.0  0.67460  0.26880  0.06622  1.0000
  O   O6        1.0  0.32540  0.73120  0.93378  1.0000
  O   O7        1.0  0.94916  0.16299  0.09107  1.0000
  O   O8        1.0  0.05084  0.83701  0.90893  1.0000
  O   O9        1.0  0.88118  0.49695  0.19827  1.0000
  O   O10       1.0  0.11883  0.50304  0.80173  1.0000
  O   O11       1.0  0.10093  0.30041  0.19933  1.0000
  O   O12       1.0  0.89907  0.69959  0.80066  1.0000
  O   O13       1.0  0.36261  0.26833  0.05156  1.0000
  O   O14       1.0  0.63740  0.73167  0.94844  1.0000
  O   O15       1.0  0.32987  0.97192  0.05242  1.0000
  O   O16       1.0  0.67013  0.02808  0.94758  1.0000
  O   O17       1.0  0.90272  0.74411  0.08664  1.0000
  O   O18       1.0  0.09728  0.25589  0.91336  1.0000
