data_image0
_chemical_formula_structural       Zn2H28C42N4O12
_chemical_formula_sum              "Zn2 H28 C42 N4 O12"
_cell_length_a       7.59344
_cell_length_b       9.98691
_cell_length_c       11.4612
_cell_angle_alpha    100.784
_cell_angle_beta     96.9382
_cell_angle_gamma    90.3997

_space_group_name_H-M_alt    "P 1"
_space_group_IT_number       1

loop_
  _space_group_symop_operation_xyz
  'x, y, z'

loop_
  _atom_site_type_symbol
  _atom_site_label
  _atom_site_symmetry_multiplicity
  _atom_site_fract_x
  _atom_site_fract_y
  _atom_site_fract_z
  _atom_site_occupancy
  Zn  Zn1       1.0  0.32426  0.50739  0.61555  1.0000
  Zn  Zn2       1.0  0.67574  0.49261  0.38445  1.0000
  H   H1        1.0  0.24300  0.22900  0.47652  1.0000
  H   H2        1.0  0.75700  0.77100  0.52348  1.0000
  H   H3        1.0  0.49756  0.21049  0.87521  1.0000
  H   H4        1.0  0.50244  0.78951  0.12479  1.0000
  H   H5        1.0  0.74856  0.29741  0.03418  1.0000
  H   H6        1.0  0.25144  0.70259  0.96582  1.0000
  H   H7        1.0  0.02514  0.38703  0.97379  1.0000
  H   H8        1.0  0.97486  0.61297  0.02622  1.0000
  H   H9        1.0  0.40952  0.80945  0.64794  1.0000
  H   H10       1.0  0.59049  0.19055  0.35206  1.0000
  H   H11       1.0  0.57971  0.98558  0.80164  1.0000
  H   H12       1.0  0.42029  0.01442  0.19836  1.0000
  H   H13       1.0  0.70579  0.66816  0.00947  1.0000
  H   H14       1.0  0.29420  0.33184  0.99052  1.0000
  H   H15       1.0  0.52573  0.50978  0.84936  1.0000
  H   H16       1.0  0.47427  0.49022  0.15064  1.0000
  H   H17       1.0  0.77944  0.04642  0.99296  1.0000
  H   H18       1.0  0.22056  0.95358  0.00705  1.0000
  H   H19       1.0  0.80893  0.81795  0.14236  1.0000
  H   H20       1.0  0.19107  0.18205  0.85764  1.0000
  H   H21       1.0  0.20904  0.99809  0.47849  1.0000
  H   H22       1.0  0.79096  0.00191  0.52151  1.0000
  H   H23       1.0  0.00290  0.84901  0.31743  1.0000
  H   H24       1.0  0.99710  0.15099  0.68257  1.0000
  H   H25       1.0  0.89409  0.20396  0.15689  1.0000
  H   H26       1.0  0.10591  0.79603  0.84311  1.0000
  H   H27       1.0  0.08939  0.34047  0.33150  1.0000
  H   H28       1.0  0.91061  0.65952  0.66849  1.0000
  C   C1        1.0  0.91434  0.37960  0.79154  1.0000
  C   C2        1.0  0.08566  0.62040  0.20846  1.0000
  C   C3        1.0  0.76389  0.34583  0.70543  1.0000
  C   C4        1.0  0.23611  0.65417  0.29457  1.0000
  C   C5        1.0  0.61634  0.28020  0.73671  1.0000
  C   C6        1.0  0.38366  0.71980  0.26329  1.0000
  C   C7        1.0  0.61451  0.25977  0.85389  1.0000
  C   C8        1.0  0.38549  0.74023  0.14611  1.0000
  C   C9        1.0  0.75649  0.30475  0.94137  1.0000
  C   C10       1.0  0.24351  0.69525  0.05863  1.0000
  C   C11       1.0  0.90801  0.35941  0.90873  1.0000
  C   C12       1.0  0.09199  0.64059  0.09127  1.0000
  C   C13       1.0  0.08951  0.42594  0.76072  1.0000
  C   C14       1.0  0.91049  0.57406  0.23927  1.0000
  C   C15       1.0  0.76099  0.36361  0.57718  1.0000
  C   C16       1.0  0.23901  0.63639  0.42282  1.0000
  C   C17       1.0  0.45803  0.22622  0.64798  1.0000
  C   C18       1.0  0.54197  0.77379  0.35202  1.0000
  C   C19       1.0  0.47888  0.78348  0.72938  1.0000
  C   C20       1.0  0.52112  0.21652  0.27062  1.0000
  C   C21       1.0  0.57464  0.88119  0.81692  1.0000
  C   C22       1.0  0.42536  0.11881  0.18308  1.0000
  C   C23       1.0  0.66118  0.84443  0.92156  1.0000
  C   C24       1.0  0.33882  0.15556  0.07844  1.0000
  C   C25       1.0  0.64530  0.70636  0.93126  1.0000
  C   C26       1.0  0.35470  0.29364  0.06874  1.0000
  C   C27       1.0  0.54580  0.61531  0.84130  1.0000
  C   C28       1.0  0.45420  0.38469  0.15870  1.0000
  C   C29       1.0  0.76106  0.94580  0.01504  1.0000
  C   C30       1.0  0.23893  0.05420  0.98496  1.0000
  C   C31       1.0  0.82912  0.91973  0.12303  1.0000
  C   C32       1.0  0.17088  0.08027  0.87698  1.0000
  C   C33       1.0  0.13373  0.03615  0.40498  1.0000
  C   C34       1.0  0.86627  0.96385  0.59503  1.0000
  C   C35       1.0  0.02148  0.95612  0.31466  1.0000
  C   C36       1.0  0.97852  0.04388  0.68534  1.0000
  C   C37       1.0  0.93533  0.01216  0.21976  1.0000
  C   C38       1.0  0.06467  0.98784  0.78024  1.0000
  C   C39       1.0  0.96018  0.15321  0.22535  1.0000
  C   C40       1.0  0.03982  0.84679  0.77465  1.0000
  C   C41       1.0  0.06859  0.23047  0.32010  1.0000
  C   C42       1.0  0.93141  0.76953  0.67990  1.0000
  N   N1        1.0  0.46397  0.65180  0.74101  1.0000
  N   N2        1.0  0.53603  0.34819  0.25899  1.0000
  N   N3        1.0  0.15451  0.17010  0.40523  1.0000
  N   N4        1.0  0.84549  0.82990  0.59477  1.0000
  O   O1        1.0  0.22916  0.40773  0.82599  1.0000
  O   O2        1.0  0.77084  0.59227  0.17401  1.0000
  O   O3        1.0  0.08455  0.47920  0.66602  1.0000
  O   O4        1.0  0.91545  0.52080  0.33398  1.0000
  O   O5        1.0  0.70367  0.47916  0.55495  1.0000
  O   O6        1.0  0.29633  0.52084  0.44505  1.0000
  O   O7        1.0  0.80290  0.26568  0.50203  1.0000
  O   O8        1.0  0.19709  0.73433  0.49797  1.0000
  O   O9        1.0  0.38785  0.30790  0.57936  1.0000
  O   O10       1.0  0.61215  0.69210  0.42064  1.0000
  O   O11       1.0  0.40229  0.10763  0.64285  1.0000
  O   O12       1.0  0.59771  0.89237  0.35715  1.0000
