data_image0
_chemical_formula_structural       Co2H40C44O14
_chemical_formula_sum              "Co2 H40 C44 O14"
_cell_length_a       5.98317
_cell_length_b       8.20875
_cell_length_c       19.8772
_cell_angle_alpha    103.146
_cell_angle_beta     89.9856
_cell_angle_gamma    90.025

_space_group_name_H-M_alt    "P 1"
_space_group_IT_number       1

loop_
  _space_group_symop_operation_xyz
  'x, y, z'

loop_
  _atom_site_type_symbol
  _atom_site_label
  _atom_site_symmetry_multiplicity
  _atom_site_fract_x
  _atom_site_fract_y
  _atom_site_fract_z
  _atom_site_occupancy
  Co  Co1       1.0  0.50000  1.00000  0.50000  1.0000
  Co  Co2       1.0  0.50000  0.50000  0.50000  1.0000
  H   H1        1.0  0.31814  0.73477  0.43422  1.0000
  H   H2        1.0  0.31909  0.76571  0.56613  1.0000
  H   H3        1.0  0.68187  0.26523  0.56578  1.0000
  H   H4        1.0  0.68091  0.23428  0.43387  1.0000
  H   H5        1.0  0.13353  0.87151  0.42675  1.0000
  H   H6        1.0  0.13303  0.62931  0.57328  1.0000
  H   H7        1.0  0.86647  0.12849  0.57325  1.0000
  H   H8        1.0  0.86697  0.37068  0.42672  1.0000
  H   H9        1.0  0.22408  0.25974  0.45986  1.0000
  H   H10       1.0  0.22404  0.24008  0.54018  1.0000
  H   H11       1.0  0.77592  0.74025  0.54014  1.0000
  H   H12       1.0  0.77595  0.75991  0.45982  1.0000
  H   H13       1.0  0.52571  0.90752  0.69894  1.0000
  H   H14       1.0  0.52559  0.59261  0.30110  1.0000
  H   H15       1.0  0.47429  0.09248  0.30106  1.0000
  H   H16       1.0  0.47441  0.40738  0.69889  1.0000
  H   H17       1.0  0.66339  0.81125  0.80173  1.0000
  H   H18       1.0  0.66347  0.68880  0.19826  1.0000
  H   H19       1.0  0.33662  0.18875  0.19827  1.0000
  H   H20       1.0  0.33653  0.31119  0.80173  1.0000
  H   H21       1.0  0.61100  0.78738  0.92260  1.0000
  H   H22       1.0  0.61119  0.71262  0.07740  1.0000
  H   H23       1.0  0.38902  0.21262  0.07740  1.0000
  H   H24       1.0  0.38880  0.28738  0.92260  1.0000
  H   H25       1.0  0.26665  0.89912  0.98734  1.0000
  H   H26       1.0  0.26684  0.60082  0.01267  1.0000
  H   H27       1.0  0.73337  0.10087  0.01266  1.0000
  H   H28       1.0  0.73313  0.39919  0.98733  1.0000
  H   H29       1.0  0.96836  0.03010  0.92975  1.0000
  H   H30       1.0  0.96837  0.46981  0.07031  1.0000
  H   H31       1.0  0.03166  0.96990  0.07026  1.0000
  H   H32       1.0  0.03162  0.53020  0.92970  1.0000
  H   H33       1.0  0.82865  0.12145  0.82738  1.0000
  H   H34       1.0  0.82854  0.37847  0.17268  1.0000
  H   H35       1.0  0.17137  0.87854  0.17262  1.0000
  H   H36       1.0  0.17144  0.62154  0.82733  1.0000
  H   H37       1.0  0.88726  0.15413  0.70771  1.0000
  H   H38       1.0  0.88693  0.34590  0.29236  1.0000
  H   H39       1.0  0.11275  0.84588  0.29229  1.0000
  H   H40       1.0  0.11305  0.65411  0.70764  1.0000
  C   C1        1.0  0.20960  0.03095  0.69612  1.0000
  C   C2        1.0  0.20937  0.46916  0.30396  1.0000
  C   C3        1.0  0.79042  0.96905  0.30388  1.0000
  C   C4        1.0  0.79063  0.53085  0.69604  1.0000
  C   C5        1.0  0.37275  0.95258  0.72702  1.0000
  C   C6        1.0  0.37261  0.54755  0.27303  1.0000
  C   C7        1.0  0.62726  0.04741  0.27297  1.0000
  C   C8        1.0  0.62739  0.45246  0.72697  1.0000
  C   C9        1.0  0.34629  0.93544  0.79600  1.0000
  C   C10       1.0  0.34626  0.56457  0.20404  1.0000
  C   C11       1.0  0.65373  0.06455  0.20400  1.0000
  C   C12       1.0  0.65372  0.43543  0.79596  1.0000
  C   C13       1.0  0.51215  0.85954  0.82990  1.0000
  C   C14       1.0  0.51223  0.64046  0.17012  1.0000
  C   C15       1.0  0.48786  0.14046  0.17010  1.0000
  C   C16       1.0  0.48775  0.35955  0.82988  1.0000
  C   C17       1.0  0.48297  0.84707  0.89743  1.0000
  C   C18       1.0  0.48308  0.65289  0.10258  1.0000
  C   C19       1.0  0.51704  0.15292  0.10257  1.0000
  C   C20       1.0  0.51689  0.34711  0.89742  1.0000
  C   C21       1.0  0.28640  0.90962  0.93395  1.0000
  C   C22       1.0  0.28651  0.59036  0.06607  1.0000
  C   C23       1.0  0.71362  0.09037  0.06605  1.0000
  C   C24       1.0  0.71347  0.40965  0.93393  1.0000
  C   C25       1.0  0.12127  0.98285  0.90229  1.0000
  C   C26       1.0  0.12130  0.51708  0.09774  1.0000
  C   C27       1.0  0.87875  0.01715  0.09771  1.0000
  C   C28       1.0  0.87868  0.48294  0.90226  1.0000
  C   C29       1.0  0.14632  0.99798  0.83302  1.0000
  C   C30       1.0  0.14632  0.50198  0.16702  1.0000
  C   C31       1.0  0.85370  0.00202  0.16698  1.0000
  C   C32       1.0  0.85367  0.49803  0.83298  1.0000
  C   C33       1.0  0.98061  0.07452  0.79941  1.0000
  C   C34       1.0  0.98053  0.42543  0.20065  1.0000
  C   C35       1.0  0.01940  0.92548  0.20060  1.0000
  C   C36       1.0  0.01946  0.57458  0.79935  1.0000
  C   C37       1.0  0.01196  0.09181  0.73291  1.0000
  C   C38       1.0  0.01175  0.40819  0.26715  1.0000
  C   C39       1.0  0.98806  0.90819  0.26710  1.0000
  C   C40       1.0  0.98823  0.59183  0.73285  1.0000
  C   C41       1.0  0.24196  0.06292  0.62592  1.0000
  C   C42       1.0  0.24148  0.43742  0.37420  1.0000
  C   C43       1.0  0.75805  0.93708  0.37408  1.0000
  C   C44       1.0  0.75852  0.56258  0.62579  1.0000
  O   O1        1.0  0.39052  0.97237  0.58735  1.0000
  O   O2        1.0  0.38924  0.52857  0.41291  1.0000
  O   O3        1.0  0.60947  0.02762  0.41265  1.0000
  O   O4        1.0  0.61075  0.47143  0.58709  1.0000
  O   O5        1.0  0.12704  0.17635  0.60842  1.0000
  O   O6        1.0  0.12701  0.32360  0.39165  1.0000
  O   O7        1.0  0.87295  0.82365  0.39159  1.0000
  O   O8        1.0  0.87299  0.67640  0.60834  1.0000
  O   O9        1.0  0.27037  0.85251  0.45181  1.0000
  O   O10       1.0  0.27252  0.64751  0.54930  1.0000
  O   O11       1.0  0.72963  0.14748  0.54819  1.0000
  O   O12       1.0  0.72748  0.35248  0.45070  1.0000
  O   O13       1.0  0.32018  0.24999  0.50002  1.0000
  O   O14       1.0  0.67981  0.75001  0.49998  1.0000
