data_image0
_chemical_formula_structural       Tb2H26C24S6N12O16
_chemical_formula_sum              "Tb2 H26 C24 S6 N12 O16"
_cell_length_a       9.74707
_cell_length_b       9.76154
_cell_length_c       11.2038
_cell_angle_alpha    80.4757
_cell_angle_beta     84.7012
_cell_angle_gamma    85.3714

_space_group_name_H-M_alt    "P 1"
_space_group_IT_number       1

loop_
  _space_group_symop_operation_xyz
  'x, y, z'

loop_
  _atom_site_type_symbol
  _atom_site_label
  _atom_site_symmetry_multiplicity
  _atom_site_fract_x
  _atom_site_fract_y
  _atom_site_fract_z
  _atom_site_occupancy
  Tb  Tb1       1.0  0.25050  0.97554  0.49977  1.0000
  Tb  Tb2       1.0  0.74951  0.02445  0.50023  1.0000
  H   H1        1.0  0.45628  0.90097  0.69097  1.0000
  H   H2        1.0  0.54373  0.09902  0.30902  1.0000
  H   H3        1.0  0.36445  0.77559  0.70689  1.0000
  H   H4        1.0  0.63554  0.22441  0.29311  1.0000
  H   H5        1.0  0.16785  0.69237  0.62360  1.0000
  H   H6        1.0  0.83215  0.30763  0.37641  1.0000
  H   H7        1.0  0.02278  0.78793  0.62031  1.0000
  H   H8        1.0  0.97723  0.21207  0.37969  1.0000
  H   H9        1.0  0.27860  0.80114  0.18626  1.0000
  H   H10       1.0  0.72139  0.19884  0.81376  1.0000
  H   H11       1.0  0.28652  0.90956  0.04293  1.0000
  H   H12       1.0  0.71348  0.09042  0.95707  1.0000
  H   H13       1.0  0.27707  0.72746  0.04863  1.0000
  H   H14       1.0  0.72293  0.27252  0.95137  1.0000
  H   H15       1.0  0.91263  0.51573  0.44725  1.0000
  H   H16       1.0  0.08737  0.48427  0.55275  1.0000
  H   H17       1.0  0.80171  0.60440  0.54982  1.0000
  H   H18       1.0  0.19830  0.39561  0.45016  1.0000
  H   H19       1.0  0.86905  0.69951  0.41392  1.0000
  H   H20       1.0  0.13096  0.30049  0.58605  1.0000
  H   H21       1.0  0.06178  0.43888  0.27208  1.0000
  H   H22       1.0  0.93823  0.56113  0.72794  1.0000
  H   H23       1.0  0.98350  0.38109  0.15365  1.0000
  H   H24       1.0  0.01649  0.61893  0.84637  1.0000
  H   H25       1.0  0.04033  0.55211  0.13072  1.0000
  H   H26       1.0  0.95967  0.44791  0.86931  1.0000
  C   C1        1.0  0.02805  0.90488  0.31526  1.0000
  C   C2        1.0  0.97193  0.09511  0.68474  1.0000
  C   C3        1.0  0.99799  0.86968  0.19721  1.0000
  C   C4        1.0  0.00202  0.13031  0.80278  1.0000
  C   C5        1.0  0.08827  0.83370  0.10169  1.0000
  C   C6        1.0  0.91173  0.16630  0.89830  1.0000
  C   C7        1.0  0.24189  0.81585  0.09539  1.0000
  C   C8        1.0  0.75812  0.18412  0.90462  1.0000
  C   C9        1.0  0.53284  0.77474  0.42720  1.0000
  C   C10       1.0  0.46717  0.22526  0.57279  1.0000
  C   C11       1.0  0.58278  0.64213  0.38292  1.0000
  C   C12       1.0  0.41722  0.35787  0.61707  1.0000
  C   C13       1.0  0.71007  0.56715  0.39333  1.0000
  C   C14       1.0  0.28993  0.43285  0.60667  1.0000
  C   C15       1.0  0.83066  0.59828  0.45376  1.0000
  C   C16       1.0  0.16934  0.40171  0.54623  1.0000
  C   C17       1.0  0.27216  0.18144  0.28485  1.0000
  C   C18       1.0  0.72784  0.81856  0.71514  1.0000
  C   C19       1.0  0.28777  0.28035  0.17057  1.0000
  C   C20       1.0  0.71222  0.71966  0.82944  1.0000
  C   C21       1.0  0.20152  0.39286  0.12196  1.0000
  C   C22       1.0  0.79848  0.60716  0.87805  1.0000
  C   C23       1.0  0.06439  0.44464  0.17344  1.0000
  C   C24       1.0  0.93561  0.55538  0.82658  1.0000
  S   S1        1.0  0.83377  0.87469  0.15647  1.0000
  S   S2        1.0  0.16624  0.12531  0.84352  1.0000
  S   S3        1.0  0.48037  0.55162  0.31379  1.0000
  S   S4        1.0  0.51963  0.44838  0.68621  1.0000
  S   S5        1.0  0.42544  0.26202  0.06844  1.0000
  S   S6        1.0  0.57455  0.73799  0.93155  1.0000
  N   N1        1.0  0.88672  0.83182  0.01937  1.0000
  N   N2        1.0  0.11328  0.16820  0.98062  1.0000
  N   N3        1.0  0.02054  0.81396  0.00449  1.0000
  N   N4        1.0  0.97946  0.18604  0.99550  1.0000
  N   N5        1.0  0.60193  0.42413  0.29989  1.0000
  N   N6        1.0  0.39807  0.57586  0.70012  1.0000
  N   N7        1.0  0.71464  0.44696  0.34568  1.0000
  N   N8        1.0  0.28536  0.55303  0.65433  1.0000
  N   N9        1.0  0.36888  0.39898  0.96909  1.0000
  N   N10       1.0  0.63111  0.60104  0.03092  1.0000
  N   N11       1.0  0.25266  0.45600  0.00990  1.0000
  N   N12       1.0  0.74733  0.54402  0.99012  1.0000
  O   O1        1.0  0.15244  0.90695  0.33677  1.0000
  O   O2        1.0  0.84756  0.09305  0.66322  1.0000
  O   O3        1.0  0.35995  0.87772  0.68436  1.0000
  O   O4        1.0  0.64005  0.12228  0.31564  1.0000
  O   O5        1.0  0.92438  0.93083  0.38829  1.0000
  O   O6        1.0  0.07563  0.06917  0.61171  1.0000
  O   O7        1.0  0.12134  0.78458  0.59140  1.0000
  O   O8        1.0  0.87866  0.21541  0.40861  1.0000
  O   O9        1.0  0.40283  0.79822  0.43841  1.0000
  O   O10       1.0  0.59719  0.20179  0.56158  1.0000
  O   O11       1.0  0.62221  0.85167  0.45021  1.0000
  O   O12       1.0  0.37781  0.14832  0.54978  1.0000
  O   O13       1.0  0.36987  0.08741  0.30915  1.0000
  O   O14       1.0  0.63013  0.91259  0.69084  1.0000
  O   O15       1.0  0.16448  0.18821  0.35797  1.0000
  O   O16       1.0  0.83552  0.81179  0.64204  1.0000
