data_image0
_chemical_formula_structural       Dy2H26C24S6N12O16
_chemical_formula_sum              "Dy2 H26 C24 S6 N12 O16"
_cell_length_a       9.77513
_cell_length_b       9.74234
_cell_length_c       11.0413
_cell_angle_alpha    81.6323
_cell_angle_beta     85.149
_cell_angle_gamma    83.8504

_space_group_name_H-M_alt    "P 1"
_space_group_IT_number       1

loop_
  _space_group_symop_operation_xyz
  'x, y, z'

loop_
  _atom_site_type_symbol
  _atom_site_label
  _atom_site_symmetry_multiplicity
  _atom_site_fract_x
  _atom_site_fract_y
  _atom_site_fract_z
  _atom_site_occupancy
  Dy  Dy1       1.0  0.25115  0.48413  0.50235  1.0000
  Dy  Dy2       1.0  0.74885  0.51587  0.49765  1.0000
  H   H1        1.0  0.29159  0.35442  0.17566  1.0000
  H   H2        1.0  0.70840  0.64558  0.82434  1.0000
  H   H3        1.0  0.29083  0.41767  0.01550  1.0000
  H   H4        1.0  0.70918  0.58233  0.98451  1.0000
  H   H5        1.0  0.30163  0.23579  0.06361  1.0000
  H   H6        1.0  0.69836  0.76421  0.93639  1.0000
  H   H7        1.0  0.90541  0.99501  0.44540  1.0000
  H   H8        1.0  0.09459  0.00499  0.55460  1.0000
  H   H9        1.0  0.79899  0.09294  0.54794  1.0000
  H   H10       1.0  0.20102  0.90706  0.45207  1.0000
  H   H11       1.0  0.86689  0.18022  0.40979  1.0000
  H   H12       1.0  0.13311  0.81978  0.59022  1.0000
  H   H13       1.0  0.05377  0.91943  0.28001  1.0000
  H   H14       1.0  0.94622  0.08056  0.72000  1.0000
  H   H15       1.0  0.98066  0.94403  0.13514  1.0000
  H   H16       1.0  0.01933  0.05596  0.86486  1.0000
  H   H17       1.0  0.06981  0.07743  0.17682  1.0000
  H   H18       1.0  0.93019  0.92256  0.82318  1.0000
  H   H19       1.0  0.17606  0.20562  0.63102  1.0000
  H   H20       1.0  0.82394  0.79438  0.36899  1.0000
  H   H21       1.0  0.02733  0.29772  0.62217  1.0000
  H   H22       1.0  0.97267  0.70228  0.37784  1.0000
  H   H23       1.0  0.45889  0.40790  0.69436  1.0000
  H   H24       1.0  0.54111  0.59209  0.30564  1.0000
  H   H25       1.0  0.35761  0.29324  0.71852  1.0000
  H   H26       1.0  0.64240  0.70675  0.28148  1.0000
  C   C1        1.0  0.03051  0.39859  0.31635  1.0000
  C   C2        1.0  0.96948  0.60142  0.68364  1.0000
  C   C3        1.0  0.00866  0.36335  0.19377  1.0000
  C   C4        1.0  0.99134  0.63666  0.80622  1.0000
  C   C5        1.0  0.10283  0.34052  0.09493  1.0000
  C   C6        1.0  0.89717  0.65948  0.90506  1.0000
  C   C7        1.0  0.25602  0.33702  0.08836  1.0000
  C   C8        1.0  0.74397  0.66299  0.91165  1.0000
  C   C9        1.0  0.53160  0.27221  0.42731  1.0000
  C   C10       1.0  0.46841  0.72779  0.57268  1.0000
  C   C11       1.0  0.57676  0.13687  0.38115  1.0000
  C   C12       1.0  0.42324  0.86313  0.61885  1.0000
  C   C13       1.0  0.70312  0.05634  0.39001  1.0000
  C   C14       1.0  0.29688  0.94366  0.61000  1.0000
  C   C15       1.0  0.82586  0.08239  0.45097  1.0000
  C   C16       1.0  0.17414  0.91761  0.54903  1.0000
  C   C17       1.0  0.26932  0.68526  0.28628  1.0000
  C   C18       1.0  0.73068  0.31474  0.71373  1.0000
  C   C19       1.0  0.28350  0.78364  0.17193  1.0000
  C   C20       1.0  0.71649  0.21637  0.82808  1.0000
  C   C21       1.0  0.19982  0.90175  0.12652  1.0000
  C   C22       1.0  0.80017  0.09824  0.87349  1.0000
  C   C23       1.0  0.06879  0.96407  0.18375  1.0000
  C   C24       1.0  0.93120  0.03592  0.81625  1.0000
  S   S1        1.0  0.84740  0.35229  0.15159  1.0000
  S   S2        1.0  0.15260  0.64772  0.84839  1.0000
  S   S3        1.0  0.47111  0.05102  0.31043  1.0000
  S   S4        1.0  0.52889  0.94898  0.68957  1.0000
  S   S5        1.0  0.41503  0.75569  0.06486  1.0000
  S   S6        1.0  0.58497  0.24432  0.93514  1.0000
  N   N1        1.0  0.90653  0.32012  0.00957  1.0000
  N   N2        1.0  0.09348  0.67988  0.99042  1.0000
  N   N3        1.0  0.03992  0.31735  0.99424  1.0000
  N   N4        1.0  0.96009  0.68265  0.00575  1.0000
  N   N5        1.0  0.59028  0.91805  0.29397  1.0000
  N   N6        1.0  0.40972  0.08194  0.70604  1.0000
  N   N7        1.0  0.70450  0.93614  0.34000  1.0000
  N   N8        1.0  0.29550  0.06386  0.66000  1.0000
  N   N9        1.0  0.35906  0.89625  0.96733  1.0000
  N   N10       1.0  0.64093  0.10376  0.03268  1.0000
  N   N11       1.0  0.24778  0.96106  0.01258  1.0000
  N   N12       1.0  0.75221  0.03894  0.98742  1.0000
  O   O1        1.0  0.15127  0.41286  0.34084  1.0000
  O   O2        1.0  0.84872  0.58716  0.65916  1.0000
  O   O3        1.0  0.12708  0.29840  0.60082  1.0000
  O   O4        1.0  0.87292  0.70160  0.39918  1.0000
  O   O5        1.0  0.92344  0.41235  0.38976  1.0000
  O   O6        1.0  0.07655  0.58764  0.61022  1.0000
  O   O7        1.0  0.35999  0.39329  0.69046  1.0000
  O   O8        1.0  0.64001  0.60671  0.30954  1.0000
  O   O9        1.0  0.40244  0.30244  0.44186  1.0000
  O   O10       1.0  0.59756  0.69756  0.55813  1.0000
  O   O11       1.0  0.62436  0.34499  0.44813  1.0000
  O   O12       1.0  0.37565  0.65500  0.55187  1.0000
  O   O13       1.0  0.36759  0.58894  0.30974  1.0000
  O   O14       1.0  0.63242  0.41107  0.69026  1.0000
  O   O15       1.0  0.16238  0.69451  0.36007  1.0000
  O   O16       1.0  0.83763  0.30549  0.63993  1.0000
