data_image0
_chemical_formula_structural       Ag4H12C16S4N8O8
_chemical_formula_sum              "Ag4 H12 C16 S4 N8 O8"
_cell_length_a       3.7293
_cell_length_b       12.4856
_cell_length_c       12.9971
_cell_angle_alpha    90.0001
_cell_angle_beta     90.0944
_cell_angle_gamma    89.9997

_space_group_name_H-M_alt    "P 1"
_space_group_IT_number       1

loop_
  _space_group_symop_operation_xyz
  'x, y, z'

loop_
  _atom_site_type_symbol
  _atom_site_label
  _atom_site_symmetry_multiplicity
  _atom_site_fract_x
  _atom_site_fract_y
  _atom_site_fract_z
  _atom_site_occupancy
  Ag  Ag1       1.0  0.99359  0.94902  0.90107  1.0000
  Ag  Ag2       1.0  0.00640  0.44901  0.59893  1.0000
  Ag  Ag3       1.0  0.00641  0.05098  0.09893  1.0000
  Ag  Ag4       1.0  0.99358  0.55098  0.40107  1.0000
  H   H1        1.0  0.91707  0.72410  0.86892  1.0000
  H   H2        1.0  0.08293  0.22410  0.63108  1.0000
  H   H3        1.0  0.08292  0.27589  0.13107  1.0000
  H   H4        1.0  0.91709  0.77590  0.36893  1.0000
  H   H5        1.0  0.96230  0.62467  0.77090  1.0000
  H   H6        1.0  0.03771  0.12467  0.72910  1.0000
  H   H7        1.0  0.03770  0.37533  0.22909  1.0000
  H   H8        1.0  0.96230  0.87533  0.27091  1.0000
  H   H9        1.0  0.53675  0.65134  0.82160  1.0000
  H   H10       1.0  0.46326  0.15134  0.67840  1.0000
  H   H11       1.0  0.46325  0.34866  0.17840  1.0000
  H   H12       1.0  0.53676  0.84866  0.32160  1.0000
  C   C1        1.0  0.73591  0.77309  0.72094  1.0000
  C   C2        1.0  0.26410  0.27309  0.77906  1.0000
  C   C3        1.0  0.26408  0.22690  0.27906  1.0000
  C   C4        1.0  0.73592  0.72691  0.22094  1.0000
  C   C5        1.0  0.58405  0.76082  0.62358  1.0000
  C   C6        1.0  0.41595  0.26082  0.87642  1.0000
  C   C7        1.0  0.41593  0.23918  0.37642  1.0000
  C   C8        1.0  0.58407  0.73918  0.12358  1.0000
  C   C9        1.0  0.79118  0.68921  0.80048  1.0000
  C   C10       1.0  0.20883  0.18921  0.69952  1.0000
  C   C11       1.0  0.20881  0.31078  0.19952  1.0000
  C   C12       1.0  0.79119  0.81079  0.30048  1.0000
  C   C13       1.0  0.41671  0.66553  0.57505  1.0000
  C   C14       1.0  0.58328  0.16554  0.92495  1.0000
  C   C15       1.0  0.58327  0.33446  0.42495  1.0000
  C   C16       1.0  0.41674  0.83447  0.07505  1.0000
  S   S1        1.0  0.59307  0.88116  0.56322  1.0000
  S   S2        1.0  0.40693  0.38116  0.93678  1.0000
  S   S3        1.0  0.40692  0.11885  0.43678  1.0000
  S   S4        1.0  0.59308  0.61885  0.06322  1.0000
  N   N1        1.0  0.84143  0.87694  0.73838  1.0000
  N   N2        1.0  0.15858  0.37694  0.76162  1.0000
  N   N3        1.0  0.15857  0.12306  0.26162  1.0000
  N   N4        1.0  0.84143  0.62306  0.23838  1.0000
  N   N5        1.0  0.78421  0.94350  0.66230  1.0000
  N   N6        1.0  0.21579  0.44351  0.83770  1.0000
  N   N7        1.0  0.21580  0.05649  0.33770  1.0000
  N   N8        1.0  0.78420  0.55650  0.16230  1.0000
  O   O1        1.0  0.42091  0.57885  0.62640  1.0000
  O   O2        1.0  0.57906  0.07885  0.87360  1.0000
  O   O3        1.0  0.57905  0.42115  0.37360  1.0000
  O   O4        1.0  0.42096  0.92115  0.12641  1.0000
  O   O5        1.0  0.27626  0.68132  0.48691  1.0000
  O   O6        1.0  0.72375  0.18132  0.01309  1.0000
  O   O7        1.0  0.72372  0.31868  0.51308  1.0000
  O   O8        1.0  0.27627  0.81869  0.98692  1.0000
