data_image0
_chemical_formula_structural       Tb2Ag2H28C36N8O20
_chemical_formula_sum              "Tb2 Ag2 H28 C36 N8 O20"
_cell_length_a       9.63346
_cell_length_b       10.7872
_cell_length_c       12.4991
_cell_angle_alpha    65.3391
_cell_angle_beta     76.6856
_cell_angle_gamma    65.0952

_space_group_name_H-M_alt    "P 1"
_space_group_IT_number       1

loop_
  _space_group_symop_operation_xyz
  'x, y, z'

loop_
  _atom_site_type_symbol
  _atom_site_label
  _atom_site_symmetry_multiplicity
  _atom_site_fract_x
  _atom_site_fract_y
  _atom_site_fract_z
  _atom_site_occupancy
  Tb  Tb1       1.0  0.34411  0.81755  0.47160  1.0000
  Tb  Tb2       1.0  0.65588  0.18247  0.52841  1.0000
  Ag  Ag1       1.0  0.97810  0.33088  0.84404  1.0000
  Ag  Ag2       1.0  0.02191  0.66911  0.15598  1.0000
  H   H1        1.0  0.40553  0.61820  0.15684  1.0000
  H   H2        1.0  0.59447  0.38178  0.84316  1.0000
  H   H3        1.0  0.38450  0.64124  0.95281  1.0000
  H   H4        1.0  0.61551  0.35875  0.04719  1.0000
  H   H5        1.0  0.08077  0.13519  0.66899  1.0000
  H   H6        1.0  0.91924  0.86482  0.33101  1.0000
  H   H7        1.0  0.14038  0.07933  0.07819  1.0000
  H   H8        1.0  0.85963  0.92066  0.92182  1.0000
  H   H9        1.0  0.63465  0.67973  0.24079  1.0000
  H   H10       1.0  0.36535  0.32028  0.75920  1.0000
  H   H11       1.0  0.62794  0.86528  0.03839  1.0000
  H   H12       1.0  0.37205  0.13472  0.96161  1.0000
  H   H13       1.0  0.84562  0.69364  0.69510  1.0000
  H   H14       1.0  0.15440  0.30634  0.30491  1.0000
  H   H15       1.0  0.86613  0.32470  0.11030  1.0000
  H   H16       1.0  0.13388  0.67530  0.88971  1.0000
  H   H17       1.0  0.23348  0.86004  0.73917  1.0000
  H   H18       1.0  0.76652  0.13996  0.26083  1.0000
  H   H19       1.0  0.72315  0.88150  0.79554  1.0000
  H   H20       1.0  0.27686  0.11850  0.20446  1.0000
  H   H21       1.0  0.61366  0.57772  0.42152  1.0000
  H   H22       1.0  0.38632  0.42230  0.57847  1.0000
  H   H23       1.0  0.67959  0.61450  0.50310  1.0000
  H   H24       1.0  0.32041  0.38552  0.49688  1.0000
  H   H25       1.0  0.90021  0.41264  0.54912  1.0000
  H   H26       1.0  0.09978  0.58734  0.45085  1.0000
  H   H27       1.0  0.76048  0.40428  0.63662  1.0000
  H   H28       1.0  0.23952  0.59573  0.36336  1.0000
  C   C1        1.0  0.30124  0.83019  0.24653  1.0000
  C   C2        1.0  0.69877  0.16979  0.75348  1.0000
  C   C3        1.0  0.27658  0.84714  0.12746  1.0000
  C   C4        1.0  0.72342  0.15284  0.87254  1.0000
  C   C5        1.0  0.34203  0.72359  0.09306  1.0000
  C   C6        1.0  0.65797  0.27639  0.90695  1.0000
  C   C7        1.0  0.33137  0.73572  0.97991  1.0000
  C   C8        1.0  0.66863  0.26427  0.02009  1.0000
  C   C9        1.0  0.24858  0.87483  0.90261  1.0000
  C   C10       1.0  0.75142  0.12517  0.09739  1.0000
  C   C11       1.0  0.12632  0.07020  0.75552  1.0000
  C   C12       1.0  0.87369  0.92980  0.24448  1.0000
  C   C13       1.0  0.18038  0.99897  0.93670  1.0000
  C   C14       1.0  0.81962  0.00102  0.06330  1.0000
  C   C15       1.0  0.19393  0.98577  0.04985  1.0000
  C   C16       1.0  0.80607  0.01422  0.95016  1.0000
  C   C17       1.0  0.72986  0.38451  0.30656  1.0000
  C   C18       1.0  0.27015  0.61550  0.69344  1.0000
  C   C19       1.0  0.74665  0.49233  0.18668  1.0000
  C   C20       1.0  0.25335  0.50768  0.81332  1.0000
  C   C21       1.0  0.68410  0.64418  0.16630  1.0000
  C   C22       1.0  0.31590  0.35583  0.83369  1.0000
  C   C23       1.0  0.68019  0.74873  0.05335  1.0000
  C   C24       1.0  0.31980  0.25127  0.94665  1.0000
  C   C25       1.0  0.74247  0.69766  0.96020  1.0000
  C   C26       1.0  0.25753  0.30234  0.03980  1.0000
  C   C27       1.0  0.82407  0.66572  0.78989  1.0000
  C   C28       1.0  0.17594  0.33427  0.21012  1.0000
  C   C29       1.0  0.80996  0.54569  0.97958  1.0000
  C   C30       1.0  0.19004  0.45430  0.02042  1.0000
  C   C31       1.0  0.81408  0.44181  0.09346  1.0000
  C   C32       1.0  0.18592  0.55819  0.90654  1.0000
  C   C33       1.0  0.02210  0.05823  0.50646  1.0000
  C   C34       1.0  0.97787  0.94179  0.49354  1.0000
  C   C35       1.0  0.49646  0.04652  0.43292  1.0000
  C   C36       1.0  0.50352  0.95350  0.56708  1.0000
  N   N1        1.0  0.10554  0.11983  0.84174  1.0000
  N   N2        1.0  0.89447  0.88017  0.15826  1.0000
  N   N3        1.0  0.21071  0.92477  0.78839  1.0000
  N   N4        1.0  0.78929  0.07523  0.21161  1.0000
  N   N5        1.0  0.85980  0.52998  0.87041  1.0000
  N   N6        1.0  0.14020  0.47001  0.12959  1.0000
  N   N7        1.0  0.75443  0.76874  0.83981  1.0000
  N   N8        1.0  0.24558  0.23125  0.16019  1.0000
  O   O1        1.0  0.28234  0.94352  0.26684  1.0000
  O   O2        1.0  0.71769  0.05647  0.73316  1.0000
  O   O3        1.0  0.34454  0.70364  0.32826  1.0000
  O   O4        1.0  0.65546  0.29635  0.67175  1.0000
  O   O5        1.0  0.77971  0.24818  0.32300  1.0000
  O   O6        1.0  0.22030  0.75183  0.67701  1.0000
  O   O7        1.0  0.66007  0.42655  0.39297  1.0000
  O   O8        1.0  0.33993  0.57345  0.60703  1.0000
  O   O9        1.0  0.16287  0.04095  0.49000  1.0000
  O   O10       1.0  0.83712  0.95906  0.51000  1.0000
  O   O11       1.0  0.91503  0.16150  0.53325  1.0000
  O   O12       1.0  0.08496  0.83850  0.46675  1.0000
  O   O13       1.0  0.45798  0.00163  0.36994  1.0000
  O   O14       1.0  0.54199  0.99839  0.63006  1.0000
  O   O15       1.0  0.53042  0.15976  0.39795  1.0000
  O   O16       1.0  0.46958  0.84025  0.60206  1.0000
  O   O17       1.0  0.60029  0.65992  0.44565  1.0000
  O   O18       1.0  0.39969  0.34010  0.55434  1.0000
  O   O19       1.0  0.82918  0.46180  0.60134  1.0000
  O   O20       1.0  0.17082  0.53821  0.39863  1.0000
