data_image0
_chemical_formula_structural       Nd2Cu2H28C36N8O20
_chemical_formula_sum              "Nd2 Cu2 H28 C36 N8 O20"
_cell_length_a       9.69331
_cell_length_b       10.853
_cell_length_c       12.4713
_cell_angle_alpha    65.4148
_cell_angle_beta     76.412
_cell_angle_gamma    63.7388

_space_group_name_H-M_alt    "P 1"
_space_group_IT_number       1

loop_
  _space_group_symop_operation_xyz
  'x, y, z'

loop_
  _atom_site_type_symbol
  _atom_site_label
  _atom_site_symmetry_multiplicity
  _atom_site_fract_x
  _atom_site_fract_y
  _atom_site_fract_z
  _atom_site_occupancy
  Nd  Nd1       1.0  0.34983  0.81079  0.46960  1.0000
  Nd  Nd2       1.0  0.65017  0.18920  0.53040  1.0000
  Cu  Cu1       1.0  0.97106  0.33971  0.83788  1.0000
  Cu  Cu2       1.0  0.02893  0.66030  0.16212  1.0000
  H   H1        1.0  0.04892  0.17255  0.66244  1.0000
  H   H2        1.0  0.95108  0.82746  0.33755  1.0000
  H   H3        1.0  0.36856  0.66823  0.93256  1.0000
  H   H4        1.0  0.63145  0.33178  0.06743  1.0000
  H   H5        1.0  0.39746  0.63475  0.13852  1.0000
  H   H6        1.0  0.60254  0.36526  0.86148  1.0000
  H   H7        1.0  0.13305  0.09770  0.07217  1.0000
  H   H8        1.0  0.86694  0.90231  0.92783  1.0000
  H   H9        1.0  0.87662  0.31555  0.10830  1.0000
  H   H10       1.0  0.12339  0.68445  0.89169  1.0000
  H   H11       1.0  0.87172  0.67812  0.69123  1.0000
  H   H12       1.0  0.12828  0.32189  0.30877  1.0000
  H   H13       1.0  0.62231  0.86095  0.02784  1.0000
  H   H14       1.0  0.37769  0.13904  0.97217  1.0000
  H   H15       1.0  0.61863  0.67840  0.23099  1.0000
  H   H16       1.0  0.38137  0.32158  0.76902  1.0000
  H   H17       1.0  0.21110  0.89349  0.72630  1.0000
  H   H18       1.0  0.78892  0.10652  0.27368  1.0000
  H   H19       1.0  0.73829  0.87012  0.79123  1.0000
  H   H20       1.0  0.26170  0.12989  0.20878  1.0000
  H   H21       1.0  0.68990  0.71021  0.38595  1.0000
  H   H22       1.0  0.31010  0.28979  0.61405  1.0000
  H   H23       1.0  0.65458  0.56784  0.41526  1.0000
  H   H24       1.0  0.34542  0.43215  0.58475  1.0000
  H   H25       1.0  0.80207  0.52595  0.58949  1.0000
  H   H26       1.0  0.19795  0.47404  0.41051  1.0000
  H   H27       1.0  0.77692  0.38264  0.66414  1.0000
  H   H28       1.0  0.22309  0.61735  0.33586  1.0000
  C   C1        1.0  0.10092  0.10325  0.74686  1.0000
  C   C2        1.0  0.89908  0.89677  0.25313  1.0000
  C   C3        1.0  0.23005  0.90220  0.88993  1.0000
  C   C4        1.0  0.76995  0.09781  0.11006  1.0000
  C   C5        1.0  0.31642  0.76034  0.96333  1.0000
  C   C6        1.0  0.68358  0.23967  0.03666  1.0000
  C   C7        1.0  0.33213  0.74280  0.07719  1.0000
  C   C8        1.0  0.66787  0.25721  0.92281  1.0000
  C   C9        1.0  0.26910  0.86391  0.11561  1.0000
  C   C10       1.0  0.73090  0.13610  0.88439  1.0000
  C   C11       1.0  0.18397  0.00561  0.04130  1.0000
  C   C12       1.0  0.81603  0.99440  0.95870  1.0000
  C   C13       1.0  0.16464  0.02414  0.92760  1.0000
  C   C14       1.0  0.83536  0.97587  0.07239  1.0000
  C   C15       1.0  0.29919  0.84068  0.23539  1.0000
  C   C16       1.0  0.70080  0.15933  0.76461  1.0000
  C   C17       1.0  0.02161  0.05857  0.50524  1.0000
  C   C18       1.0  0.97838  0.94143  0.49477  1.0000
  C   C19       1.0  0.49261  0.96199  0.56861  1.0000
  C   C20       1.0  0.50738  0.03801  0.43139  1.0000
  C   C21       1.0  0.73278  0.38349  0.30234  1.0000
  C   C22       1.0  0.26723  0.61649  0.69766  1.0000
  C   C23       1.0  0.74827  0.48791  0.18114  1.0000
  C   C24       1.0  0.25174  0.51208  0.81886  1.0000
  C   C25       1.0  0.82154  0.43356  0.08967  1.0000
  C   C26       1.0  0.17848  0.56643  0.91033  1.0000
  C   C27       1.0  0.81969  0.53537  0.97516  1.0000
  C   C28       1.0  0.18032  0.46463  0.02484  1.0000
  C   C29       1.0  0.84329  0.65203  0.78547  1.0000
  C   C30       1.0  0.15671  0.34797  0.21454  1.0000
  C   C31       1.0  0.75005  0.68844  0.95407  1.0000
  C   C32       1.0  0.24995  0.31156  0.04593  1.0000
  C   C33       1.0  0.67868  0.74340  0.04502  1.0000
  C   C34       1.0  0.32132  0.25659  0.95499  1.0000
  C   C35       1.0  0.67921  0.64092  0.15820  1.0000
  C   C36       1.0  0.32080  0.35907  0.84181  1.0000
  N   N1        1.0  0.08537  0.14906  0.83517  1.0000
  N   N2        1.0  0.91463  0.85095  0.16482  1.0000
  N   N3        1.0  0.18612  0.95683  0.77656  1.0000
  N   N4        1.0  0.81388  0.04318  0.22344  1.0000
  N   N5        1.0  0.87588  0.51657  0.86671  1.0000
  N   N6        1.0  0.12412  0.48343  0.13329  1.0000
  N   N7        1.0  0.76880  0.75731  0.83400  1.0000
  N   N8        1.0  0.23120  0.24269  0.16601  1.0000
  O   O1        1.0  0.28443  0.95089  0.25831  1.0000
  O   O2        1.0  0.71555  0.04911  0.74169  1.0000
  O   O3        1.0  0.34303  0.71155  0.31444  1.0000
  O   O4        1.0  0.65696  0.28845  0.68556  1.0000
  O   O5        1.0  0.16139  0.04474  0.48101  1.0000
  O   O6        1.0  0.83861  0.95525  0.51901  1.0000
  O   O7        1.0  0.91540  0.15872  0.53799  1.0000
  O   O8        1.0  0.08459  0.84128  0.46200  1.0000
  O   O9        1.0  0.63390  0.65122  0.44179  1.0000
  O   O10       1.0  0.36610  0.34877  0.55821  1.0000
  O   O11       1.0  0.46258  0.84805  0.60719  1.0000
  O   O12       1.0  0.53741  0.15195  0.39281  1.0000
  O   O13       1.0  0.78175  0.24663  0.32129  1.0000
  O   O14       1.0  0.21825  0.75336  0.67871  1.0000
  O   O15       1.0  0.66402  0.43149  0.38752  1.0000
  O   O16       1.0  0.33598  0.56850  0.61248  1.0000
  O   O17       1.0  0.84857  0.43099  0.65150  1.0000
  O   O18       1.0  0.15145  0.56900  0.34851  1.0000
  O   O19       1.0  0.51139  0.02081  0.63021  1.0000
  O   O20       1.0  0.48860  0.97919  0.36979  1.0000
