data_image0
_chemical_formula_structural       Dy2Cu2H30C50N12O16
_chemical_formula_sum              "Dy2 Cu2 H30 C50 N12 O16"
_cell_length_a       7.60621
_cell_length_b       12.1709
_cell_length_c       14.0925
_cell_angle_alpha    69.3185
_cell_angle_beta     87.5586
_cell_angle_gamma    82.6462

_space_group_name_H-M_alt    "P 1"
_space_group_IT_number       1

loop_
  _space_group_symop_operation_xyz
  'x, y, z'

loop_
  _atom_site_type_symbol
  _atom_site_label
  _atom_site_symmetry_multiplicity
  _atom_site_fract_x
  _atom_site_fract_y
  _atom_site_fract_z
  _atom_site_occupancy
  Dy  Dy1       1.0  0.70632  0.91206  0.15231  1.0000
  Dy  Dy2       1.0  0.29368  0.08794  0.84768  1.0000
  Cu  Cu1       1.0  0.78792  0.35533  0.30225  1.0000
  Cu  Cu2       1.0  0.21208  0.64467  0.69775  1.0000
  H   H1        1.0  0.86800  0.60058  0.15114  1.0000
  H   H2        1.0  0.13199  0.39942  0.84886  1.0000
  H   H3        1.0  0.67003  0.22216  0.14170  1.0000
  H   H4        1.0  0.32993  0.77785  0.85831  1.0000
  H   H5        1.0  0.60148  0.38578  0.81837  1.0000
  H   H6        1.0  0.39852  0.61422  0.18163  1.0000
  H   H7        1.0  0.69641  0.57457  0.81852  1.0000
  H   H8        1.0  0.30359  0.42543  0.18148  1.0000
  H   H9        1.0  0.36778  0.77749  0.47815  1.0000
  H   H10       1.0  0.63224  0.22252  0.52185  1.0000
  H   H11       1.0  0.01522  0.85418  0.76275  1.0000
  H   H12       1.0  0.98480  0.14582  0.23726  1.0000
  H   H13       1.0  0.19420  0.19546  0.46733  1.0000
  H   H14       1.0  0.80580  0.80455  0.53267  1.0000
  H   H15       1.0  0.38615  0.15225  0.33138  1.0000
  H   H16       1.0  0.61385  0.84775  0.66861  1.0000
  H   H17       1.0  0.11438  0.53126  0.26379  1.0000
  H   H18       1.0  0.88562  0.46874  0.73621  1.0000
  H   H19       1.0  0.30677  0.36484  0.38815  1.0000
  H   H20       1.0  0.69324  0.63516  0.61185  1.0000
  H   H21       1.0  0.40917  0.38940  0.73117  1.0000
  H   H22       1.0  0.59082  0.61059  0.26883  1.0000
  H   H23       1.0  0.06064  0.72789  0.46659  1.0000
  H   H24       1.0  0.93936  0.27211  0.53342  1.0000
  H   H25       1.0  0.81284  0.67393  0.96392  1.0000
  H   H26       1.0  0.18716  0.32607  0.03608  1.0000
  H   H27       1.0  0.04672  0.06952  0.66039  1.0000
  H   H28       1.0  0.95329  0.93048  0.33962  1.0000
  H   H29       1.0  0.42830  0.29031  0.60709  1.0000
  H   H30       1.0  0.57170  0.70969  0.39291  1.0000
  C   C1        1.0  0.82449  0.54671  0.11111  1.0000
  C   C2        1.0  0.17550  0.45329  0.88889  1.0000
  C   C3        1.0  0.74142  0.50180  0.98148  1.0000
  C   C4        1.0  0.25858  0.49821  0.01852  1.0000
  C   C5        1.0  0.73534  0.40339  0.07310  1.0000
  C   C6        1.0  0.26465  0.59661  0.92690  1.0000
  C   C7        1.0  0.67925  0.29837  0.07237  1.0000
  C   C8        1.0  0.32074  0.70164  0.92763  1.0000
  C   C9        1.0  0.62928  0.29483  0.97889  1.0000
  C   C10       1.0  0.37072  0.70517  0.02110  1.0000
  C   C11       1.0  0.63771  0.39393  0.88903  1.0000
  C   C12       1.0  0.36230  0.60606  0.11096  1.0000
  C   C13       1.0  0.69289  0.49853  0.88836  1.0000
  C   C14       1.0  0.30712  0.50147  0.11164  1.0000
  C   C15       1.0  0.55982  0.18755  0.97151  1.0000
  C   C16       1.0  0.44017  0.81245  0.02849  1.0000
  C   C17       1.0  0.03286  0.03141  0.03465  1.0000
  C   C18       1.0  0.96713  0.96858  0.96532  1.0000
  C   C19       1.0  0.49494  0.94388  0.31304  1.0000
  C   C20       1.0  0.50506  0.05612  0.68697  1.0000
  C   C21       1.0  0.38363  0.96406  0.39613  1.0000
  C   C22       1.0  0.61638  0.03594  0.60387  1.0000
  C   C23       1.0  0.33029  0.86767  0.47587  1.0000
  C   C24       1.0  0.66973  0.13233  0.52413  1.0000
  C   C25       1.0  0.23019  0.89065  0.55321  1.0000
  C   C26       1.0  0.76983  0.10935  0.44679  1.0000
  C   C27       1.0  0.07835  0.88394  0.68903  1.0000
  C   C28       1.0  0.92166  0.11606  0.31098  1.0000
  C   C29       1.0  0.17882  0.00863  0.54833  1.0000
  C   C30       1.0  0.82119  0.99137  0.45167  1.0000
  C   C31       1.0  0.23212  0.10538  0.46924  1.0000
  C   C32       1.0  0.76789  0.89462  0.53076  1.0000
  C   C33       1.0  0.33659  0.08111  0.39412  1.0000
  C   C34       1.0  0.66341  0.91889  0.60588  1.0000
  C   C35       1.0  0.95871  0.73335  0.28349  1.0000
  C   C36       1.0  0.04128  0.26664  0.71651  1.0000
  C   C37       1.0  0.07986  0.63893  0.35714  1.0000
  C   C38       1.0  0.92014  0.36107  0.64286  1.0000
  C   C39       1.0  0.14848  0.53641  0.33611  1.0000
  C   C40       1.0  0.85152  0.46359  0.66390  1.0000
  C   C41       1.0  0.25374  0.44321  0.40533  1.0000
  C   C42       1.0  0.74627  0.55679  0.59467  1.0000
  C   C43       1.0  0.28644  0.45394  0.49843  1.0000
  C   C44       1.0  0.71357  0.54606  0.50157  1.0000
  C   C45       1.0  0.35758  0.43341  0.65469  1.0000
  C   C46       1.0  0.64242  0.56659  0.34531  1.0000
  C   C47       1.0  0.21898  0.55680  0.52042  1.0000
  C   C48       1.0  0.78103  0.44320  0.47958  1.0000
  C   C49       1.0  0.11576  0.64990  0.44970  1.0000
  C   C50       1.0  0.88425  0.35010  0.55030  1.0000
  N   N1        1.0  0.79942  0.58940  0.00890  1.0000
  N   N2        1.0  0.20058  0.41060  0.99110  1.0000
  N   N3        1.0  0.78834  0.43554  0.15304  1.0000
  N   N4        1.0  0.21164  0.56447  0.84696  1.0000
  N   N5        1.0  0.07985  0.99995  0.63415  1.0000
  N   N6        1.0  0.92017  0.00005  0.36585  1.0000
  N   N7        1.0  0.16541  0.81421  0.64329  1.0000
  N   N8        1.0  0.83460  0.18578  0.35672  1.0000
  N   N9        1.0  0.26735  0.54105  0.61949  1.0000
  N   N10       1.0  0.73267  0.45895  0.38051  1.0000
  N   N11       1.0  0.37421  0.37893  0.58525  1.0000
  N   N12       1.0  0.62580  0.62107  0.41475  1.0000
  O   O1        1.0  0.47116  0.20232  0.89179  1.0000
  O   O2        1.0  0.52878  0.79769  0.10823  1.0000
  O   O3        1.0  0.58934  0.08930  0.04329  1.0000
  O   O4        1.0  0.41067  0.91070  0.95670  1.0000
  O   O5        1.0  0.95496  0.01428  0.11927  1.0000
  O   O6        1.0  0.04503  0.98571  0.88071  1.0000
  O   O7        1.0  0.15766  0.09393  0.00125  1.0000
  O   O8        1.0  0.84233  0.90606  0.99873  1.0000
  O   O9        1.0  0.57411  0.02689  0.25198  1.0000
  O   O10       1.0  0.42590  0.97311  0.74802  1.0000
  O   O11       1.0  0.51084  0.84190  0.30268  1.0000
  O   O12       1.0  0.48917  0.15810  0.69733  1.0000
  O   O13       1.0  0.89324  0.82413  0.30531  1.0000
  O   O14       1.0  0.10675  0.17587  0.69469  1.0000
  O   O15       1.0  0.91217  0.72413  0.20105  1.0000
  O   O16       1.0  0.08781  0.27586  0.79896  1.0000
