data_image0
_chemical_formula_structural       Sm2Cu2H30C50N12O16
_chemical_formula_sum              "Sm2 Cu2 H30 C50 N12 O16"
_cell_length_a       7.62834
_cell_length_b       12.1876
_cell_length_c       14.2093
_cell_angle_alpha    69.0529
_cell_angle_beta     88.0297
_cell_angle_gamma    82.6248

_space_group_name_H-M_alt    "P 1"
_space_group_IT_number       1

loop_
  _space_group_symop_operation_xyz
  'x, y, z'

loop_
  _atom_site_type_symbol
  _atom_site_label
  _atom_site_symmetry_multiplicity
  _atom_site_fract_x
  _atom_site_fract_y
  _atom_site_fract_z
  _atom_site_occupancy
  Sm  Sm1       1.0  0.20004  0.41337  0.65347  1.0000
  Sm  Sm2       1.0  0.79996  0.58663  0.34653  1.0000
  Cu  Cu1       1.0  0.71468  0.14310  0.19857  1.0000
  Cu  Cu2       1.0  0.28533  0.85690  0.80144  1.0000
  H   H1        1.0  0.51866  0.35150  0.26393  1.0000
  H   H2        1.0  0.48135  0.64850  0.73607  1.0000
  H   H3        1.0  0.68985  0.69533  0.97053  1.0000
  H   H4        1.0  0.31015  0.30467  0.02947  1.0000
  H   H5        1.0  0.87814  0.65397  0.83482  1.0000
  H   H6        1.0  0.12186  0.34603  0.16518  1.0000
  H   H7        1.0  0.86642  0.27817  0.98080  1.0000
  H   H8        1.0  0.13360  0.72183  0.01920  1.0000
  H   H9        1.0  0.91340  0.88775  0.23313  1.0000
  H   H10       1.0  0.08659  0.11226  0.76687  1.0000
  H   H11       1.0  0.56187  0.22653  0.96838  1.0000
  H   H12       1.0  0.43813  0.77347  0.03162  1.0000
  H   H13       1.0  0.61878  0.03110  0.76728  1.0000
  H   H14       1.0  0.38120  0.96891  0.23272  1.0000
  H   H15       1.0  0.81219  0.86441  0.89213  1.0000
  H   H16       1.0  0.18782  0.13560  0.10786  1.0000
  H   H17       1.0  0.63067  0.89794  0.34687  1.0000
  H   H18       1.0  0.36933  0.10206  0.65313  1.0000
  H   H19       1.0  0.83332  0.27204  0.36069  1.0000
  H   H20       1.0  0.16668  0.72796  0.63931  1.0000
  H   H21       1.0  0.89190  0.10561  0.68292  1.0000
  H   H22       1.0  0.10810  0.89437  0.31708  1.0000
  H   H23       1.0  0.79311  0.91914  0.68074  1.0000
  H   H24       1.0  0.20687  0.08085  0.31926  1.0000
  H   H25       1.0  0.54577  0.56803  0.16144  1.0000
  H   H26       1.0  0.45423  0.43196  0.83855  1.0000
  H   H27       1.0  0.93501  0.78962  0.10890  1.0000
  H   H28       1.0  0.06499  0.21039  0.89109  1.0000
  H   H29       1.0  0.67952  0.82253  0.53379  1.0000
  H   H30       1.0  0.32047  0.17747  0.46620  1.0000
  C   C1        1.0  0.58063  0.38196  0.19077  1.0000
  C   C2        1.0  0.41939  0.61804  0.80923  1.0000
  C   C3        1.0  0.67774  0.50795  0.05097  1.0000
  C   C4        1.0  0.32228  0.49206  0.94903  1.0000
  C   C5        1.0  0.72837  0.60548  0.97229  1.0000
  C   C6        1.0  0.27164  0.39452  0.02771  1.0000
  C   C7        1.0  0.83121  0.58217  0.89745  1.0000
  C   C8        1.0  0.16880  0.41784  0.10256  1.0000
  C   C9        1.0  0.87910  0.46540  0.89929  1.0000
  C   C10       1.0  0.12092  0.53461  0.10071  1.0000
  C   C11       1.0  0.98697  0.44638  0.81591  1.0000
  C   C12       1.0  0.01304  0.55362  0.18409  1.0000
  C   C13       1.0  0.82854  0.36820  0.97873  1.0000
  C   C14       1.0  0.17149  0.63180  0.02127  1.0000
  C   C15       1.0  0.72997  0.39019  0.05576  1.0000
  C   C16       1.0  0.27004  0.60981  0.94424  1.0000
  C   C17       1.0  0.86148  0.93193  0.15689  1.0000
  C   C18       1.0  0.13851  0.06807  0.84311  1.0000
  C   C19       1.0  0.72169  0.05557  0.02292  1.0000
  C   C20       1.0  0.27831  0.94444  0.97708  1.0000
  C   C21       1.0  0.61765  0.14857  0.95216  1.0000
  C   C22       1.0  0.38234  0.85144  0.04784  1.0000
  C   C23       1.0  0.58223  0.13784  0.86010  1.0000
  C   C24       1.0  0.41776  0.86217  0.13989  1.0000
  C   C25       1.0  0.46067  0.23236  0.78630  1.0000
  C   C26       1.0  0.53932  0.76764  0.21370  1.0000
  C   C27       1.0  0.65205  0.03571  0.83947  1.0000
  C   C28       1.0  0.34795  0.96430  0.16053  1.0000
  C   C29       1.0  0.75796  0.94254  0.90884  1.0000
  C   C30       1.0  0.24205  0.05747  0.09116  1.0000
  C   C31       1.0  0.79010  0.95302  0.00144  1.0000
  C   C32       1.0  0.20990  0.04699  0.99855  1.0000
  C   C33       1.0  0.67406  0.95059  0.38762  1.0000
  C   C34       1.0  0.32593  0.04941  0.61238  1.0000
  C   C35       1.0  0.82174  0.19563  0.42923  1.0000
  C   C36       1.0  0.17826  0.80436  0.57078  1.0000
  C   C37       1.0  0.86951  0.19781  0.52294  1.0000
  C   C38       1.0  0.13048  0.80218  0.47706  1.0000
  C   C39       1.0  0.93991  0.30391  0.53110  1.0000
  C   C40       1.0  0.06008  0.69607  0.46890  1.0000
  C   C41       1.0  0.85735  0.09867  0.61197  1.0000
  C   C42       1.0  0.14264  0.90132  0.38803  1.0000
  C   C43       1.0  0.80022  0.99525  0.61154  1.0000
  C   C44       1.0  0.19977  0.00474  0.38847  1.0000
  C   C45       1.0  0.75457  0.99310  0.51811  1.0000
  C   C46       1.0  0.24543  0.00689  0.48189  1.0000
  C   C47       1.0  0.53371  0.53141  0.53436  1.0000
  C   C48       1.0  0.46627  0.46861  0.46565  1.0000
  C   C49       1.0  0.76438  0.09174  0.42735  1.0000
  C   C50       1.0  0.23563  0.90825  0.57265  1.0000
  N   N1        1.0  0.58032  0.49833  0.13621  1.0000
  N   N2        1.0  0.41970  0.50168  0.86379  1.0000
  N   N3        1.0  0.66753  0.31290  0.14534  1.0000
  N   N4        1.0  0.33249  0.68710  0.85466  1.0000
  N   N5        1.0  0.76997  0.03942  0.12152  1.0000
  N   N6        1.0  0.23002  0.96059  0.87848  1.0000
  N   N7        1.0  0.87877  0.87794  0.08797  1.0000
  N   N8        1.0  0.12122  0.12207  0.91203  1.0000
  N   N9        1.0  0.69594  0.90684  0.48956  1.0000
  N   N10       1.0  0.30405  0.09315  0.51044  1.0000
  N   N11       1.0  0.71293  0.06112  0.34691  1.0000
  N   N12       1.0  0.28706  0.93888  0.65309  1.0000
  O   O1        1.0  0.06282  0.53035  0.75456  1.0000
  O   O2        1.0  0.93722  0.46964  0.24545  1.0000
  O   O3        1.0  0.00229  0.34438  0.80595  1.0000
  O   O4        1.0  0.99771  0.65563  0.19404  1.0000
  O   O5        1.0  0.39362  0.32249  0.80813  1.0000
  O   O6        1.0  0.60639  0.67752  0.19186  1.0000
  O   O7        1.0  0.41608  0.22331  0.70404  1.0000
  O   O8        1.0  0.58387  0.77668  0.29597  1.0000
  O   O9        1.0  0.02482  0.28893  0.61185  1.0000
  O   O10       1.0  0.97521  0.71105  0.38813  1.0000
  O   O11       1.0  0.91510  0.40224  0.45868  1.0000
  O   O12       1.0  0.08486  0.59776  0.54133  1.0000
  O   O13       1.0  0.45675  0.51534  0.61803  1.0000
  O   O14       1.0  0.54323  0.48468  0.38197  1.0000
  O   O15       1.0  0.65901  0.59292  0.50148  1.0000
  O   O16       1.0  0.34098  0.40709  0.49852  1.0000
