data_image0
_chemical_formula_structural       Sm2H28C14N20Cl2O12
_chemical_formula_sum              "Sm2 H28 C14 N20 Cl2 O12"
_cell_length_a       8.81592
_cell_length_b       10.0248
_cell_length_c       10.07
_cell_angle_alpha    65.3407
_cell_angle_beta     85.0177
_cell_angle_gamma    70.7906

_space_group_name_H-M_alt    "P 1"
_space_group_IT_number       1

loop_
  _space_group_symop_operation_xyz
  'x, y, z'

loop_
  _atom_site_type_symbol
  _atom_site_label
  _atom_site_symmetry_multiplicity
  _atom_site_fract_x
  _atom_site_fract_y
  _atom_site_fract_z
  _atom_site_occupancy
  Sm  Sm1       1.0  0.10833  0.17783  0.05901  1.0000
  Sm  Sm2       1.0  0.89167  0.82217  0.94099  1.0000
  H   H1        1.0  0.21896  0.84030  0.10442  1.0000
  H   H2        1.0  0.78104  0.15970  0.89558  1.0000
  H   H3        1.0  0.36998  0.89495  0.06923  1.0000
  H   H4        1.0  0.63002  0.10505  0.93078  1.0000
  H   H5        1.0  0.84331  0.36591  0.81918  1.0000
  H   H6        1.0  0.15669  0.63408  0.18082  1.0000
  H   H7        1.0  0.49496  0.81566  0.74592  1.0000
  H   H8        1.0  0.50504  0.18434  0.25408  1.0000
  H   H9        1.0  0.55395  0.71252  0.63443  1.0000
  H   H10       1.0  0.44605  0.28748  0.36557  1.0000
  H   H11       1.0  0.42073  0.31986  0.77785  1.0000
  H   H12       1.0  0.57927  0.68014  0.22215  1.0000
  H   H13       1.0  0.53116  0.24538  0.65759  1.0000
  H   H14       1.0  0.46884  0.75462  0.34241  1.0000
  H   H15       1.0  0.18763  0.22923  0.60911  1.0000
  H   H16       1.0  0.81237  0.77077  0.39089  1.0000
  H   H17       1.0  0.35447  0.07227  0.71870  1.0000
  H   H18       1.0  0.64553  0.92773  0.28130  1.0000
  H   H19       1.0  0.10713  0.75099  0.61252  1.0000
  H   H20       1.0  0.89287  0.24901  0.38748  1.0000
  H   H21       1.0  0.29326  0.62324  0.71224  1.0000
  H   H22       1.0  0.70674  0.37675  0.28776  1.0000
  H   H23       1.0  0.59055  0.44272  0.89268  1.0000
  H   H24       1.0  0.40945  0.55728  0.10732  1.0000
  H   H25       1.0  0.71736  0.51187  0.96000  1.0000
  H   H26       1.0  0.28264  0.48813  0.04000  1.0000
  H   H27       1.0  0.66757  0.34133  0.07850  1.0000
  H   H28       1.0  0.33243  0.65867  0.92150  1.0000
  C   C1        1.0  0.12285  0.04516  0.77805  1.0000
  C   C2        1.0  0.87715  0.95484  0.22195  1.0000
  C   C3        1.0  0.23803  0.10279  0.66311  1.0000
  C   C4        1.0  0.76197  0.89721  0.33689  1.0000
  C   C5        1.0  0.36673  0.91127  0.54902  1.0000
  C   C6        1.0  0.63327  0.08873  0.45098  1.0000
  C   C7        1.0  0.09016  0.54676  0.79886  1.0000
  C   C8        1.0  0.90984  0.45324  0.20114  1.0000
  C   C9        1.0  0.17931  0.62907  0.66944  1.0000
  C   C10       1.0  0.82069  0.37093  0.33056  1.0000
  C   C11       1.0  0.33387  0.43401  0.56531  1.0000
  C   C12       1.0  0.66613  0.56599  0.43469  1.0000
  C   C13       1.0  0.69432  0.40806  0.96681  1.0000
  C   C14       1.0  0.30568  0.59194  0.03319  1.0000
  N   N1        1.0  0.23168  0.05161  0.34131  1.0000
  N   N2        1.0  0.76832  0.94839  0.65869  1.0000
  N   N3        1.0  0.17989  0.13161  0.41850  1.0000
  N   N4        1.0  0.82011  0.86839  0.58150  1.0000
  N   N5        1.0  0.26333  0.04561  0.55036  1.0000
  N   N6        1.0  0.73667  0.95439  0.44964  1.0000
  N   N7        1.0  0.34749  0.91430  0.41639  1.0000
  N   N8        1.0  0.65251  0.08570  0.58361  1.0000
  N   N9        1.0  0.46669  0.79514  0.66109  1.0000
  N   N10       1.0  0.53331  0.20486  0.33891  1.0000
  N   N11       1.0  0.21500  0.56263  0.56321  1.0000
  N   N12       1.0  0.78500  0.43737  0.43679  1.0000
  N   N13       1.0  0.12539  0.63270  0.43461  1.0000
  N   N14       1.0  0.87460  0.36730  0.56539  1.0000
  N   N15       1.0  0.19001  0.54985  0.36215  1.0000
  N   N16       1.0  0.80999  0.45015  0.63785  1.0000
  N   N17       1.0  0.31823  0.42608  0.43718  1.0000
  N   N18       1.0  0.68177  0.57392  0.56282  1.0000
  N   N19       1.0  0.44913  0.33830  0.67248  1.0000
  N   N20       1.0  0.55087  0.66170  0.32752  1.0000
  Cl  Cl1       1.0  0.42809  0.17808  0.04678  1.0000
  Cl  Cl2       1.0  0.57191  0.82192  0.95322  1.0000
  O   O1        1.0  0.07071  0.94175  0.77811  1.0000
  O   O2        1.0  0.92929  0.05825  0.22189  1.0000
  O   O3        1.0  0.08887  0.10797  0.86751  1.0000
  O   O4        1.0  0.91113  0.89203  0.13249  1.0000
  O   O5        1.0  0.12079  0.40286  0.83923  1.0000
  O   O6        1.0  0.87921  0.59714  0.16077  1.0000
  O   O7        1.0  0.99668  0.62999  0.85773  1.0000
  O   O8        1.0  0.00332  0.37001  0.14227  1.0000
  O   O9        1.0  0.27134  0.90426  0.12447  1.0000
  O   O10       1.0  0.72866  0.09574  0.87553  1.0000
  O   O11       1.0  0.83301  0.30870  0.92834  1.0000
  O   O12       1.0  0.16699  0.69130  0.07166  1.0000
