data_image0
_chemical_formula_structural       Pr2H28C14N20Cl2O12
_chemical_formula_sum              "Pr2 H28 C14 N20 Cl2 O12"
_cell_length_a       8.88014
_cell_length_b       10.1496
_cell_length_c       10.0944
_cell_angle_alpha    65.4928
_cell_angle_beta     70.6807
_cell_angle_gamma    85.0413

_space_group_name_H-M_alt    "P 1"
_space_group_IT_number       1

loop_
  _space_group_symop_operation_xyz
  'x, y, z'

loop_
  _atom_site_type_symbol
  _atom_site_label
  _atom_site_symmetry_multiplicity
  _atom_site_fract_x
  _atom_site_fract_y
  _atom_site_fract_z
  _atom_site_occupancy
  Pr  Pr1       1.0  0.39021  0.44100  0.82307  1.0000
  Pr  Pr2       1.0  0.60979  0.55900  0.17693  1.0000
  H   H1        1.0  0.12854  0.43158  0.11100  1.0000
  H   H2        1.0  0.87146  0.56842  0.88900  1.0000
  H   H3        1.0  0.27863  0.39390  0.16467  1.0000
  H   H4        1.0  0.72137  0.60610  0.83533  1.0000
  H   H5        1.0  0.65982  0.68279  0.63078  1.0000
  H   H6        1.0  0.34018  0.31721  0.36922  1.0000
  H   H7        1.0  0.00713  0.75444  0.18548  1.0000
  H   H8        1.0  0.99287  0.24556  0.81452  1.0000
  H   H9        1.0  0.94762  0.86580  0.28738  1.0000
  H   H10       1.0  0.05238  0.13420  0.71262  1.0000
  H   H11       1.0  0.08098  0.72451  0.67825  1.0000
  H   H12       1.0  0.91902  0.27549  0.32175  1.0000
  H   H13       1.0  0.97016  0.84274  0.75340  1.0000
  H   H14       1.0  0.02984  0.15726  0.24659  1.0000
  H   H15       1.0  0.31184  0.89099  0.77298  1.0000
  H   H16       1.0  0.68816  0.10901  0.22702  1.0000
  H   H17       1.0  0.14579  0.78222  0.92855  1.0000
  H   H18       1.0  0.85421  0.21778  0.07145  1.0000
  H   H19       1.0  0.39692  0.89064  0.25096  1.0000
  H   H20       1.0  0.60308  0.10936  0.74904  1.0000
  H   H21       1.0  0.21000  0.79299  0.37264  1.0000
  H   H22       1.0  0.79000  0.20701  0.62736  1.0000
  H   H23       1.0  0.91026  0.60675  0.55553  1.0000
  H   H24       1.0  0.08974  0.39325  0.44447  1.0000
  H   H25       1.0  0.78295  0.54031  0.48776  1.0000
  H   H26       1.0  0.21705  0.45969  0.51224  1.0000
  H   H27       1.0  0.83095  0.42334  0.65760  1.0000
  H   H28       1.0  0.16905  0.57666  0.34240  1.0000
  C   C1        1.0  0.37537  0.72454  0.95697  1.0000
  C   C2        1.0  0.62463  0.27546  0.04303  1.0000
  C   C3        1.0  0.26112  0.83774  0.89850  1.0000
  C   C4        1.0  0.73888  0.16226  0.10150  1.0000
  C   C5        1.0  0.13288  0.95064  0.08956  1.0000
  C   C6        1.0  0.86712  0.04936  0.91044  1.0000
  C   C7        1.0  0.40745  0.70420  0.45420  1.0000
  C   C8        1.0  0.59255  0.29580  0.54580  1.0000
  C   C9        1.0  0.32200  0.83380  0.37087  1.0000
  C   C10       1.0  0.67800  0.16620  0.62913  1.0000
  C   C11       1.0  0.16610  0.93542  0.56633  1.0000
  C   C12       1.0  0.83390  0.06458  0.43367  1.0000
  C   C13       1.0  0.80607  0.53426  0.59045  1.0000
  C   C14       1.0  0.19393  0.46574  0.40955  1.0000
  N   N1        1.0  0.15174  0.08212  0.08697  1.0000
  N   N2        1.0  0.84826  0.91788  0.91303  1.0000
  N   N3        1.0  0.26615  0.15684  0.95031  1.0000
  N   N4        1.0  0.73386  0.84317  0.04969  1.0000
  N   N5        1.0  0.31744  0.08069  0.87015  1.0000
  N   N6        1.0  0.68256  0.91931  0.12985  1.0000
  N   N7        1.0  0.23482  0.94982  0.95536  1.0000
  N   N8        1.0  0.76518  0.05018  0.04464  1.0000
  N   N9        1.0  0.03448  0.83922  0.20537  1.0000
  N   N10       1.0  0.96552  0.16078  0.79463  1.0000
  N   N11       1.0  0.28473  0.93838  0.43825  1.0000
  N   N12       1.0  0.71527  0.06162  0.56175  1.0000
  N   N13       1.0  0.37292  0.06626  0.36957  1.0000
  N   N14       1.0  0.62707  0.93374  0.63044  1.0000
  N   N15       1.0  0.30772  0.13747  0.45258  1.0000
  N   N16       1.0  0.69228  0.86253  0.54742  1.0000
  N   N17       1.0  0.18042  0.06228  0.57522  1.0000
  N   N18       1.0  0.81958  0.93772  0.42478  1.0000
  N   N19       1.0  0.05198  0.82859  0.66084  1.0000
  N   N20       1.0  0.94802  0.17141  0.33916  1.0000
  Cl  Cl1       1.0  0.06789  0.45087  0.82196  1.0000
  Cl  Cl2       1.0  0.93211  0.54913  0.17804  1.0000
  O   O1        1.0  0.42475  0.72554  0.06054  1.0000
  O   O2        1.0  0.57525  0.27446  0.93946  1.0000
  O   O3        1.0  0.41154  0.63531  0.89497  1.0000
  O   O4        1.0  0.58846  0.36469  0.10503  1.0000
  O   O5        1.0  0.37547  0.66441  0.59731  1.0000
  O   O6        1.0  0.62454  0.33560  0.40269  1.0000
  O   O7        1.0  0.49970  0.64429  0.37269  1.0000
  O   O8        1.0  0.50030  0.35571  0.62731  1.0000
  O   O9        1.0  0.22583  0.37585  0.10064  1.0000
  O   O10       1.0  0.77417  0.62415  0.89936  1.0000
  O   O11       1.0  0.66894  0.57458  0.68824  1.0000
  O   O12       1.0  0.33106  0.42542  0.31176  1.0000
