data_image0
_chemical_formula_structural       Nd2H28C14N20Cl2O12
_chemical_formula_sum              "Nd2 H28 C14 N20 Cl2 O12"
_cell_length_a       8.85085
_cell_length_b       10.1193
_cell_length_c       10.0689
_cell_angle_alpha    65.4322
_cell_angle_beta     70.7342
_cell_angle_gamma    85.0671

_space_group_name_H-M_alt    "P 1"
_space_group_IT_number       1

loop_
  _space_group_symop_operation_xyz
  'x, y, z'

loop_
  _atom_site_type_symbol
  _atom_site_label
  _atom_site_symmetry_multiplicity
  _atom_site_fract_x
  _atom_site_fract_y
  _atom_site_fract_z
  _atom_site_occupancy
  Nd  Nd1       1.0  0.89067  0.44099  0.32273  1.0000
  Nd  Nd2       1.0  0.10933  0.55901  0.67727  1.0000
  H   H1        1.0  0.77968  0.39435  0.66273  1.0000
  H   H2        1.0  0.22032  0.60565  0.33727  1.0000
  H   H3        1.0  0.62900  0.43083  0.60880  1.0000
  H   H4        1.0  0.37100  0.56917  0.39120  1.0000
  H   H5        1.0  0.15845  0.68196  0.13217  1.0000
  H   H6        1.0  0.84155  0.31804  0.86783  1.0000
  H   H7        1.0  0.58025  0.72391  0.17860  1.0000
  H   H8        1.0  0.41975  0.27609  0.82140  1.0000
  H   H9        1.0  0.46980  0.84281  0.25355  1.0000
  H   H10       1.0  0.53020  0.15719  0.74645  1.0000
  H   H11       1.0  0.44656  0.86547  0.78750  1.0000
  H   H12       1.0  0.55344  0.13453  0.21250  1.0000
  H   H13       1.0  0.50593  0.75413  0.68523  1.0000
  H   H14       1.0  0.49407  0.24587  0.31477  1.0000
  H   H15       1.0  0.89505  0.88924  0.74996  1.0000
  H   H16       1.0  0.10495  0.11076  0.25004  1.0000
  H   H17       1.0  0.70841  0.79077  0.87458  1.0000
  H   H18       1.0  0.29159  0.20922  0.12542  1.0000
  H   H19       1.0  0.81131  0.89081  0.27227  1.0000
  H   H20       1.0  0.18869  0.10919  0.72773  1.0000
  H   H21       1.0  0.64524  0.78153  0.42873  1.0000
  H   H22       1.0  0.35476  0.21847  0.57127  1.0000
  H   H23       1.0  0.41010  0.60731  0.05598  1.0000
  H   H24       1.0  0.58990  0.39269  0.94402  1.0000
  H   H25       1.0  0.28286  0.54056  0.98761  1.0000
  H   H26       1.0  0.71714  0.45944  0.01239  1.0000
  H   H27       1.0  0.33185  0.42290  0.15751  1.0000
  H   H28       1.0  0.66815  0.57710  0.84249  1.0000
  C   C1        1.0  0.90849  0.70307  0.95381  1.0000
  C   C2        1.0  0.09151  0.29693  0.04619  1.0000
  C   C3        1.0  0.82143  0.83249  0.87083  1.0000
  C   C4        1.0  0.17857  0.16751  0.12917  1.0000
  C   C5        1.0  0.66634  0.93528  0.06591  1.0000
  C   C6        1.0  0.33366  0.06472  0.93409  1.0000
  C   C7        1.0  0.87603  0.72365  0.45616  1.0000
  C   C8        1.0  0.12397  0.27636  0.54384  1.0000
  C   C9        1.0  0.76109  0.83726  0.39819  1.0000
  C   C10       1.0  0.23891  0.16274  0.60181  1.0000
  C   C11       1.0  0.63263  0.95062  0.58939  1.0000
  C   C12       1.0  0.36737  0.04938  0.41062  1.0000
  C   C13       1.0  0.30604  0.53412  0.09075  1.0000
  C   C14       1.0  0.69396  0.46588  0.90925  1.0000
  N   N1        1.0  0.78493  0.93785  0.93763  1.0000
  N   N2        1.0  0.21507  0.06215  0.06237  1.0000
  N   N3        1.0  0.87393  0.06596  0.86837  1.0000
  N   N4        1.0  0.12607  0.93404  0.13163  1.0000
  N   N5        1.0  0.80910  0.13768  0.95130  1.0000
  N   N6        1.0  0.19090  0.86232  0.04870  1.0000
  N   N7        1.0  0.68139  0.06261  0.07440  1.0000
  N   N8        1.0  0.31861  0.93739  0.92560  1.0000
  N   N9        1.0  0.55164  0.82841  0.16088  1.0000
  N   N10       1.0  0.44836  0.17158  0.83912  1.0000
  N   N11       1.0  0.73505  0.94961  0.45514  1.0000
  N   N12       1.0  0.26495  0.05039  0.54486  1.0000
  N   N13       1.0  0.81808  0.08091  0.36963  1.0000
  N   N14       1.0  0.18192  0.91909  0.63037  1.0000
  N   N15       1.0  0.76660  0.15745  0.44971  1.0000
  N   N16       1.0  0.23340  0.84254  0.55029  1.0000
  N   N17       1.0  0.65166  0.08252  0.58663  1.0000
  N   N18       1.0  0.34834  0.91747  0.41337  1.0000
  N   N19       1.0  0.53354  0.83897  0.70528  1.0000
  N   N20       1.0  0.46646  0.16103  0.29473  1.0000
  Cl  Cl1       1.0  0.56913  0.45209  0.32188  1.0000
  Cl  Cl2       1.0  0.43087  0.54791  0.67812  1.0000
  O   O1        1.0  0.87688  0.66324  0.09721  1.0000
  O   O2        1.0  0.12312  0.33676  0.90279  1.0000
  O   O3        1.0  0.00135  0.64369  0.87158  1.0000
  O   O4        1.0  0.99865  0.35631  0.12842  1.0000
  O   O5        1.0  0.91124  0.63429  0.39387  1.0000
  O   O6        1.0  0.08876  0.36571  0.60612  1.0000
  O   O7        1.0  0.92658  0.72454  0.55949  1.0000
  O   O8        1.0  0.07342  0.27547  0.44051  1.0000
  O   O9        1.0  0.72693  0.37540  0.59884  1.0000
  O   O10       1.0  0.27307  0.62460  0.40116  1.0000
  O   O11       1.0  0.16823  0.57338  0.18946  1.0000
  O   O12       1.0  0.83177  0.42662  0.81054  1.0000
