data_image0
_chemical_formula_structural       Na4H36C28S4O28
_chemical_formula_sum              "Na4 H36 C28 S4 O28"
_cell_length_a       7.03906
_cell_length_b       11.9395
_cell_length_c       11.9685
_cell_angle_alpha    90.0004
_cell_angle_beta     103.86
_cell_angle_gamma    90

_space_group_name_H-M_alt    "P 1"
_space_group_IT_number       1

loop_
  _space_group_symop_operation_xyz
  'x, y, z'

loop_
  _atom_site_type_symbol
  _atom_site_label
  _atom_site_symmetry_multiplicity
  _atom_site_fract_x
  _atom_site_fract_y
  _atom_site_fract_z
  _atom_site_occupancy
  Na  Na1       1.0  0.30701  0.25340  0.16039  1.0000
  Na  Na2       1.0  0.19299  0.75341  0.83961  1.0000
  Na  Na3       1.0  0.69299  0.74659  0.83961  1.0000
  Na  Na4       1.0  0.80701  0.24659  0.16039  1.0000
  H   H1        1.0  0.62271  0.14767  0.38134  1.0000
  H   H2        1.0  0.87730  0.64767  0.61865  1.0000
  H   H3        1.0  0.37728  0.85233  0.61866  1.0000
  H   H4        1.0  0.12270  0.35233  0.38135  1.0000
  H   H5        1.0  0.19814  0.01766  0.14501  1.0000
  H   H6        1.0  0.30185  0.51766  0.85499  1.0000
  H   H7        1.0  0.80185  0.98234  0.85499  1.0000
  H   H8        1.0  0.69815  0.48234  0.14501  1.0000
  H   H9        1.0  0.41737  0.01546  0.13710  1.0000
  H   H10       1.0  0.08262  0.51546  0.86290  1.0000
  H   H11       1.0  0.58262  0.98454  0.86290  1.0000
  H   H12       1.0  0.91738  0.48454  0.13709  1.0000
  H   H13       1.0  0.45437  0.19436  0.97638  1.0000
  H   H14       1.0  0.04563  0.69436  0.02362  1.0000
  H   H15       1.0  0.54563  0.80564  0.02362  1.0000
  H   H16       1.0  0.95437  0.30564  0.97638  1.0000
  H   H17       1.0  0.51086  0.32280  0.97542  1.0000
  H   H18       1.0  0.98913  0.82280  0.02457  1.0000
  H   H19       1.0  0.48914  0.67720  0.02458  1.0000
  H   H20       1.0  0.01086  0.17720  0.97542  1.0000
  H   H21       1.0  0.66858  0.47208  0.57450  1.0000
  H   H22       1.0  0.83142  0.97207  0.42549  1.0000
  H   H23       1.0  0.33144  0.52792  0.42551  1.0000
  H   H24       1.0  0.16858  0.02793  0.57451  1.0000
  H   H25       1.0  0.61346  0.06742  0.66934  1.0000
  H   H26       1.0  0.88656  0.56742  0.33064  1.0000
  H   H27       1.0  0.38654  0.93258  0.33065  1.0000
  H   H28       1.0  0.11345  0.43259  0.66935  1.0000
  H   H29       1.0  0.63735  0.21148  0.81921  1.0000
  H   H30       1.0  0.86265  0.71148  0.18078  1.0000
  H   H31       1.0  0.36265  0.78852  0.18079  1.0000
  H   H32       1.0  0.13733  0.28853  0.81921  1.0000
  H   H33       1.0  0.66876  0.42480  0.37713  1.0000
  H   H34       1.0  0.83124  0.92480  0.62287  1.0000
  H   H35       1.0  0.33125  0.57521  0.62288  1.0000
  H   H36       1.0  0.16875  0.07520  0.37714  1.0000
  C   C1        1.0  0.65200  0.35157  0.70577  1.0000
  C   C2        1.0  0.84799  0.85156  0.29422  1.0000
  C   C3        1.0  0.34801  0.64843  0.29424  1.0000
  C   C4        1.0  0.15200  0.14844  0.70578  1.0000
  C   C5        1.0  0.65213  0.38425  0.59505  1.0000
  C   C6        1.0  0.84786  0.88424  0.40494  1.0000
  C   C7        1.0  0.34788  0.61575  0.40495  1.0000
  C   C8        1.0  0.15213  0.11576  0.59506  1.0000
  C   C9        1.0  0.63945  0.30274  0.50816  1.0000
  C   C10       1.0  0.86056  0.80273  0.49183  1.0000
  C   C11       1.0  0.36056  0.69727  0.49184  1.0000
  C   C12       1.0  0.13945  0.19727  0.50816  1.0000
  C   C13       1.0  0.62634  0.18716  0.53542  1.0000
  C   C14       1.0  0.87368  0.68716  0.46458  1.0000
  C   C15       1.0  0.37366  0.81284  0.46458  1.0000
  C   C16       1.0  0.12633  0.31284  0.53542  1.0000
  C   C17       1.0  0.62488  0.15561  0.64818  1.0000
  C   C18       1.0  0.87514  0.65561  0.35181  1.0000
  C   C19       1.0  0.37511  0.84439  0.35182  1.0000
  C   C20       1.0  0.12487  0.34440  0.64818  1.0000
  C   C21       1.0  0.63794  0.23707  0.73187  1.0000
  C   C22       1.0  0.86207  0.73707  0.26812  1.0000
  C   C23       1.0  0.36207  0.76293  0.26813  1.0000
  C   C24       1.0  0.13792  0.26294  0.73187  1.0000
  C   C25       1.0  0.64946  0.33516  0.39401  1.0000
  C   C26       1.0  0.85055  0.83515  0.60599  1.0000
  C   C27       1.0  0.35055  0.66485  0.60600  1.0000
  C   C28       1.0  0.14944  0.16484  0.39401  1.0000
  S   S1        1.0  0.68826  0.45108  0.81942  1.0000
  S   S2        1.0  0.81173  0.95108  0.18058  1.0000
  S   S3        1.0  0.31174  0.54892  0.18058  1.0000
  S   S4        1.0  0.18826  0.04892  0.81942  1.0000
  O   O1        1.0  0.68225  0.56166  0.76620  1.0000
  O   O2        1.0  0.81776  0.06166  0.23380  1.0000
  O   O3        1.0  0.31776  0.43834  0.23380  1.0000
  O   O4        1.0  0.18224  0.93834  0.76620  1.0000
  O   O5        1.0  0.52998  0.43282  0.87912  1.0000
  O   O6        1.0  0.97001  0.93282  0.12088  1.0000
  O   O7        1.0  0.47002  0.56717  0.12089  1.0000
  O   O8        1.0  0.02999  0.06718  0.87912  1.0000
  O   O9        1.0  0.88304  0.42496  0.89404  1.0000
  O   O10       1.0  0.61695  0.92495  0.10596  1.0000
  O   O11       1.0  0.11697  0.57504  0.10596  1.0000
  O   O12       1.0  0.38304  0.07505  0.89404  1.0000
  O   O13       1.0  0.64104  0.26506  0.31460  1.0000
  O   O14       1.0  0.85895  0.76506  0.68539  1.0000
  O   O15       1.0  0.35895  0.73494  0.68540  1.0000
  O   O16       1.0  0.14104  0.23494  0.31460  1.0000
  O   O17       1.0  0.61549  0.10766  0.45490  1.0000
  O   O18       1.0  0.88453  0.60766  0.54509  1.0000
  O   O19       1.0  0.38451  0.89235  0.54509  1.0000
  O   O20       1.0  0.11548  0.39234  0.45490  1.0000
  O   O21       1.0  0.32325  0.05792  0.16942  1.0000
  O   O22       1.0  0.17674  0.55792  0.83059  1.0000
  O   O23       1.0  0.67674  0.94207  0.83059  1.0000
  O   O24       1.0  0.82326  0.44207  0.16941  1.0000
  O   O25       1.0  0.50082  0.25943  0.02685  1.0000
  O   O26       1.0  0.99917  0.75943  0.97315  1.0000
  O   O27       1.0  0.49918  0.74057  0.97315  1.0000
  O   O28       1.0  0.00082  0.24057  0.02685  1.0000
