data_image0
_chemical_formula_structural       Sm4H48C36N4O40
_chemical_formula_sum              "Sm4 H48 C36 N4 O40"
_cell_length_a       7.26372
_cell_length_b       11.6608
_cell_length_c       18.6225
_cell_angle_alpha    99.4534
_cell_angle_beta     90.0002
_cell_angle_gamma    89.9975

_space_group_name_H-M_alt    "P 1"
_space_group_IT_number       1

loop_
  _space_group_symop_operation_xyz
  'x, y, z'

loop_
  _atom_site_type_symbol
  _atom_site_label
  _atom_site_symmetry_multiplicity
  _atom_site_fract_x
  _atom_site_fract_y
  _atom_site_fract_z
  _atom_site_occupancy
  Sm  Sm1       1.0  0.26378  0.30451  0.36775  1.0000
  Sm  Sm2       1.0  0.76381  0.19548  0.13224  1.0000
  Sm  Sm3       1.0  0.73621  0.69549  0.63225  1.0000
  Sm  Sm4       1.0  0.23619  0.80453  0.86776  1.0000
  H   H1        1.0  0.99793  0.13075  0.27914  1.0000
  H   H2        1.0  0.49794  0.36924  0.22086  1.0000
  H   H3        1.0  0.00205  0.86925  0.72086  1.0000
  H   H4        1.0  0.50207  0.63077  0.77914  1.0000
  H   H5        1.0  0.15787  0.06838  0.31896  1.0000
  H   H6        1.0  0.65786  0.43163  0.18105  1.0000
  H   H7        1.0  0.84212  0.93163  0.68104  1.0000
  H   H8        1.0  0.34216  0.56838  0.81895  1.0000
  H   H9        1.0  0.85447  0.42201  0.36342  1.0000
  H   H10       1.0  0.35448  0.07800  0.13657  1.0000
  H   H11       1.0  0.14553  0.57799  0.63658  1.0000
  H   H12       1.0  0.64553  0.92200  0.86343  1.0000
  H   H13       1.0  0.92587  0.34692  0.28987  1.0000
  H   H14       1.0  0.42590  0.15307  0.21012  1.0000
  H   H15       1.0  0.07412  0.65307  0.71013  1.0000
  H   H16       1.0  0.57411  0.84692  0.78989  1.0000
  H   H17       1.0  0.27850  0.54690  0.32230  1.0000
  H   H18       1.0  0.77853  0.95310  0.17769  1.0000
  H   H19       1.0  0.72150  0.45310  0.67770  1.0000
  H   H20       1.0  0.22147  0.04690  0.82231  1.0000
  H   H21       1.0  0.28258  0.57400  0.40956  1.0000
  H   H22       1.0  0.78261  0.92599  0.09044  1.0000
  H   H23       1.0  0.71741  0.42600  0.59044  1.0000
  H   H24       1.0  0.21740  0.07401  0.90957  1.0000
  H   H25       1.0  0.18524  0.48724  0.49728  1.0000
  H   H26       1.0  0.68524  0.01274  0.00272  1.0000
  H   H27       1.0  0.81477  0.51276  0.50272  1.0000
  H   H28       1.0  0.31477  0.98725  0.99728  1.0000
  H   H29       1.0  0.03668  0.38386  0.49987  1.0000
  H   H30       1.0  0.53671  0.11615  0.00013  1.0000
  H   H31       1.0  0.96332  0.61615  0.50013  1.0000
  H   H32       1.0  0.46330  0.88385  0.99987  1.0000
  H   H33       1.0  0.26079  0.82979  0.43929  1.0000
  H   H34       1.0  0.76078  0.67019  0.06071  1.0000
  H   H35       1.0  0.73923  0.17021  0.56070  1.0000
  H   H36       1.0  0.23924  0.32980  0.93929  1.0000
  H   H37       1.0  0.18560  0.21074  0.65428  1.0000
  H   H38       1.0  0.68554  0.28926  0.84571  1.0000
  H   H39       1.0  0.81439  0.78927  0.34571  1.0000
  H   H40       1.0  0.31446  0.71073  0.15429  1.0000
  H   H41       1.0  0.07640  0.21309  0.56804  1.0000
  H   H42       1.0  0.57636  0.28690  0.93196  1.0000
  H   H43       1.0  0.92358  0.78690  0.43195  1.0000
  H   H44       1.0  0.42365  0.71310  0.06804  1.0000
  H   H45       1.0  0.31287  0.24002  0.57652  1.0000
  H   H46       1.0  0.81282  0.25997  0.92347  1.0000
  H   H47       1.0  0.68711  0.75997  0.42347  1.0000
  H   H48       1.0  0.18718  0.74003  0.07653  1.0000
  C   C1        1.0  0.23796  0.06119  0.57593  1.0000
  C   C2        1.0  0.73787  0.43880  0.92407  1.0000
  C   C3        1.0  0.76202  0.93880  0.42406  1.0000
  C   C4        1.0  0.26212  0.56119  0.07593  1.0000
  C   C5        1.0  0.24319  0.99873  0.50393  1.0000
  C   C6        1.0  0.74312  0.50127  0.99608  1.0000
  C   C7        1.0  0.75681  0.00127  0.49607  1.0000
  C   C8        1.0  0.25688  0.49874  0.00392  1.0000
  C   C9        1.0  0.26497  0.87830  0.49454  1.0000
  C   C10       1.0  0.76493  0.62169  0.00546  1.0000
  C   C11       1.0  0.73503  0.12170  0.50545  1.0000
  C   C12       1.0  0.23508  0.37831  0.99454  1.0000
  C   C13       1.0  0.29639  0.82152  0.55373  1.0000
  C   C14       1.0  0.79637  0.67847  0.94628  1.0000
  C   C15       1.0  0.70362  0.17848  0.44627  1.0000
  C   C16       1.0  0.20364  0.32153  0.05373  1.0000
  C   C17       1.0  0.29877  0.89182  0.62276  1.0000
  C   C18       1.0  0.79876  0.60816  0.87725  1.0000
  C   C19       1.0  0.70122  0.10818  0.37724  1.0000
  C   C20       1.0  0.20124  0.39183  0.12275  1.0000
  C   C21       1.0  0.20111  0.18876  0.59515  1.0000
  C   C22       1.0  0.70106  0.31124  0.90485  1.0000
  C   C23       1.0  0.79886  0.81124  0.40484  1.0000
  C   C24       1.0  0.29894  0.68876  0.09516  1.0000
  C   C25       1.0  0.22731  0.05261  0.43595  1.0000
  C   C26       1.0  0.72727  0.44739  0.06406  1.0000
  C   C27       1.0  0.77270  0.94739  0.56405  1.0000
  C   C28       1.0  0.27273  0.55261  0.93595  1.0000
  C   C29       1.0  0.32036  0.69229  0.54105  1.0000
  C   C30       1.0  0.82034  0.80769  0.95896  1.0000
  C   C31       1.0  0.67964  0.30771  0.45895  1.0000
  C   C32       1.0  0.17968  0.19231  0.04105  1.0000
  C   C33       1.0  0.34499  0.84930  0.69288  1.0000
  C   C34       1.0  0.84499  0.65069  0.80713  1.0000
  C   C35       1.0  0.65500  0.15071  0.30712  1.0000
  C   C36       1.0  0.15502  0.34931  0.19287  1.0000
  N   N1        1.0  0.26363  0.00594  0.63326  1.0000
  N   N2        1.0  0.76361  0.49405  0.86674  1.0000
  N   N3        1.0  0.73634  0.99406  0.36673  1.0000
  N   N4        1.0  0.23640  0.50594  0.13326  1.0000
  O   O1        1.0  0.24428  0.16377  0.44295  1.0000
  O   O2        1.0  0.74419  0.33622  0.05705  1.0000
  O   O3        1.0  0.75574  0.83623  0.55704  1.0000
  O   O4        1.0  0.25578  0.66378  0.94295  1.0000
  O   O5        1.0  0.20170  0.98560  0.37637  1.0000
  O   O6        1.0  0.70165  0.51439  0.12363  1.0000
  O   O7        1.0  0.79829  0.01440  0.62362  1.0000
  O   O8        1.0  0.29835  0.48562  0.87638  1.0000
  O   O9        1.0  0.20863  0.63318  0.49545  1.0000
  O   O10       1.0  0.70860  0.86681  0.00456  1.0000
  O   O11       1.0  0.79138  0.36682  0.50455  1.0000
  O   O12       1.0  0.29141  0.13319  0.99544  1.0000
  O   O13       1.0  0.44448  0.64561  0.57401  1.0000
  O   O14       1.0  0.94445  0.85437  0.92601  1.0000
  O   O15       1.0  0.55549  0.35439  0.42601  1.0000
  O   O16       1.0  0.05556  0.14563  0.07399  1.0000
  O   O17       1.0  0.50710  0.81162  0.69996  1.0000
  O   O18       1.0  0.00711  0.68836  0.80006  1.0000
  O   O19       1.0  0.49290  0.18838  0.30004  1.0000
  O   O20       1.0  0.99290  0.31164  0.19994  1.0000
  O   O21       1.0  0.22766  0.86090  0.74396  1.0000
  O   O22       1.0  0.72768  0.63909  0.75604  1.0000
  O   O23       1.0  0.77234  0.13909  0.25603  1.0000
  O   O24       1.0  0.27233  0.36091  0.24396  1.0000
  O   O25       1.0  0.13069  0.13587  0.29179  1.0000
  O   O26       1.0  0.63071  0.36413  0.20821  1.0000
  O   O27       1.0  0.86929  0.86414  0.70821  1.0000
  O   O28       1.0  0.36931  0.63588  0.79179  1.0000
  O   O29       1.0  0.94326  0.36272  0.34379  1.0000
  O   O30       1.0  0.44330  0.13726  0.15620  1.0000
  O   O31       1.0  0.05673  0.63727  0.65621  1.0000
  O   O32       1.0  0.55670  0.86274  0.84380  1.0000
  O   O33       1.0  0.31384  0.51641  0.36587  1.0000
  O   O34       1.0  0.81394  0.98356  0.13412  1.0000
  O   O35       1.0  0.68615  0.48358  0.63413  1.0000
  O   O36       1.0  0.18607  0.01644  0.86588  1.0000
  O   O37       1.0  0.16465  0.40146  0.48714  1.0000
  O   O38       1.0  0.66469  0.09853  0.01285  1.0000
  O   O39       1.0  0.83534  0.59854  0.51286  1.0000
  O   O40       1.0  0.33532  0.90147  0.98715  1.0000
