data_image0
_chemical_formula_structural       Mn2H38C50N4O8
_chemical_formula_sum              "Mn2 H38 C50 N4 O8"
_cell_length_a       9.9367
_cell_length_b       10.8159
_cell_length_c       11.2317
_cell_angle_alpha    112.241
_cell_angle_beta     102.999
_cell_angle_gamma    101.294

_space_group_name_H-M_alt    "P 1"
_space_group_IT_number       1

loop_
  _space_group_symop_operation_xyz
  'x, y, z'

loop_
  _atom_site_type_symbol
  _atom_site_label
  _atom_site_symmetry_multiplicity
  _atom_site_fract_x
  _atom_site_fract_y
  _atom_site_fract_z
  _atom_site_occupancy
  Mn  Mn1       1.0  0.95596  0.08808  0.60349  1.0000
  Mn  Mn2       1.0  0.04404  0.91191  0.39651  1.0000
  H   H1        1.0  0.78875  0.00391  0.06639  1.0000
  H   H2        1.0  0.21125  0.99609  0.93361  1.0000
  H   H3        1.0  0.32292  0.01079  0.16204  1.0000
  H   H4        1.0  0.67708  0.98920  0.83796  1.0000
  H   H5        1.0  0.54269  0.03697  0.34061  1.0000
  H   H6        1.0  0.45731  0.96302  0.65939  1.0000
  H   H7        1.0  0.38220  0.20943  0.39636  1.0000
  H   H8        1.0  0.61780  0.79057  0.60364  1.0000
  H   H9        1.0  0.44742  0.70481  0.70977  1.0000
  H   H10       1.0  0.55256  0.29519  0.29022  1.0000
  H   H11       1.0  0.28470  0.50572  0.72001  1.0000
  H   H12       1.0  0.71529  0.49428  0.27999  1.0000
  H   H13       1.0  0.74246  0.28548  0.62223  1.0000
  H   H14       1.0  0.25754  0.71451  0.37777  1.0000
  H   H15       1.0  0.02787  0.11232  0.91308  1.0000
  H   H16       1.0  0.97213  0.88769  0.08692  1.0000
  H   H17       1.0  0.83151  0.50364  0.13236  1.0000
  H   H18       1.0  0.16849  0.49636  0.86764  1.0000
  H   H19       1.0  0.12691  0.11362  0.12343  1.0000
  H   H20       1.0  0.87310  0.88638  0.87657  1.0000
  H   H21       1.0  0.03734  0.16350  0.24540  1.0000
  H   H22       1.0  0.96266  0.83650  0.75459  1.0000
  H   H23       1.0  0.19501  0.28429  0.26135  1.0000
  H   H24       1.0  0.80499  0.71571  0.73866  1.0000
  H   H25       1.0  0.95626  0.52851  0.35061  1.0000
  H   H26       1.0  0.04374  0.47149  0.64938  1.0000
  H   H27       1.0  0.10375  0.45937  0.36825  1.0000
  H   H28       1.0  0.89625  0.54064  0.63175  1.0000
  H   H29       1.0  0.93070  0.36012  0.34914  1.0000
  H   H30       1.0  0.06930  0.63989  0.65085  1.0000
  H   H31       1.0  0.64047  0.46102  0.73931  1.0000
  H   H32       1.0  0.35953  0.53898  0.26068  1.0000
  H   H33       1.0  0.78378  0.58621  0.89001  1.0000
  H   H34       1.0  0.21623  0.41379  0.10999  1.0000
  H   H35       1.0  0.69393  0.71485  0.05127  1.0000
  H   H36       1.0  0.30608  0.28515  0.94873  1.0000
  H   H37       1.0  0.47843  0.26834  0.81950  1.0000
  H   H38       1.0  0.52158  0.73166  0.18050  1.0000
  C   C1        1.0  0.80845  0.03643  0.31968  1.0000
  C   C2        1.0  0.19155  0.96356  0.68031  1.0000
  C   C3        1.0  0.67859  0.02237  0.21272  1.0000
  C   C4        1.0  0.32141  0.97763  0.78728  1.0000
  C   C5        1.0  0.68712  0.00717  0.08694  1.0000
  C   C6        1.0  0.31287  0.99283  0.91307  1.0000
  C   C7        1.0  0.56689  0.99894  0.98592  1.0000
  C   C8        1.0  0.43310  0.00106  0.01408  1.0000
  C   C9        1.0  0.42582  0.01224  0.14258  1.0000
  C   C10       1.0  0.57417  0.98775  0.85743  1.0000
  C   C11       1.0  0.54649  0.02540  0.24077  1.0000
  C   C12       1.0  0.45351  0.97459  0.75923  1.0000
  C   C13       1.0  0.21304  0.22550  0.55115  1.0000
  C   C14       1.0  0.78696  0.77451  0.44886  1.0000
  C   C15       1.0  0.32194  0.34568  0.55562  1.0000
  C   C16       1.0  0.67805  0.65432  0.44439  1.0000
  C   C17       1.0  0.39836  0.31834  0.46442  1.0000
  C   C18       1.0  0.60163  0.68166  0.53558  1.0000
  C   C19       1.0  0.49198  0.42875  0.45552  1.0000
  C   C20       1.0  0.50801  0.57125  0.54448  1.0000
  C   C21       1.0  0.43237  0.59649  0.64050  1.0000
  C   C22       1.0  0.56762  0.40351  0.35950  1.0000
  C   C23       1.0  0.34190  0.48649  0.64619  1.0000
  C   C24       1.0  0.65810  0.51351  0.35381  1.0000
  C   C25       1.0  0.78732  0.28823  0.72112  1.0000
  C   C26       1.0  0.21268  0.71177  0.27888  1.0000
  C   C27       1.0  0.84347  0.35312  0.94341  1.0000
  C   C28       1.0  0.15654  0.64689  0.05659  1.0000
  C   C29       1.0  0.90193  0.24570  0.88272  1.0000
  C   C30       1.0  0.09807  0.75431  0.11728  1.0000
  C   C31       1.0  0.98193  0.19399  0.96092  1.0000
  C   C32       1.0  0.01808  0.80601  0.03909  1.0000
  C   C33       1.0  0.00545  0.25237  0.10065  1.0000
  C   C34       1.0  0.99456  0.74763  0.89935  1.0000
  C   C35       1.0  0.95166  0.36525  0.16294  1.0000
  C   C36       1.0  0.04835  0.63476  0.83706  1.0000
  C   C37       1.0  0.86987  0.41575  0.08406  1.0000
  C   C38       1.0  0.13014  0.58425  0.91593  1.0000
  C   C39       1.0  0.09498  0.20067  0.18659  1.0000
  C   C40       1.0  0.90503  0.79933  0.81341  1.0000
  C   C41       1.0  0.98690  0.43220  0.31523  1.0000
  C   C42       1.0  0.01310  0.56781  0.68476  1.0000
  C   C43       1.0  0.69893  0.48420  0.84476  1.0000
  C   C44       1.0  0.30107  0.51580  0.15524  1.0000
  C   C45       1.0  0.59653  0.49077  0.92570  1.0000
  C   C46       1.0  0.40347  0.50923  0.07430  1.0000
  C   C47       1.0  0.60808  0.62058  0.02782  1.0000
  C   C48       1.0  0.39193  0.37942  0.97218  1.0000
  C   C49       1.0  0.48818  0.37015  0.89859  1.0000
  C   C50       1.0  0.51184  0.62985  0.10141  1.0000
  N   N1        1.0  0.86665  0.20884  0.74410  1.0000
  N   N2        1.0  0.13335  0.79116  0.25590  1.0000
  N   N3        1.0  0.76926  0.37600  0.83645  1.0000
  N   N4        1.0  0.23074  0.62400  0.16354  1.0000
  O   O1        1.0  0.82323  0.11217  0.44328  1.0000
  O   O2        1.0  0.17678  0.88783  0.55672  1.0000
  O   O3        1.0  0.89678  0.97160  0.28046  1.0000
  O   O4        1.0  0.10321  0.02838  0.71953  1.0000
  O   O5        1.0  0.13378  0.25197  0.62676  1.0000
  O   O6        1.0  0.86622  0.74802  0.37326  1.0000
  O   O7        1.0  0.20428  0.10256  0.46787  1.0000
  O   O8        1.0  0.79570  0.89744  0.53212  1.0000
