data_image0
_chemical_formula_structural       Tb4H48C36N4O40
_chemical_formula_sum              "Tb4 H48 C36 N4 O40"
_cell_length_a       7.25256
_cell_length_b       11.6029
_cell_length_c       18.5334
_cell_angle_alpha    99.0288
_cell_angle_beta     90.0006
_cell_angle_gamma    89.9987

_space_group_name_H-M_alt    "P 1"
_space_group_IT_number       1

loop_
  _space_group_symop_operation_xyz
  'x, y, z'

loop_
  _atom_site_type_symbol
  _atom_site_label
  _atom_site_symmetry_multiplicity
  _atom_site_fract_x
  _atom_site_fract_y
  _atom_site_fract_z
  _atom_site_occupancy
  Tb  Tb1       1.0  0.25651  0.30168  0.36701  1.0000
  Tb  Tb2       1.0  0.75652  0.19831  0.13299  1.0000
  Tb  Tb3       1.0  0.74348  0.69832  0.63299  1.0000
  Tb  Tb4       1.0  0.24348  0.80168  0.86701  1.0000
  H   H1        1.0  0.99407  0.13143  0.27853  1.0000
  H   H2        1.0  0.49407  0.36857  0.22146  1.0000
  H   H3        1.0  0.00591  0.86858  0.72147  1.0000
  H   H4        1.0  0.50593  0.63144  0.77853  1.0000
  H   H5        1.0  0.15301  0.06729  0.31880  1.0000
  H   H6        1.0  0.65301  0.43271  0.18120  1.0000
  H   H7        1.0  0.84698  0.93272  0.68119  1.0000
  H   H8        1.0  0.34702  0.56729  0.81881  1.0000
  H   H9        1.0  0.87301  0.42766  0.36106  1.0000
  H   H10       1.0  0.37302  0.07233  0.13893  1.0000
  H   H11       1.0  0.12697  0.57233  0.63894  1.0000
  H   H12       1.0  0.62699  0.92767  0.86107  1.0000
  H   H13       1.0  0.92182  0.33896  0.28970  1.0000
  H   H14       1.0  0.42183  0.16104  0.21029  1.0000
  H   H15       1.0  0.07817  0.66105  0.71029  1.0000
  H   H16       1.0  0.57816  0.83896  0.78971  1.0000
  H   H17       1.0  0.27381  0.54533  0.32178  1.0000
  H   H18       1.0  0.77383  0.95468  0.17822  1.0000
  H   H19       1.0  0.72618  0.45467  0.67822  1.0000
  H   H20       1.0  0.22618  0.04532  0.82178  1.0000
  H   H21       1.0  0.28013  0.56876  0.40989  1.0000
  H   H22       1.0  0.78013  0.93124  0.09010  1.0000
  H   H23       1.0  0.71989  0.43124  0.59010  1.0000
  H   H24       1.0  0.21986  0.06876  0.90989  1.0000
  H   H25       1.0  0.18256  0.47945  0.49639  1.0000
  H   H26       1.0  0.68256  0.02054  0.00360  1.0000
  H   H27       1.0  0.81743  0.52055  0.50361  1.0000
  H   H28       1.0  0.31744  0.97946  0.99639  1.0000
  H   H29       1.0  0.02186  0.38118  0.49588  1.0000
  H   H30       1.0  0.52187  0.11882  0.00411  1.0000
  H   H31       1.0  0.97814  0.61882  0.50412  1.0000
  H   H32       1.0  0.47814  0.88118  0.99588  1.0000
  H   H33       1.0  0.26759  0.82643  0.43837  1.0000
  H   H34       1.0  0.76759  0.67357  0.06163  1.0000
  H   H35       1.0  0.73239  0.17358  0.56163  1.0000
  H   H36       1.0  0.23244  0.32643  0.93837  1.0000
  H   H37       1.0  0.18145  0.20812  0.65243  1.0000
  H   H38       1.0  0.68147  0.29190  0.84757  1.0000
  H   H39       1.0  0.81855  0.79189  0.34757  1.0000
  H   H40       1.0  0.31853  0.70811  0.15244  1.0000
  H   H41       1.0  0.07238  0.20783  0.56538  1.0000
  H   H42       1.0  0.57239  0.29217  0.93461  1.0000
  H   H43       1.0  0.92762  0.79217  0.43462  1.0000
  H   H44       1.0  0.42761  0.70784  0.06539  1.0000
  H   H45       1.0  0.30804  0.23833  0.57396  1.0000
  H   H46       1.0  0.80807  0.26168  0.92603  1.0000
  H   H47       1.0  0.69195  0.76167  0.42604  1.0000
  H   H48       1.0  0.19193  0.73833  0.07397  1.0000
  C   C1        1.0  0.23890  0.05807  0.57480  1.0000
  C   C2        1.0  0.73891  0.44194  0.92520  1.0000
  C   C3        1.0  0.76109  0.94193  0.42520  1.0000
  C   C4        1.0  0.26111  0.55807  0.07480  1.0000
  C   C5        1.0  0.24552  0.99559  0.50270  1.0000
  C   C6        1.0  0.74554  0.50440  0.99731  1.0000
  C   C7        1.0  0.75445  0.00441  0.49731  1.0000
  C   C8        1.0  0.25451  0.49559  0.00269  1.0000
  C   C9        1.0  0.27046  0.87496  0.49370  1.0000
  C   C10       1.0  0.77049  0.62504  0.00630  1.0000
  C   C11       1.0  0.72951  0.12505  0.50630  1.0000
  C   C12       1.0  0.22955  0.37495  0.99370  1.0000
  C   C13       1.0  0.30400  0.81824  0.55339  1.0000
  C   C14       1.0  0.80403  0.68175  0.94662  1.0000
  C   C15       1.0  0.69598  0.18175  0.44662  1.0000
  C   C16       1.0  0.19599  0.31825  0.05338  1.0000
  C   C17       1.0  0.30420  0.88863  0.62244  1.0000
  C   C18       1.0  0.80422  0.61137  0.87756  1.0000
  C   C19       1.0  0.69578  0.11136  0.37756  1.0000
  C   C20       1.0  0.19579  0.38863  0.12244  1.0000
  C   C21       1.0  0.19806  0.18566  0.59317  1.0000
  C   C22       1.0  0.69807  0.31434  0.90683  1.0000
  C   C23       1.0  0.80193  0.81434  0.40684  1.0000
  C   C24       1.0  0.30193  0.68566  0.09317  1.0000
  C   C25       1.0  0.22710  0.04974  0.43429  1.0000
  C   C26       1.0  0.72710  0.45025  0.06571  1.0000
  C   C27       1.0  0.77288  0.95025  0.56571  1.0000
  C   C28       1.0  0.27295  0.54973  0.93428  1.0000
  C   C29       1.0  0.33361  0.68883  0.54083  1.0000
  C   C30       1.0  0.83363  0.81117  0.95918  1.0000
  C   C31       1.0  0.66637  0.31117  0.45917  1.0000
  C   C32       1.0  0.16639  0.18883  0.04083  1.0000
  C   C33       1.0  0.35096  0.84552  0.69285  1.0000
  C   C34       1.0  0.85098  0.65449  0.80715  1.0000
  C   C35       1.0  0.64903  0.15448  0.30715  1.0000
  C   C36       1.0  0.14902  0.34551  0.19284  1.0000
  N   N1        1.0  0.26592  0.00286  0.63267  1.0000
  N   N2        1.0  0.76594  0.49715  0.86734  1.0000
  N   N3        1.0  0.73406  0.99714  0.36734  1.0000
  N   N4        1.0  0.23407  0.50286  0.13266  1.0000
  O   O1        1.0  0.24503  0.16117  0.44057  1.0000
  O   O2        1.0  0.74503  0.33882  0.05943  1.0000
  O   O3        1.0  0.75496  0.83883  0.55943  1.0000
  O   O4        1.0  0.25499  0.66117  0.94057  1.0000
  O   O5        1.0  0.19791  0.98263  0.37490  1.0000
  O   O6        1.0  0.69793  0.51737  0.12510  1.0000
  O   O7        1.0  0.80207  0.01738  0.62511  1.0000
  O   O8        1.0  0.30215  0.48263  0.87490  1.0000
  O   O9        1.0  0.21969  0.62789  0.49688  1.0000
  O   O10       1.0  0.71970  0.87211  0.00312  1.0000
  O   O11       1.0  0.78029  0.37212  0.50311  1.0000
  O   O12       1.0  0.28031  0.12789  0.99688  1.0000
  O   O13       1.0  0.46493  0.64431  0.57151  1.0000
  O   O14       1.0  0.96494  0.85569  0.92850  1.0000
  O   O15       1.0  0.53505  0.35568  0.42849  1.0000
  O   O16       1.0  0.03507  0.14432  0.07151  1.0000
  O   O17       1.0  0.51228  0.80530  0.69934  1.0000
  O   O18       1.0  0.01229  0.69470  0.80067  1.0000
  O   O19       1.0  0.48771  0.19469  0.30066  1.0000
  O   O20       1.0  0.98771  0.30531  0.19933  1.0000
  O   O21       1.0  0.23502  0.85875  0.74466  1.0000
  O   O22       1.0  0.73503  0.64126  0.75534  1.0000
  O   O23       1.0  0.76497  0.14125  0.25534  1.0000
  O   O24       1.0  0.26497  0.35874  0.24465  1.0000
  O   O25       1.0  0.12630  0.13643  0.29219  1.0000
  O   O26       1.0  0.62630  0.36356  0.20781  1.0000
  O   O27       1.0  0.87369  0.86357  0.70781  1.0000
  O   O28       1.0  0.37371  0.63644  0.79219  1.0000
  O   O29       1.0  0.93868  0.35555  0.34390  1.0000
  O   O30       1.0  0.43869  0.14445  0.15609  1.0000
  O   O31       1.0  0.06131  0.64445  0.65610  1.0000
  O   O32       1.0  0.56131  0.85555  0.84391  1.0000
  O   O33       1.0  0.29743  0.51031  0.36516  1.0000
  O   O34       1.0  0.79745  0.98968  0.13483  1.0000
  O   O35       1.0  0.70259  0.48968  0.63483  1.0000
  O   O36       1.0  0.20255  0.01031  0.86517  1.0000
  O   O37       1.0  0.15224  0.39505  0.48355  1.0000
  O   O38       1.0  0.65225  0.10495  0.01644  1.0000
  O   O39       1.0  0.84776  0.60495  0.51645  1.0000
  O   O40       1.0  0.34775  0.89505  0.98356  1.0000
