data_image0
_chemical_formula_structural       Co4H24C30O20
_chemical_formula_sum              "Co4 H24 C30 O20"
_cell_length_a       7.58661
_cell_length_b       10.6862
_cell_length_c       11.0853
_cell_angle_alpha    99.0525
_cell_angle_beta     111.387
_cell_angle_gamma    97.4161

_space_group_name_H-M_alt    "P 1"
_space_group_IT_number       1

loop_
  _space_group_symop_operation_xyz
  'x, y, z'

loop_
  _atom_site_type_symbol
  _atom_site_label
  _atom_site_symmetry_multiplicity
  _atom_site_fract_x
  _atom_site_fract_y
  _atom_site_fract_z
  _atom_site_occupancy
  Co  Co1       1.0  0.54081  0.36280  0.02852  1.0000
  Co  Co2       1.0  0.45934  0.63639  0.97153  1.0000
  Co  Co3       1.0  0.18418  0.48028  0.12438  1.0000
  Co  Co4       1.0  0.81389  0.51841  0.87492  1.0000
  H   H1        1.0  0.32821  0.98237  0.04897  1.0000
  H   H2        1.0  0.67191  0.01769  0.95100  1.0000
  H   H3        1.0  0.93248  0.77766  0.18284  1.0000
  H   H4        1.0  0.06865  0.22209  0.81763  1.0000
  H   H5        1.0  0.03522  0.19443  0.25098  1.0000
  H   H6        1.0  0.96444  0.80514  0.74916  1.0000
  H   H7        1.0  0.52347  0.01192  0.31065  1.0000
  H   H8        1.0  0.47727  0.98719  0.68983  1.0000
  H   H9        1.0  0.49461  0.18504  0.47805  1.0000
  H   H10       1.0  0.50564  0.81413  0.52216  1.0000
  H   H11       1.0  0.10702  0.33584  0.62313  1.0000
  H   H12       1.0  0.89282  0.66456  0.37659  1.0000
  H   H13       1.0  0.13732  0.16148  0.46298  1.0000
  H   H14       1.0  0.86310  0.83865  0.53716  1.0000
  H   H15       1.0  0.34579  0.19274  0.78612  1.0000
  H   H16       1.0  0.65303  0.80786  0.21382  1.0000
  H   H17       1.0  0.46512  0.31131  0.76109  1.0000
  H   H18       1.0  0.53379  0.68948  0.23935  1.0000
  H   H19       1.0  0.84499  0.46788  0.26351  1.0000
  H   H20       1.0  0.15555  0.53334  0.73554  1.0000
  H   H21       1.0  0.68338  0.38711  0.29675  1.0000
  H   H22       1.0  0.31902  0.61217  0.70267  1.0000
  H   H23       1.0  0.77743  0.57276  0.08363  1.0000
  H   H24       1.0  0.22177  0.43119  0.91591  1.0000
  C   C1        1.0  0.29085  0.22576  0.14051  1.0000
  C   C2        1.0  0.70939  0.77440  0.86051  1.0000
  C   C3        1.0  0.19740  0.10033  0.15486  1.0000
  C   C4        1.0  0.80260  0.89959  0.84532  1.0000
  C   C5        1.0  0.23088  0.98326  0.10074  1.0000
  C   C6        1.0  0.76936  0.01675  0.89933  1.0000
  C   C7        1.0  0.13352  0.86660  0.10947  1.0000
  C   C8        1.0  0.86697  0.13328  0.89054  1.0000
  C   C9        1.0  0.15626  0.74144  0.04177  1.0000
  C   C10       1.0  0.84295  0.25828  0.95704  1.0000
  C   C11       1.0  0.00854  0.86793  0.17620  1.0000
  C   C12       1.0  0.99240  0.13184  0.82418  1.0000
  C   C13       1.0  0.97505  0.98555  0.22846  1.0000
  C   C14       1.0  0.02558  0.01411  0.77193  1.0000
  C   C15       1.0  0.06626  0.10201  0.21691  1.0000
  C   C16       1.0  0.93371  0.89769  0.78324  1.0000
  C   C17       1.0  0.83035  0.07860  0.37427  1.0000
  C   C18       1.0  0.17025  0.92103  0.62606  1.0000
  C   C19       1.0  0.65006  0.08357  0.38003  1.0000
  C   C20       1.0  0.35047  0.91580  0.62030  1.0000
  C   C21       1.0  0.63432  0.18072  0.47270  1.0000
  C   C22       1.0  0.36593  0.81868  0.52743  1.0000
  C   C23       1.0  0.79758  0.27459  0.55945  1.0000
  C   C24       1.0  0.20240  0.72514  0.44044  1.0000
  C   C25       1.0  0.97765  0.26684  0.55335  1.0000
  C   C26       1.0  0.02243  0.73320  0.44656  1.0000
  C   C27       1.0  0.99566  0.16842  0.46318  1.0000
  C   C28       1.0  0.00472  0.83153  0.53698  1.0000
  C   C29       1.0  0.78614  0.37384  0.66443  1.0000
  C   C30       1.0  0.21341  0.62581  0.33533  1.0000
  O   O1        1.0  0.39340  0.22116  0.07179  1.0000
  O   O2        1.0  0.61032  0.77984  0.93159  1.0000
  O   O3        1.0  0.25981  0.32949  0.19749  1.0000
  O   O4        1.0  0.73812  0.67047  0.80224  1.0000
  O   O5        1.0  0.26812  0.74552  0.98076  1.0000
  O   O6        1.0  0.72945  0.25435  0.01690  1.0000
  O   O7        1.0  0.05848  0.63547  0.04789  1.0000
  O   O8        1.0  0.94079  0.36445  0.95149  1.0000
  O   O9        1.0  0.83343  0.97756  0.28076  1.0000
  O   O10       1.0  0.16741  0.02201  0.71979  1.0000
  O   O11       1.0  0.63746  0.36568  0.69339  1.0000
  O   O12       1.0  0.36223  0.63312  0.30660  1.0000
  O   O13       1.0  0.93288  0.46687  0.73382  1.0000
  O   O14       1.0  0.06596  0.53339  0.26562  1.0000
  O   O15       1.0  0.67524  0.52827  0.99775  1.0000
  O   O16       1.0  0.32422  0.47377  0.00237  1.0000
  O   O17       1.0  0.38727  0.28713  0.81158  1.0000
  O   O18       1.0  0.61149  0.71349  0.18871  1.0000
  O   O19       1.0  0.70334  0.44444  0.24086  1.0000
  O   O20       1.0  0.29720  0.55504  0.75824  1.0000
