data_image0
_chemical_formula_structural       Co4H24C40N2O16
_chemical_formula_sum              "Co4 H24 C40 N2 O16"
_cell_length_a       9.6306
_cell_length_b       9.98062
_cell_length_c       11.0147
_cell_angle_alpha    67.1932
_cell_angle_beta     77.3968
_cell_angle_gamma    66.5899

_space_group_name_H-M_alt    "P 1"
_space_group_IT_number       1

loop_
  _space_group_symop_operation_xyz
  'x, y, z'

loop_
  _atom_site_type_symbol
  _atom_site_label
  _atom_site_symmetry_multiplicity
  _atom_site_fract_x
  _atom_site_fract_y
  _atom_site_fract_z
  _atom_site_occupancy
  Co  Co1       1.0  0.12914  0.04833  0.89458  1.0000
  Co  Co2       1.0  0.87581  0.94879  0.09828  1.0000
  Co  Co3       1.0  0.91274  0.03816  0.74921  1.0000
  Co  Co4       1.0  0.08262  0.96793  0.24753  1.0000
  H   H1        1.0  0.08657  0.51768  0.89115  1.0000
  H   H2        1.0  0.90799  0.48122  0.10828  1.0000
  H   H3        1.0  0.54043  0.17910  0.90987  1.0000
  H   H4        1.0  0.45868  0.82572  0.08979  1.0000
  H   H5        1.0  0.47298  0.65878  0.82721  1.0000
  H   H6        1.0  0.51661  0.34693  0.17719  1.0000
  H   H7        1.0  0.88426  0.49062  0.84420  1.0000
  H   H8        1.0  0.10961  0.51509  0.16163  1.0000
  H   H9        1.0  0.98956  0.66375  0.64527  1.0000
  H   H10       1.0  0.01401  0.33312  0.35978  1.0000
  H   H11       1.0  0.70045  0.65529  0.40265  1.0000
  H   H12       1.0  0.30679  0.34082  0.59991  1.0000
  H   H13       1.0  0.59281  0.48555  0.60178  1.0000
  H   H14       1.0  0.40470  0.51958  0.40122  1.0000
  H   H15       1.0  0.85041  0.13053  0.48015  1.0000
  H   H16       1.0  0.14848  0.86943  0.51729  1.0000
  H   H17       1.0  0.68197  0.10250  0.35867  1.0000
  H   H18       1.0  0.31899  0.89275  0.64023  1.0000
  H   H19       1.0  0.44672  0.92984  0.73520  1.0000
  H   H20       1.0  0.55398  0.06844  0.26428  1.0000
  H   H21       1.0  0.62653  0.95850  0.84081  1.0000
  H   H22       1.0  0.37311  0.04282  0.15763  1.0000
  H   H23       1.0  0.83032  0.18988  0.89911  1.0000
  H   H24       1.0  0.17559  0.82193  0.09328  1.0000
  C   C1        1.0  0.16899  0.76937  0.83677  1.0000
  C   C2        1.0  0.82116  0.23310  0.16452  1.0000
  C   C3        1.0  0.26884  0.60474  0.85822  1.0000
  C   C4        1.0  0.72290  0.39724  0.14413  1.0000
  C   C5        1.0  0.20882  0.48830  0.88524  1.0000
  C   C6        1.0  0.78560  0.51154  0.11467  1.0000
  C   C7        1.0  0.30682  0.33493  0.90543  1.0000
  C   C8        1.0  0.69052  0.66566  0.09292  1.0000
  C   C9        1.0  0.46500  0.29851  0.89471  1.0000
  C   C10       1.0  0.53206  0.70555  0.10578  1.0000
  C   C11       1.0  0.52209  0.41704  0.86240  1.0000
  C   C12       1.0  0.47214  0.58853  0.14026  1.0000
  C   C13       1.0  0.42586  0.56874  0.84807  1.0000
  C   C14       1.0  0.56557  0.43586  0.15512  1.0000
  C   C15       1.0  0.25008  0.20793  0.92461  1.0000
  C   C16       1.0  0.75992  0.78395  0.06966  1.0000
  C   C17       1.0  0.73210  0.48248  0.73316  1.0000
  C   C18       1.0  0.26398  0.52280  0.27128  1.0000
  C   C19       1.0  0.84436  0.52948  0.74700  1.0000
  C   C20       1.0  0.15326  0.47370  0.25773  1.0000
  C   C21       1.0  0.90358  0.62391  0.63568  1.0000
  C   C22       1.0  0.09921  0.37429  0.36883  1.0000
  C   C23       1.0  0.85075  0.67030  0.51172  1.0000
  C   C24       1.0  0.15577  0.32478  0.49193  1.0000
  C   C25       1.0  0.73884  0.61971  0.50002  1.0000
  C   C26       1.0  0.26576  0.37787  0.50337  1.0000
  C   C27       1.0  0.67902  0.52589  0.61020  1.0000
  C   C28       1.0  0.32005  0.47697  0.39344  1.0000
  C   C29       1.0  0.90775  0.77378  0.39075  1.0000
  C   C30       1.0  0.10080  0.21728  0.61071  1.0000
  C   C31       1.0  0.76081  0.08397  0.53247  1.0000
  C   C32       1.0  0.23863  0.91539  0.46553  1.0000
  C   C33       1.0  0.66498  0.06909  0.46545  1.0000
  C   C34       1.0  0.33564  0.92771  0.53333  1.0000
  C   C35       1.0  0.55047  0.00839  0.53481  1.0000
  C   C36       1.0  0.45038  0.98843  0.46456  1.0000
  C   C37       1.0  0.53648  0.97006  0.67290  1.0000
  C   C38       1.0  0.46416  0.02801  0.32632  1.0000
  C   C39       1.0  0.63699  0.98694  0.73402  1.0000
  C   C40       1.0  0.36273  0.01321  0.26457  1.0000
  N   N1        1.0  0.74990  0.04097  0.66591  1.0000
  N   N2        1.0  0.24895  0.96038  0.33199  1.0000
  O   O1        1.0  0.67874  0.38365  0.84583  1.0000
  O   O2        1.0  0.31502  0.62460  0.15929  1.0000
  O   O3        1.0  0.34357  0.07402  0.93041  1.0000
  O   O4        1.0  0.67509  0.91871  0.07419  1.0000
  O   O5        1.0  0.10595  0.23748  0.92673  1.0000
  O   O6        1.0  0.90427  0.74638  0.05380  1.0000
  O   O7        1.0  0.21886  0.84871  0.87284  1.0000
  O   O8        1.0  0.76993  0.15208  0.13364  1.0000
  O   O9        1.0  0.04667  0.82103  0.78079  1.0000
  O   O10       1.0  0.94754  0.18308  0.21552  1.0000
  O   O11       1.0  0.01587  0.81506  0.39787  1.0000
  O   O12       1.0  0.98750  0.18537  0.60205  1.0000
  O   O13       1.0  0.84424  0.81681  0.28596  1.0000
  O   O14       1.0  0.17259  0.16226  0.71403  1.0000
  O   O15       1.0  0.89572  0.08265  0.90603  1.0000
  O   O16       1.0  0.10488  0.92830  0.08462  1.0000
