data_image0
_chemical_formula_structural       Na4H12C20N8O12
_chemical_formula_sum              "Na4 H12 C20 N8 O12"
_cell_length_a       4.46717
_cell_length_b       11.5373
_cell_length_c       11.7163
_cell_angle_alpha    89.9972
_cell_angle_beta     89.9997
_cell_angle_gamma    98.2709

_space_group_name_H-M_alt    "P 1"
_space_group_IT_number       1

loop_
  _space_group_symop_operation_xyz
  'x, y, z'

loop_
  _atom_site_type_symbol
  _atom_site_label
  _atom_site_symmetry_multiplicity
  _atom_site_fract_x
  _atom_site_fract_y
  _atom_site_fract_z
  _atom_site_occupancy
  Na  Na1       1.0  0.32953  0.62427  0.47540  1.0000
  Na  Na2       1.0  0.67064  0.87567  0.97518  1.0000
  Na  Na3       1.0  0.67056  0.37563  0.52474  1.0000
  Na  Na4       1.0  0.32951  0.12437  0.02465  1.0000
  H   H1        1.0  0.10958  0.46422  0.68879  1.0000
  H   H2        1.0  0.89010  0.03577  0.18883  1.0000
  H   H3        1.0  0.89011  0.53567  0.31124  1.0000
  H   H4        1.0  0.10998  0.96426  0.81119  1.0000
  H   H5        1.0  0.26794  0.49804  0.88896  1.0000
  H   H6        1.0  0.73153  0.00187  0.38892  1.0000
  H   H7        1.0  0.73166  0.50181  0.11098  1.0000
  H   H8        1.0  0.26849  0.99816  0.61106  1.0000
  H   H9        1.0  0.08697  0.66550  0.99761  1.0000
  H   H10       1.0  0.91317  0.83453  0.49759  1.0000
  H   H11       1.0  0.91337  0.33452  0.00236  1.0000
  H   H12       1.0  0.08681  0.16555  0.50243  1.0000
  C   C1        1.0  0.75360  0.69755  0.75261  1.0000
  C   C2        1.0  0.24601  0.80232  0.25253  1.0000
  C   C3        1.0  0.24633  0.30242  0.24742  1.0000
  C   C4        1.0  0.75381  0.19764  0.74746  1.0000
  C   C5        1.0  0.83923  0.60605  0.68002  1.0000
  C   C6        1.0  0.16058  0.89393  0.18002  1.0000
  C   C7        1.0  0.16088  0.39400  0.31994  1.0000
  C   C8        1.0  0.83920  0.10600  0.81994  1.0000
  C   C9        1.0  0.03308  0.53510  0.73714  1.0000
  C   C10       1.0  0.96725  0.96503  0.23721  1.0000
  C   C11       1.0  0.96727  0.46500  0.26276  1.0000
  C   C12       1.0  0.03279  0.03498  0.76279  1.0000
  C   C13       1.0  0.12113  0.55381  0.84852  1.0000
  C   C14       1.0  0.87938  0.94638  0.34863  1.0000
  C   C15       1.0  0.87920  0.44629  0.15138  1.0000
  C   C16       1.0  0.12079  0.05367  0.65138  1.0000
  C   C17       1.0  0.01895  0.64641  0.90946  1.0000
  C   C18       1.0  0.98114  0.85360  0.40945  1.0000
  C   C19       1.0  0.98098  0.35352  0.09056  1.0000
  C   C20       1.0  0.01881  0.14640  0.59055  1.0000
  N   N1        1.0  0.55799  0.77810  0.71427  1.0000
  N   N2        1.0  0.44180  0.72182  0.21422  1.0000
  N   N3        1.0  0.44208  0.22193  0.28579  1.0000
  N   N4        1.0  0.55801  0.27815  0.78577  1.0000
  N   N5        1.0  0.84213  0.71532  0.86187  1.0000
  N   N6        1.0  0.15744  0.78456  0.36182  1.0000
  N   N7        1.0  0.15758  0.28457  0.13819  1.0000
  N   N8        1.0  0.84236  0.21541  0.63818  1.0000
  O   O1        1.0  0.45939  0.77238  0.61371  1.0000
  O   O2        1.0  0.54077  0.72765  0.11370  1.0000
  O   O3        1.0  0.54068  0.22770  0.38636  1.0000
  O   O4        1.0  0.45928  0.27236  0.88632  1.0000
  O   O5        1.0  0.76182  0.58412  0.57556  1.0000
  O   O6        1.0  0.23813  0.91596  0.07559  1.0000
  O   O7        1.0  0.23810  0.41590  0.42443  1.0000
  O   O8        1.0  0.76191  0.08405  0.92442  1.0000
  O   O9        1.0  0.48865  0.85397  0.78220  1.0000
  O   O10       1.0  0.51159  0.64608  0.28222  1.0000
  O   O11       1.0  0.51153  0.14605  0.21788  1.0000
  O   O12       1.0  0.48841  0.35396  0.71783  1.0000
