data_image0
_chemical_formula_structural       Co2H36C36N8O8
_chemical_formula_sum              "Co2 H36 C36 N8 O8"
_cell_length_a       7.63491
_cell_length_b       8.0814
_cell_length_c       14.6517
_cell_angle_alpha    101.428
_cell_angle_beta     90.0007
_cell_angle_gamma    90.0011

_space_group_name_H-M_alt    "P 1"
_space_group_IT_number       1

loop_
  _space_group_symop_operation_xyz
  'x, y, z'

loop_
  _atom_site_type_symbol
  _atom_site_label
  _atom_site_symmetry_multiplicity
  _atom_site_fract_x
  _atom_site_fract_y
  _atom_site_fract_z
  _atom_site_occupancy
  Co  Co1       1.0  0.59025  0.75001  0.75000  1.0000
  Co  Co2       1.0  0.40974  0.24999  0.25000  1.0000
  H   H1        1.0  0.96165  0.02648  0.59846  1.0000
  H   H2        1.0  0.96163  0.47357  0.90155  1.0000
  H   H3        1.0  0.03833  0.97353  0.40153  1.0000
  H   H4        1.0  0.03837  0.52643  0.09844  1.0000
  H   H5        1.0  0.84089  0.19928  0.65843  1.0000
  H   H6        1.0  0.84089  0.30075  0.84158  1.0000
  H   H7        1.0  0.15909  0.80073  0.34156  1.0000
  H   H8        1.0  0.15911  0.69925  0.15841  1.0000
  H   H9        1.0  0.04542  0.36806  0.55864  1.0000
  H   H10       1.0  0.04541  0.13193  0.94136  1.0000
  H   H11       1.0  0.95460  0.63191  0.44136  1.0000
  H   H12       1.0  0.95460  0.86809  0.05864  1.0000
  H   H13       1.0  0.11640  0.36421  0.44088  1.0000
  H   H14       1.0  0.11641  0.13579  0.05912  1.0000
  H   H15       1.0  0.88361  0.63576  0.55913  1.0000
  H   H16       1.0  0.88360  0.86423  0.94088  1.0000
  H   H17       1.0  0.23494  0.51323  0.68509  1.0000
  H   H18       1.0  0.23492  0.98676  0.81491  1.0000
  H   H19       1.0  0.76506  0.48677  0.31491  1.0000
  H   H20       1.0  0.76507  0.01322  0.18509  1.0000
  H   H21       1.0  0.56522  0.79869  0.54383  1.0000
  H   H22       1.0  0.56521  0.70131  0.95617  1.0000
  H   H23       1.0  0.43480  0.20127  0.45616  1.0000
  H   H24       1.0  0.43481  0.29872  0.04385  1.0000
  H   H25       1.0  0.26392  0.02283  0.60903  1.0000
  H   H26       1.0  0.26393  0.47722  0.89100  1.0000
  H   H27       1.0  0.73607  0.97716  0.39096  1.0000
  H   H28       1.0  0.73607  0.52278  0.10899  1.0000
  H   H29       1.0  0.54502  0.13567  0.67775  1.0000
  H   H30       1.0  0.54503  0.36438  0.82229  1.0000
  H   H31       1.0  0.45496  0.86432  0.32225  1.0000
  H   H32       1.0  0.45497  0.63562  0.17770  1.0000
  H   H33       1.0  0.30739  0.63691  0.42088  1.0000
  H   H34       1.0  0.30737  0.86308  0.07912  1.0000
  H   H35       1.0  0.69263  0.36304  0.57912  1.0000
  H   H36       1.0  0.69264  0.13697  0.92089  1.0000
  C   C1        1.0  0.84543  0.98992  0.72640  1.0000
  C   C2        1.0  0.84544  0.51011  0.77359  1.0000
  C   C3        1.0  0.15456  0.01009  0.27359  1.0000
  C   C4        1.0  0.15456  0.48989  0.22639  1.0000
  C   C5        1.0  0.10296  0.18414  0.71018  1.0000
  C   C6        1.0  0.10296  0.31591  0.78985  1.0000
  C   C7        1.0  0.89703  0.81587  0.28981  1.0000
  C   C8        1.0  0.89703  0.68410  0.21015  1.0000
  C   C9        1.0  0.93688  0.10255  0.66816  1.0000
  C   C10       1.0  0.93688  0.39750  0.83187  1.0000
  C   C11       1.0  0.06311  0.89746  0.33184  1.0000
  C   C12       1.0  0.06312  0.60251  0.16813  1.0000
  C   C13       1.0  0.07847  0.44477  0.50731  1.0000
  C   C14       1.0  0.07847  0.05523  0.99269  1.0000
  C   C15       1.0  0.92155  0.55520  0.49269  1.0000
  C   C16       1.0  0.92154  0.94480  0.00731  1.0000
  C   C17       1.0  0.29281  0.57091  0.63147  1.0000
  C   C18       1.0  0.29279  0.92909  0.86853  1.0000
  C   C19       1.0  0.70720  0.42908  0.36853  1.0000
  C   C20       1.0  0.70721  0.07092  0.13148  1.0000
  C   C21       1.0  0.45782  0.71723  0.55469  1.0000
  C   C22       1.0  0.45781  0.78277  0.94530  1.0000
  C   C23       1.0  0.54219  0.28274  0.44530  1.0000
  C   C24       1.0  0.54220  0.21725  0.05471  1.0000
  C   C25       1.0  0.26361  0.12399  0.67078  1.0000
  C   C26       1.0  0.26361  0.37607  0.82926  1.0000
  C   C27       1.0  0.73638  0.87601  0.32922  1.0000
  C   C28       1.0  0.73639  0.62394  0.17074  1.0000
  C   C29       1.0  0.42291  0.18762  0.70966  1.0000
  C   C30       1.0  0.42291  0.31243  0.79038  1.0000
  C   C31       1.0  0.57708  0.81237  0.29033  1.0000
  C   C32       1.0  0.57708  0.68756  0.20962  1.0000
  C   C33       1.0  0.33119  0.64168  0.49420  1.0000
  C   C34       1.0  0.33117  0.85831  0.00580  1.0000
  C   C35       1.0  0.66883  0.35828  0.50580  1.0000
  C   C36       1.0  0.66883  0.14172  0.99421  1.0000
  N   N1        1.0  0.43328  0.67157  0.64035  1.0000
  N   N2        1.0  0.43326  0.82843  0.85964  1.0000
  N   N3        1.0  0.56674  0.32842  0.35965  1.0000
  N   N4        1.0  0.56674  0.17157  0.14036  1.0000
  N   N5        1.0  0.22824  0.54940  0.54376  1.0000
  N   N6        1.0  0.22823  0.95059  0.95624  1.0000
  N   N7        1.0  0.77177  0.45058  0.45624  1.0000
  N   N8        1.0  0.77177  0.04942  0.04377  1.0000
  O   O1        1.0  0.72619  0.89159  0.68178  1.0000
  O   O2        1.0  0.72619  0.60843  0.81822  1.0000
  O   O3        1.0  0.27381  0.10841  0.31822  1.0000
  O   O4        1.0  0.27380  0.39158  0.18179  1.0000
  O   O5        1.0  0.88080  0.99959  0.81032  1.0000
  O   O6        1.0  0.88082  0.50045  0.68970  1.0000
  O   O7        1.0  0.11919  0.00043  0.18968  1.0000
  O   O8        1.0  0.11915  0.49957  0.31031  1.0000
