data_image0
_chemical_formula_structural       Cd2H36C36N8O8
_chemical_formula_sum              "Cd2 H36 C36 N8 O8"
_cell_length_a       7.01007
_cell_length_b       9.67925
_cell_length_c       13.3536
_cell_angle_alpha    88.3921
_cell_angle_beta     84.0915
_cell_angle_gamma    86.1768

_space_group_name_H-M_alt    "P 1"
_space_group_IT_number       1

loop_
  _space_group_symop_operation_xyz
  'x, y, z'

loop_
  _atom_site_type_symbol
  _atom_site_label
  _atom_site_symmetry_multiplicity
  _atom_site_fract_x
  _atom_site_fract_y
  _atom_site_fract_z
  _atom_site_occupancy
  Cd  Cd1       1.0  0.35220  0.74455  0.26163  1.0000
  Cd  Cd2       1.0  0.64780  0.25545  0.73837  1.0000
  H   H1        1.0  0.70844  0.88402  0.89507  1.0000
  H   H2        1.0  0.29156  0.11599  0.10493  1.0000
  H   H3        1.0  0.66429  0.63738  0.61595  1.0000
  H   H4        1.0  0.33570  0.36262  0.38405  1.0000
  H   H5        1.0  0.39775  0.77028  0.01183  1.0000
  H   H6        1.0  0.60225  0.22972  0.98817  1.0000
  H   H7        1.0  0.86303  0.39673  0.55241  1.0000
  H   H8        1.0  0.13697  0.60327  0.44759  1.0000
  H   H9        1.0  0.94670  0.39957  0.42154  1.0000
  H   H10       1.0  0.05330  0.60042  0.57846  1.0000
  H   H11       1.0  0.40092  0.79674  0.50877  1.0000
  H   H12       1.0  0.59908  0.20325  0.49123  1.0000
  H   H13       1.0  0.75684  0.53892  0.30799  1.0000
  H   H14       1.0  0.24316  0.46107  0.69201  1.0000
  H   H15       1.0  0.11233  0.25498  0.26605  1.0000
  H   H16       1.0  0.88767  0.74502  0.73395  1.0000
  H   H17       1.0  0.55896  0.08251  0.31606  1.0000
  H   H18       1.0  0.44105  0.91749  0.68394  1.0000
  H   H19       1.0  0.84107  0.82444  0.19566  1.0000
  H   H20       1.0  0.15892  0.17556  0.80435  1.0000
  H   H21       1.0  0.63840  0.43483  0.11563  1.0000
  H   H22       1.0  0.36161  0.56517  0.88437  1.0000
  H   H23       1.0  0.80914  0.99369  0.41147  1.0000
  H   H24       1.0  0.19087  0.00632  0.58854  1.0000
  H   H25       1.0  0.98228  0.10857  0.43425  1.0000
  H   H26       1.0  0.01772  0.89144  0.56575  1.0000
  H   H27       1.0  0.42746  0.26272  0.20170  1.0000
  H   H28       1.0  0.57255  0.73728  0.79830  1.0000
  H   H29       1.0  0.93407  0.52322  0.07851  1.0000
  H   H30       1.0  0.06593  0.47677  0.92149  1.0000
  H   H31       1.0  0.12843  0.39815  0.07638  1.0000
  H   H32       1.0  0.87158  0.60184  0.92362  1.0000
  H   H33       1.0  0.10227  0.89705  0.07071  1.0000
  H   H34       1.0  0.89772  0.10295  0.92929  1.0000
  H   H35       1.0  0.07971  0.87068  0.94088  1.0000
  H   H36       1.0  0.92028  0.12932  0.05912  1.0000
  C   C1        1.0  0.68685  0.85162  0.97370  1.0000
  C   C2        1.0  0.31315  0.14839  0.02630  1.0000
  C   C3        1.0  0.13288  0.54909  0.18564  1.0000
  C   C4        1.0  0.86711  0.45093  0.81435  1.0000
  C   C5        1.0  0.08467  0.95141  0.33084  1.0000
  C   C6        1.0  0.91534  0.04858  0.66917  1.0000
  C   C7        1.0  0.89122  0.35515  0.18392  1.0000
  C   C8        1.0  0.10879  0.64485  0.81608  1.0000
  C   C9        1.0  0.84512  0.15767  0.29990  1.0000
  C   C10       1.0  0.15489  0.84233  0.70010  1.0000
  C   C11       1.0  0.64453  0.64566  0.53651  1.0000
  C   C12       1.0  0.35546  0.35434  0.46349  1.0000
  C   C13       1.0  0.53506  0.79870  0.03237  1.0000
  C   C14       1.0  0.46494  0.20130  0.96763  1.0000
  C   C15       1.0  0.91197  0.46314  0.48844  1.0000
  C   C16       1.0  0.08803  0.53686  0.51156  1.0000
  C   C17       1.0  0.51660  0.72263  0.48267  1.0000
  C   C18       1.0  0.48339  0.27737  0.51733  1.0000
  C   C19       1.0  0.69611  0.59224  0.37537  1.0000
  C   C20       1.0  0.30389  0.40776  0.62463  1.0000
  C   C21       1.0  0.96243  0.25596  0.25127  1.0000
  C   C22       1.0  0.03758  0.74404  0.74873  1.0000
  C   C23       1.0  0.65251  0.15908  0.27984  1.0000
  C   C24       1.0  0.34750  0.84092  0.72015  1.0000
  C   C25       1.0  0.75784  0.82502  0.13155  1.0000
  C   C26       1.0  0.24216  0.17498  0.86845  1.0000
  C   C27       1.0  0.69667  0.35692  0.16696  1.0000
  C   C28       1.0  0.30334  0.64308  0.83304  1.0000
  C   C29       1.0  0.92380  0.05420  0.37363  1.0000
  C   C30       1.0  0.07621  0.94581  0.62637  1.0000
  C   C31       1.0  0.57843  0.25948  0.21477  1.0000
  C   C32       1.0  0.42158  0.74051  0.78523  1.0000
  C   C33       1.0  0.01845  0.45596  0.12703  1.0000
  C   C34       1.0  0.98155  0.54403  0.87297  1.0000
  C   C35       1.0  0.01264  0.92184  0.00933  1.0000
  C   C36       1.0  0.98735  0.07816  0.99067  1.0000
  N   N1        1.0  0.75646  0.56359  0.46719  1.0000
  N   N2        1.0  0.24354  0.43641  0.53282  1.0000
  N   N3        1.0  0.55006  0.68812  0.38222  1.0000
  N   N4        1.0  0.44993  0.31187  0.61778  1.0000
  N   N5        1.0  0.58089  0.78301  0.13058  1.0000
  N   N6        1.0  0.41910  0.21699  0.86942  1.0000
  N   N7        1.0  0.82690  0.86636  0.03769  1.0000
  N   N8        1.0  0.17309  0.13364  0.96231  1.0000
  O   O1        1.0  0.19544  0.50955  0.26799  1.0000
  O   O2        1.0  0.80457  0.49046  0.73201  1.0000
  O   O3        1.0  0.16642  0.66666  0.14321  1.0000
  O   O4        1.0  0.83357  0.33335  0.85679  1.0000
  O   O5        1.0  0.10493  0.83678  0.37984  1.0000
  O   O6        1.0  0.89507  0.16322  0.62017  1.0000
  O   O7        1.0  0.19230  0.98052  0.25151  1.0000
  O   O8        1.0  0.80770  0.01947  0.74849  1.0000
