data_image0
_chemical_formula_structural       Cu2H34C40N6O8
_chemical_formula_sum              "Cu2 H34 C40 N6 O8"
_cell_length_a       8.23129
_cell_length_b       8.01245
_cell_length_c       14.2835
_cell_angle_alpha    90.6152
_cell_angle_beta     80.4261
_cell_angle_gamma    77.3209

_space_group_name_H-M_alt    "P 1"
_space_group_IT_number       1

loop_
  _space_group_symop_operation_xyz
  'x, y, z'

loop_
  _atom_site_type_symbol
  _atom_site_label
  _atom_site_symmetry_multiplicity
  _atom_site_fract_x
  _atom_site_fract_y
  _atom_site_fract_z
  _atom_site_occupancy
  Cu  Cu1       1.0  1.00000  0.50000  1.00000  1.0000
  Cu  Cu2       1.0  0.50000  0.50000  0.50000  1.0000
  H   H1        1.0  0.27715  0.20891  0.91661  1.0000
  H   H2        1.0  0.72285  0.79109  0.08339  1.0000
  H   H3        1.0  0.02119  0.67910  0.81752  1.0000
  H   H4        1.0  0.97882  0.32090  0.18248  1.0000
  H   H5        1.0  0.10900  0.93220  0.75376  1.0000
  H   H6        1.0  0.89101  0.06779  0.24623  1.0000
  H   H7        1.0  0.27398  0.00623  0.02136  1.0000
  H   H8        1.0  0.72601  0.99378  0.97864  1.0000
  H   H9        1.0  0.17173  0.74899  0.07541  1.0000
  H   H10       1.0  0.82825  0.25102  0.92460  1.0000
  H   H11       1.0  0.40289  0.58592  0.70158  1.0000
  H   H12       1.0  0.59711  0.41408  0.29841  1.0000
  H   H13       1.0  0.31073  0.44452  0.84921  1.0000
  H   H14       1.0  0.68927  0.55549  0.15079  1.0000
  H   H15       1.0  0.29422  0.01077  0.66999  1.0000
  H   H16       1.0  0.70581  0.98921  0.33002  1.0000
  H   H17       1.0  0.38229  0.17211  0.53185  1.0000
  H   H18       1.0  0.61773  0.82788  0.46815  1.0000
  H   H19       1.0  0.01681  0.16700  0.43174  1.0000
  H   H20       1.0  0.98319  0.83300  0.56826  1.0000
  H   H21       1.0  0.10924  0.85905  0.37497  1.0000
  H   H22       1.0  0.89075  0.14096  0.62504  1.0000
  H   H23       1.0  0.31184  0.77809  0.22228  1.0000
  H   H24       1.0  0.68814  0.22191  0.77772  1.0000
  H   H25       1.0  0.42849  0.00157  0.13304  1.0000
  H   H26       1.0  0.57151  0.99842  0.86696  1.0000
  H   H27       1.0  0.99270  0.45423  0.40377  1.0000
  H   H28       1.0  0.00730  0.54577  0.59623  1.0000
  H   H29       1.0  0.09847  0.53175  0.30174  1.0000
  H   H30       1.0  0.90153  0.46825  0.69826  1.0000
  H   H31       1.0  0.50328  0.28773  0.14891  1.0000
  H   H32       1.0  0.49671  0.71227  0.85110  1.0000
  H   H33       1.0  0.35084  0.45901  0.21553  1.0000
  H   H34       1.0  0.64915  0.54099  0.78447  1.0000
  C   C1        1.0  0.07882  0.75413  0.86062  1.0000
  C   C2        1.0  0.92118  0.24587  0.13938  1.0000
  C   C3        1.0  0.13243  0.89624  0.82420  1.0000
  C   C4        1.0  0.86757  0.10376  0.17580  1.0000
  C   C5        1.0  0.20313  0.99399  0.88200  1.0000
  C   C6        1.0  0.79687  0.00601  0.11800  1.0000
  C   C7        1.0  0.21880  0.93653  0.97393  1.0000
  C   C8        1.0  0.78119  0.06348  0.02607  1.0000
  C   C9        1.0  0.16205  0.79380  0.00453  1.0000
  C   C10       1.0  0.83793  0.20621  0.99547  1.0000
  C   C11       1.0  0.37433  0.45988  0.69842  1.0000
  C   C12       1.0  0.62567  0.54012  0.30158  1.0000
  C   C13       1.0  0.32246  0.38141  0.77974  1.0000
  C   C14       1.0  0.67754  0.61860  0.22026  1.0000
  C   C15       1.0  0.29032  0.21619  0.77362  1.0000
  C   C16       1.0  0.70969  0.78382  0.22638  1.0000
  C   C17       1.0  0.31083  0.13959  0.68200  1.0000
  C   C18       1.0  0.68918  0.86040  0.31801  1.0000
  C   C19       1.0  0.36423  0.22792  0.60380  1.0000
  C   C20       1.0  0.63579  0.77206  0.39620  1.0000
  C   C21       1.0  0.29137  0.20932  0.23179  1.0000
  C   C22       1.0  0.70862  0.79067  0.76821  1.0000
  C   C23       1.0  0.17252  0.25661  0.31616  1.0000
  C   C24       1.0  0.82747  0.74339  0.68384  1.0000
  C   C25       1.0  0.10760  0.12869  0.36604  1.0000
  C   C26       1.0  0.89239  0.87131  0.63397  1.0000
  C   C27       1.0  0.15681  0.95715  0.33351  1.0000
  C   C28       1.0  0.84318  0.04286  0.66650  1.0000
  C   C29       1.0  0.27141  0.91157  0.24870  1.0000
  C   C30       1.0  0.72857  0.08842  0.75130  1.0000
  C   C31       1.0  0.33747  0.03716  0.19870  1.0000
  C   C32       1.0  0.66252  0.96283  0.80130  1.0000
  C   C33       1.0  0.11595  0.43797  0.35706  1.0000
  C   C34       1.0  0.88405  0.56204  0.64294  1.0000
  C   C35       1.0  0.23439  0.49284  0.41743  1.0000
  C   C36       1.0  0.76562  0.50716  0.58257  1.0000
  C   C37       1.0  0.36776  0.33928  0.17365  1.0000
  C   C38       1.0  0.63223  0.66071  0.82636  1.0000
  C   C39       1.0  0.28288  0.37431  0.08642  1.0000
  C   C40       1.0  0.71712  0.62569  0.91358  1.0000
  N   N1        1.0  0.09096  0.70180  0.94935  1.0000
  N   N2        1.0  0.90904  0.29821  0.05065  1.0000
  N   N3        1.0  0.25121  0.14406  0.85927  1.0000
  N   N4        1.0  0.74878  0.85595  0.14073  1.0000
  N   N5        1.0  0.39756  0.38453  0.61077  1.0000
  N   N6        1.0  0.60245  0.61546  0.38923  1.0000
  O   O1        1.0  0.18801  0.63218  0.46502  1.0000
  O   O2        1.0  0.81199  0.36782  0.53497  1.0000
  O   O3        1.0  0.34986  0.29378  0.00876  1.0000
  O   O4        1.0  0.65014  0.70622  0.99124  1.0000
  O   O5        1.0  0.13848  0.48321  0.10172  1.0000
  O   O6        1.0  0.86152  0.51679  0.89828  1.0000
  O   O7        1.0  0.38006  0.38863  0.41567  1.0000
  O   O8        1.0  0.61995  0.61136  0.58432  1.0000
