data_image0
_chemical_formula_structural       Zn4B16H48C12N8O32
_chemical_formula_sum              "Zn4 B16 H48 C12 N8 O32"
_cell_length_a       7.98002
_cell_length_b       9.31232
_cell_length_c       14.2277
_cell_angle_alpha    105.216
_cell_angle_beta     89.9998
_cell_angle_gamma    90.0004

_space_group_name_H-M_alt    "P 1"
_space_group_IT_number       1

loop_
  _space_group_symop_operation_xyz
  'x, y, z'

loop_
  _atom_site_type_symbol
  _atom_site_label
  _atom_site_symmetry_multiplicity
  _atom_site_fract_x
  _atom_site_fract_y
  _atom_site_fract_z
  _atom_site_occupancy
  Zn  Zn1       1.0  0.71955  0.04665  0.76917  1.0000
  Zn  Zn2       1.0  0.21955  0.45335  0.73084  1.0000
  Zn  Zn3       1.0  0.28045  0.95336  0.23083  1.0000
  Zn  Zn4       1.0  0.78045  0.54665  0.26917  1.0000
  B   B1        1.0  0.38195  0.04371  0.86839  1.0000
  B   B2        1.0  0.88195  0.45628  0.63161  1.0000
  B   B3        1.0  0.61804  0.95629  0.13161  1.0000
  B   B4        1.0  0.11804  0.54371  0.36839  1.0000
  B   B5        1.0  0.18882  0.14362  0.76346  1.0000
  B   B6        1.0  0.68881  0.35638  0.73654  1.0000
  B   B7        1.0  0.81119  0.85638  0.23654  1.0000
  B   B8        1.0  0.31119  0.64362  0.26345  1.0000
  B   B9        1.0  0.44584  0.28501  0.83569  1.0000
  B   B10       1.0  0.94584  0.21499  0.66430  1.0000
  B   B11       1.0  0.55416  0.71499  0.16430  1.0000
  B   B12       1.0  0.05417  0.78501  0.33569  1.0000
  B   B13       1.0  0.36481  0.27619  0.00068  1.0000
  B   B14       1.0  0.86481  0.22382  0.49932  1.0000
  B   B15       1.0  0.63518  0.72382  0.99932  1.0000
  B   B16       1.0  0.13518  0.77619  0.50068  1.0000
  H   H1        1.0  0.51575  0.88617  0.90680  1.0000
  H   H2        1.0  0.01575  0.61383  0.59320  1.0000
  H   H3        1.0  0.48424  0.11383  0.09320  1.0000
  H   H4        1.0  0.98424  0.38618  0.40680  1.0000
  H   H5        1.0  0.37109  0.44372  0.12332  1.0000
  H   H6        1.0  0.87108  0.05628  0.37668  1.0000
  H   H7        1.0  0.62891  0.55629  0.87667  1.0000
  H   H8        1.0  0.12892  0.94372  0.62332  1.0000
  H   H9        1.0  0.65832  0.83094  0.43754  1.0000
  H   H10       1.0  0.15832  0.66906  0.06247  1.0000
  H   H11       1.0  0.34169  0.16904  0.56247  1.0000
  H   H12       1.0  0.84168  0.33095  0.93753  1.0000
  H   H13       1.0  0.67421  0.40828  0.38578  1.0000
  H   H14       1.0  0.17421  0.09172  0.11421  1.0000
  H   H15       1.0  0.32579  0.59171  0.61422  1.0000
  H   H16       1.0  0.82580  0.90829  0.88579  1.0000
  H   H17       1.0  0.60857  0.57372  0.53170  1.0000
  H   H18       1.0  0.10856  0.92627  0.96830  1.0000
  H   H19       1.0  0.39142  0.42627  0.46830  1.0000
  H   H20       1.0  0.89144  0.07374  0.03170  1.0000
  H   H21       1.0  0.51756  0.97331  0.58932  1.0000
  H   H22       1.0  0.01757  0.52668  0.91069  1.0000
  H   H23       1.0  0.48244  0.02669  0.41069  1.0000
  H   H24       1.0  0.98244  0.47332  0.08931  1.0000
  H   H25       1.0  0.51428  0.50446  0.35786  1.0000
  H   H26       1.0  0.01429  0.99555  0.14214  1.0000
  H   H27       1.0  0.48571  0.49554  0.64215  1.0000
  H   H28       1.0  0.98572  0.00447  0.85785  1.0000
  H   H29       1.0  0.45717  0.75858  0.45155  1.0000
  H   H30       1.0  0.95716  0.74142  0.04846  1.0000
  H   H31       1.0  0.54284  0.24142  0.54845  1.0000
  H   H32       1.0  0.04284  0.25859  0.95154  1.0000
  H   H33       1.0  0.49078  0.81233  0.62970  1.0000
  H   H34       1.0  0.99078  0.68765  0.87030  1.0000
  H   H35       1.0  0.50923  0.18766  0.37030  1.0000
  H   H36       1.0  0.00923  0.31235  0.12970  1.0000
  H   H37       1.0  0.79670  0.62948  0.48910  1.0000
  H   H38       1.0  0.29669  0.87053  0.01089  1.0000
  H   H39       1.0  0.20330  0.37051  0.51090  1.0000
  H   H40       1.0  0.70331  0.12948  0.98911  1.0000
  H   H41       1.0  0.79269  0.79585  0.64509  1.0000
  H   H42       1.0  0.29270  0.70414  0.85492  1.0000
  H   H43       1.0  0.20731  0.20415  0.35492  1.0000
  H   H44       1.0  0.70731  0.29585  0.14508  1.0000
  H   H45       1.0  0.81744  0.94163  0.59917  1.0000
  H   H46       1.0  0.31744  0.55836  0.90084  1.0000
  H   H47       1.0  0.18256  0.05836  0.40084  1.0000
  H   H48       1.0  0.68256  0.44164  0.09916  1.0000
  C   C1        1.0  0.57406  0.86492  0.58706  1.0000
  C   C2        1.0  0.07406  0.63506  0.91295  1.0000
  C   C3        1.0  0.42594  0.13507  0.41295  1.0000
  C   C4        1.0  0.92594  0.36494  0.08706  1.0000
  C   C5        1.0  0.58535  0.77150  0.48129  1.0000
  C   C6        1.0  0.08534  0.72849  0.01871  1.0000
  C   C7        1.0  0.41466  0.22848  0.51871  1.0000
  C   C8        1.0  0.91466  0.27152  0.98129  1.0000
  C   C9        1.0  0.66198  0.61966  0.47470  1.0000
  C   C10       1.0  0.16197  0.88035  0.02531  1.0000
  C   C11       1.0  0.33802  0.38033  0.52531  1.0000
  C   C12       1.0  0.83803  0.11966  0.97469  1.0000
  N   N1        1.0  0.73732  0.89348  0.63889  1.0000
  N   N2        1.0  0.23732  0.60650  0.86111  1.0000
  N   N3        1.0  0.26269  0.10651  0.36111  1.0000
  N   N4        1.0  0.76269  0.39349  0.13889  1.0000
  N   N5        1.0  0.63908  0.51080  0.37831  1.0000
  N   N6        1.0  0.13908  0.98921  0.12169  1.0000
  N   N7        1.0  0.36092  0.48920  0.62169  1.0000
  N   N8        1.0  0.86093  0.01080  0.87831  1.0000
  O   O1        1.0  0.50719  0.13407  0.82671  1.0000
  O   O2        1.0  0.00719  0.36593  0.67329  1.0000
  O   O3        1.0  0.49280  0.86593  0.17329  1.0000
  O   O4        1.0  0.99281  0.63407  0.32670  1.0000
  O   O5        1.0  0.28871  0.26862  0.77160  1.0000
  O   O6        1.0  0.78870  0.23137  0.72840  1.0000
  O   O7        1.0  0.71129  0.73138  0.22840  1.0000
  O   O8        1.0  0.21129  0.76863  0.27160  1.0000
  O   O9        1.0  0.43947  0.89326  0.85416  1.0000
  O   O10       1.0  0.93948  0.60674  0.64584  1.0000
  O   O11       1.0  0.56052  0.10674  0.14584  1.0000
  O   O12       1.0  0.06051  0.39326  0.35416  1.0000
  O   O13       1.0  0.22111  0.04312  0.81538  1.0000
  O   O14       1.0  0.72112  0.45689  0.68462  1.0000
  O   O15       1.0  0.77888  0.95689  0.18462  1.0000
  O   O16       1.0  0.27888  0.54311  0.31538  1.0000
  O   O17       1.0  0.05644  0.11705  0.69964  1.0000
  O   O18       1.0  0.55645  0.38295  0.80036  1.0000
  O   O19       1.0  0.94356  0.88296  0.30035  1.0000
  O   O20       1.0  0.44355  0.61705  0.19964  1.0000
  O   O21       1.0  0.35937  0.12280  0.97307  1.0000
  O   O22       1.0  0.85937  0.37719  0.52693  1.0000
  O   O23       1.0  0.64062  0.87721  0.02693  1.0000
  O   O24       1.0  0.14062  0.62280  0.47307  1.0000
  O   O25       1.0  0.39800  0.35947  0.93604  1.0000
  O   O26       1.0  0.89801  0.14052  0.56395  1.0000
  O   O27       1.0  0.60200  0.64053  0.06396  1.0000
  O   O28       1.0  0.10199  0.85947  0.43604  1.0000
  O   O29       1.0  0.33514  0.33951  0.09790  1.0000
  O   O30       1.0  0.83513  0.16049  0.40210  1.0000
  O   O31       1.0  0.66485  0.66050  0.90210  1.0000
  O   O32       1.0  0.16487  0.83951  0.59789  1.0000
