data_image0
_chemical_formula_structural       Ag4H48C56S6O8F8
_chemical_formula_sum              "Ag4 H48 C56 S6 O8 F8"
_cell_length_a       10.9002
_cell_length_b       11.8969
_cell_length_c       12.9627
_cell_angle_alpha    107.115
_cell_angle_beta     111.441
_cell_angle_gamma    94.7351

_space_group_name_H-M_alt    "P 1"
_space_group_IT_number       1

loop_
  _space_group_symop_operation_xyz
  'x, y, z'

loop_
  _atom_site_type_symbol
  _atom_site_label
  _atom_site_symmetry_multiplicity
  _atom_site_fract_x
  _atom_site_fract_y
  _atom_site_fract_z
  _atom_site_occupancy
  Ag  Ag1       1.0  0.87834  0.47440  0.20257  1.0000
  Ag  Ag2       1.0  0.12166  0.52560  0.79743  1.0000
  Ag  Ag3       1.0  0.86790  0.36400  0.87284  1.0000
  Ag  Ag4       1.0  0.13210  0.63600  0.12716  1.0000
  H   H1        1.0  0.91985  0.58119  0.49887  1.0000
  H   H2        1.0  0.08015  0.41881  0.50113  1.0000
  H   H3        1.0  0.06326  0.63979  0.48107  1.0000
  H   H4        1.0  0.93673  0.36021  0.51893  1.0000
  H   H5        1.0  0.07300  0.88333  0.50738  1.0000
  H   H6        1.0  0.92700  0.11667  0.49262  1.0000
  H   H7        1.0  0.06758  0.07690  0.64251  1.0000
  H   H8        1.0  0.93242  0.92311  0.35748  1.0000
  H   H9        1.0  0.90850  0.88802  0.81851  1.0000
  H   H10       1.0  0.09150  0.11198  0.18149  1.0000
  H   H11       1.0  0.91151  0.69342  0.68110  1.0000
  H   H12       1.0  0.08849  0.30658  0.31891  1.0000
  H   H13       1.0  0.05774  0.17934  0.85813  1.0000
  H   H14       1.0  0.94226  0.82066  0.14187  1.0000
  H   H15       1.0  0.92163  0.10223  0.87016  1.0000
  H   H16       1.0  0.07837  0.89776  0.12984  1.0000
  H   H17       1.0  0.65403  0.08889  0.71669  1.0000
  H   H18       1.0  0.34598  0.91111  0.28331  1.0000
  H   H19       1.0  0.62389  0.15918  0.60898  1.0000
  H   H20       1.0  0.37611  0.84082  0.39102  1.0000
  H   H21       1.0  0.63217  0.87583  0.65642  1.0000
  H   H22       1.0  0.36783  0.12417  0.34358  1.0000
  H   H23       1.0  0.63635  0.68267  0.52015  1.0000
  H   H24       1.0  0.36365  0.31733  0.47985  1.0000
  H   H25       1.0  0.69273  0.86347  0.29259  1.0000
  H   H26       1.0  0.30727  0.13653  0.70741  1.0000
  H   H27       1.0  0.68660  0.05558  0.42730  1.0000
  H   H28       1.0  0.31340  0.94442  0.57270  1.0000
  H   H29       1.0  0.66844  0.56854  0.34877  1.0000
  H   H30       1.0  0.33156  0.43146  0.65123  1.0000
  H   H31       1.0  0.63798  0.62516  0.23063  1.0000
  H   H32       1.0  0.36202  0.37484  0.76937  1.0000
  H   H33       1.0  0.62249  0.30326  0.22471  1.0000
  H   H34       1.0  0.37751  0.69674  0.77529  1.0000
  H   H35       1.0  0.77342  0.26379  0.30404  1.0000
  H   H36       1.0  0.22658  0.73621  0.69596  1.0000
  H   H37       1.0  0.43518  0.16626  0.20063  1.0000
  H   H38       1.0  0.56482  0.83375  0.79937  1.0000
  H   H39       1.0  0.29701  0.95913  0.11282  1.0000
  H   H40       1.0  0.70299  0.04087  0.88718  1.0000
  H   H41       1.0  0.63196  0.81988  0.06476  1.0000
  H   H42       1.0  0.36804  0.18012  0.93525  1.0000
  H   H43       1.0  0.76760  0.02809  0.14709  1.0000
  H   H44       1.0  0.23240  0.97191  0.85291  1.0000
  H   H45       1.0  0.68669  0.27686  0.93637  1.0000
  H   H46       1.0  0.31331  0.72314  0.06363  1.0000
  H   H47       1.0  0.57217  0.31625  0.00310  1.0000
  H   H48       1.0  0.42783  0.68375  0.99690  1.0000
  C   C1        1.0  0.96790  0.65809  0.48645  1.0000
  C   C2        1.0  0.03210  0.34191  0.51355  1.0000
  C   C3        1.0  0.98732  0.77489  0.58219  1.0000
  C   C4        1.0  0.01268  0.22511  0.41781  1.0000
  C   C5        1.0  0.03679  0.88407  0.57560  1.0000
  C   C6        1.0  0.96321  0.11593  0.42440  1.0000
  C   C7        1.0  0.03302  0.99275  0.65099  1.0000
  C   C8        1.0  0.96698  0.00725  0.34901  1.0000
  C   C9        1.0  0.98085  0.99530  0.73562  1.0000
  C   C10       1.0  0.01915  0.00471  0.26438  1.0000
  C   C11       1.0  0.94471  0.88744  0.75024  1.0000
  C   C12       1.0  0.05529  0.11257  0.24976  1.0000
  C   C13       1.0  0.94733  0.77775  0.67356  1.0000
  C   C14       1.0  0.05267  0.22226  0.32644  1.0000
  C   C15       1.0  0.96232  0.11198  0.80674  1.0000
  C   C16       1.0  0.03768  0.88802  0.19326  1.0000
  C   C17       1.0  0.68328  0.09982  0.64722  1.0000
  C   C18       1.0  0.31672  0.90018  0.35278  1.0000
  C   C19       1.0  0.66583  0.98085  0.55524  1.0000
  C   C20       1.0  0.33417  0.01915  0.44476  1.0000
  C   C21       1.0  0.64477  0.87351  0.57622  1.0000
  C   C22       1.0  0.35523  0.12649  0.42378  1.0000
  C   C23       1.0  0.64683  0.76421  0.49894  1.0000
  C   C24       1.0  0.35317  0.23579  0.50106  1.0000
  C   C25       1.0  0.67083  0.75972  0.39909  1.0000
  C   C26       1.0  0.32917  0.24027  0.60091  1.0000
  C   C27       1.0  0.67979  0.86554  0.37253  1.0000
  C   C28       1.0  0.32021  0.13446  0.62748  1.0000
  C   C29       1.0  0.67673  0.97432  0.44907  1.0000
  C   C30       1.0  0.32327  0.02568  0.55093  1.0000
  C   C31       1.0  0.69427  0.64649  0.32610  1.0000
  C   C32       1.0  0.30573  0.35351  0.67390  1.0000
  C   C33       1.0  0.68717  0.23830  0.21776  1.0000
  C   C34       1.0  0.31283  0.76170  0.78224  1.0000
  C   C35       1.0  0.61078  0.11150  0.17956  1.0000
  C   C36       1.0  0.38923  0.88850  0.82044  1.0000
  C   C37       1.0  0.47969  0.09022  0.17359  1.0000
  C   C38       1.0  0.52031  0.90978  0.82641  1.0000
  C   C39       1.0  0.40247  0.97340  0.12513  1.0000
  C   C40       1.0  0.59753  0.02660  0.87486  1.0000
  C   C41       1.0  0.45508  0.87519  0.08249  1.0000
  C   C42       1.0  0.54492  0.12482  0.91751  1.0000
  C   C43       1.0  0.58918  0.89602  0.09566  1.0000
  C   C44       1.0  0.41082  0.10398  0.90434  1.0000
  C   C45       1.0  0.66592  0.01281  0.14339  1.0000
  C   C46       1.0  0.33408  0.98719  0.85661  1.0000
  C   C47       1.0  0.63164  0.24914  0.98436  1.0000
  C   C48       1.0  0.36836  0.75086  0.01564  1.0000
  C   C49       1.0  0.10140  0.36931  0.13864  1.0000
  C   C50       1.0  0.89860  0.63069  0.86136  1.0000
  C   C51       1.0  0.24298  0.33898  0.15733  1.0000
  C   C52       1.0  0.75702  0.66102  0.84267  1.0000
  C   C53       1.0  0.33385  0.42538  0.13216  1.0000
  C   C54       1.0  0.66615  0.57462  0.86784  1.0000
  C   C55       1.0  0.26499  0.43134  0.00574  1.0000
  C   C56       1.0  0.73501  0.56866  0.99426  1.0000
  S   S1        1.0  0.86900  0.66018  0.33821  1.0000
  S   S2        1.0  0.13100  0.33982  0.66179  1.0000
  S   S3        1.0  0.85747  0.19042  0.71624  1.0000
  S   S4        1.0  0.14253  0.80958  0.28376  1.0000
  S   S5        1.0  0.77026  0.25923  0.12280  1.0000
  S   S6        1.0  0.22974  0.74077  0.87721  1.0000
  O   O1        1.0  0.10363  0.46059  0.22097  1.0000
  O   O2        1.0  0.89637  0.53940  0.77904  1.0000
  O   O3        1.0  0.00476  0.30285  0.04546  1.0000
  O   O4        1.0  0.99524  0.69715  0.95454  1.0000
  O   O5        1.0  0.29920  0.37244  0.92852  1.0000
  O   O6        1.0  0.70080  0.62756  0.07148  1.0000
  O   O7        1.0  0.17523  0.49590  0.99364  1.0000
  O   O8        1.0  0.82477  0.50409  0.00636  1.0000
  F   F1        1.0  0.22973  0.22387  0.08303  1.0000
  F   F2        1.0  0.77027  0.77613  0.91697  1.0000
  F   F3        1.0  0.31144  0.34110  0.27161  1.0000
  F   F4        1.0  0.68856  0.65890  0.72839  1.0000
  F   F5        1.0  0.36863  0.53848  0.21769  1.0000
  F   F6        1.0  0.63137  0.46152  0.78231  1.0000
  F   F7        1.0  0.45317  0.38701  0.14652  1.0000
  F   F8        1.0  0.54683  0.61299  0.85348  1.0000
