data_image0
_chemical_formula_structural       Zn4B16H44C12N8O30
_chemical_formula_sum              "Zn4 B16 H44 C12 N8 O30"
_cell_length_a       8.15342
_cell_length_b       10.7674
_cell_length_c       11.4537
_cell_angle_alpha    89.4728
_cell_angle_beta     90
_cell_angle_gamma    90.0001

_space_group_name_H-M_alt    "P 1"
_space_group_IT_number       1

loop_
  _space_group_symop_operation_xyz
  'x, y, z'

loop_
  _atom_site_type_symbol
  _atom_site_label
  _atom_site_symmetry_multiplicity
  _atom_site_fract_x
  _atom_site_fract_y
  _atom_site_fract_z
  _atom_site_occupancy
  Zn  Zn1       1.0  0.74055  0.10065  0.34658  1.0000
  Zn  Zn2       1.0  0.24055  0.39935  0.15342  1.0000
  Zn  Zn3       1.0  0.25945  0.89935  0.65342  1.0000
  Zn  Zn4       1.0  0.75945  0.60065  0.84658  1.0000
  B   B1        1.0  0.02786  0.28918  0.32795  1.0000
  B   B2        1.0  0.52786  0.21082  0.17205  1.0000
  B   B3        1.0  0.97214  0.71082  0.67205  1.0000
  B   B4        1.0  0.47214  0.78918  0.82795  1.0000
  B   B5        1.0  0.07202  0.10929  0.45745  1.0000
  B   B6        1.0  0.57202  0.39071  0.04255  1.0000
  B   B7        1.0  0.92798  0.89071  0.54255  1.0000
  B   B8        1.0  0.42798  0.60929  0.95745  1.0000
  B   B9        1.0  0.29062  0.16522  0.31337  1.0000
  B   B10       1.0  0.79062  0.33478  0.18663  1.0000
  B   B11       1.0  0.70937  0.83478  0.68663  1.0000
  B   B12       1.0  0.20937  0.66522  0.81337  1.0000
  B   B13       1.0  0.07215  0.32528  0.53756  1.0000
  B   B14       1.0  0.57215  0.17472  0.96244  1.0000
  B   B15       1.0  0.92785  0.67472  0.46244  1.0000
  B   B16       1.0  0.42785  0.82528  0.03756  1.0000
  H   H1        1.0  0.04076  0.48804  0.61170  1.0000
  H   H2        1.0  0.54076  0.01196  0.88830  1.0000
  H   H3        1.0  0.95924  0.51195  0.38830  1.0000
  H   H4        1.0  0.45924  0.98805  0.11170  1.0000
  H   H5        1.0  0.79324  0.87241  0.32663  1.0000
  H   H6        1.0  0.29324  0.62759  0.17337  1.0000
  H   H7        1.0  0.20676  0.12759  0.67337  1.0000
  H   H8        1.0  0.70676  0.37241  0.82663  1.0000
  H   H9        1.0  0.65939  0.91384  0.22074  1.0000
  H   H10       1.0  0.15939  0.58616  0.27926  1.0000
  H   H11       1.0  0.34061  0.08616  0.77926  1.0000
  H   H12       1.0  0.84061  0.41384  0.72074  1.0000
  H   H13       1.0  0.00003  0.62916  0.98693  1.0000
  H   H14       1.0  0.50003  0.87084  0.51307  1.0000
  H   H15       1.0  0.99997  0.37084  0.01307  1.0000
  H   H16       1.0  0.49997  0.12916  0.48693  1.0000
  H   H17       1.0  0.83958  0.56817  0.05801  1.0000
  H   H18       1.0  0.33958  0.93183  0.44199  1.0000
  H   H19       1.0  0.16042  0.43183  0.94199  1.0000
  H   H20       1.0  0.66042  0.06817  0.55801  1.0000
  H   H21       1.0  0.01254  0.97902  0.22749  1.0000
  H   H22       1.0  0.51254  0.52099  0.27251  1.0000
  H   H23       1.0  0.98746  0.02099  0.77251  1.0000
  H   H24       1.0  0.48746  0.47901  0.72749  1.0000
  H   H25       1.0  0.87814  0.00448  0.10797  1.0000
  H   H26       1.0  0.37814  0.49552  0.39203  1.0000
  H   H27       1.0  0.12186  0.99552  0.89203  1.0000
  H   H28       1.0  0.62186  0.50448  0.60797  1.0000
  H   H29       1.0  0.71021  0.75510  0.08042  1.0000
  H   H30       1.0  0.21021  0.74490  0.41958  1.0000
  H   H31       1.0  0.28979  0.24490  0.91959  1.0000
  H   H32       1.0  0.78979  0.25510  0.58042  1.0000
  H   H33       1.0  0.82719  0.82695  0.96896  1.0000
  H   H34       1.0  0.32719  0.67305  0.53104  1.0000
  H   H35       1.0  0.17281  0.17305  0.03104  1.0000
  H   H36       1.0  0.67281  0.32695  0.46896  1.0000
  H   H37       1.0  0.96411  0.74610  0.20795  1.0000
  H   H38       1.0  0.46411  0.75390  0.29205  1.0000
  H   H39       1.0  0.03589  0.25390  0.79205  1.0000
  H   H40       1.0  0.53589  0.24610  0.70795  1.0000
  H   H41       1.0  0.07768  0.81882  0.09459  1.0000
  H   H42       1.0  0.57768  0.68118  0.40541  1.0000
  H   H43       1.0  0.92232  0.18118  0.90541  1.0000
  H   H44       1.0  0.42232  0.31882  0.59459  1.0000
  C   C1        1.0  0.90778  0.94001  0.18008  1.0000
  C   C2        1.0  0.40778  0.55999  0.31992  1.0000
  C   C3        1.0  0.09222  0.05999  0.81992  1.0000
  C   C4        1.0  0.59222  0.44001  0.68008  1.0000
  C   C5        1.0  0.83419  0.76222  0.04377  1.0000
  C   C6        1.0  0.33419  0.73778  0.45623  1.0000
  C   C7        1.0  0.16581  0.23778  0.95623  1.0000
  C   C8        1.0  0.66581  0.26222  0.54377  1.0000
  C   C9        1.0  0.95455  0.81170  0.13393  1.0000
  C   C10       1.0  0.45455  0.68830  0.36607  1.0000
  C   C11       1.0  0.04545  0.18830  0.86607  1.0000
  C   C12       1.0  0.54545  0.31170  0.63393  1.0000
  N   N1        1.0  0.76627  0.93830  0.26242  1.0000
  N   N2        1.0  0.26627  0.56170  0.23758  1.0000
  N   N3        1.0  0.23373  0.06170  0.73758  1.0000
  N   N4        1.0  0.73373  0.43830  0.76242  1.0000
  N   N5        1.0  0.87576  0.63668  0.99932  1.0000
  N   N6        1.0  0.37576  0.86332  0.50068  1.0000
  N   N7        1.0  0.12424  0.36332  0.00068  1.0000
  N   N8        1.0  0.62424  0.13668  0.49932  1.0000
  O   O1        1.0  0.96406  0.17024  0.36787  1.0000
  O   O2        1.0  0.46406  0.32976  0.13213  1.0000
  O   O3        1.0  0.03594  0.82976  0.63213  1.0000
  O   O4        1.0  0.53594  0.67024  0.86787  1.0000
  O   O5        1.0  0.19619  0.26636  0.27750  1.0000
  O   O6        1.0  0.69619  0.23364  0.22249  1.0000
  O   O7        1.0  0.80381  0.73364  0.72249  1.0000
  O   O8        1.0  0.30380  0.76636  0.77751  1.0000
  O   O9        1.0  0.94052  0.35401  0.23567  1.0000
  O   O10       1.0  0.44052  0.14599  0.26433  1.0000
  O   O11       1.0  0.05948  0.64599  0.76433  1.0000
  O   O12       1.0  0.55948  0.85401  0.73567  1.0000
  O   O13       1.0  0.04271  0.37519  0.42774  1.0000
  O   O14       1.0  0.54271  0.12481  0.07226  1.0000
  O   O15       1.0  0.95729  0.62481  0.57226  1.0000
  O   O16       1.0  0.45729  0.87519  0.92774  1.0000
  O   O17       1.0  0.06926  0.40072  0.63421  1.0000
  O   O18       1.0  0.56926  0.09928  0.86579  1.0000
  O   O19       1.0  0.93074  0.59928  0.36579  1.0000
  O   O20       1.0  0.43074  0.90072  0.13421  1.0000
  O   O21       1.0  0.10147  0.20115  0.55373  1.0000
  O   O22       1.0  0.60147  0.29885  0.94628  1.0000
  O   O23       1.0  0.89853  0.79885  0.44627  1.0000
  O   O24       1.0  0.39853  0.70115  0.05372  1.0000
  O   O25       1.0  1.00000  0.00000  0.50000  1.0000
  O   O26       1.0  0.50000  0.50000  0.00000  1.0000
  O   O27       1.0  0.23710  0.08660  0.40005  1.0000
  O   O28       1.0  0.73710  0.41340  0.09995  1.0000
  O   O29       1.0  0.76290  0.91340  0.59995  1.0000
  O   O30       1.0  0.26290  0.58660  0.90005  1.0000
