data_image0
_chemical_formula_structural       Co2H32C32N4O8
_chemical_formula_sum              "Co2 H32 C32 N4 O8"
_cell_length_a       8.03242
_cell_length_b       9.46391
_cell_length_c       10.4552
_cell_angle_alpha    110.728
_cell_angle_beta     92.3011
_cell_angle_gamma    102.695

_space_group_name_H-M_alt    "P 1"
_space_group_IT_number       1

loop_
  _space_group_symop_operation_xyz
  'x, y, z'

loop_
  _atom_site_type_symbol
  _atom_site_label
  _atom_site_symmetry_multiplicity
  _atom_site_fract_x
  _atom_site_fract_y
  _atom_site_fract_z
  _atom_site_occupancy
  Co  Co1       1.0  0.15659  0.98355  0.14106  1.0000
  Co  Co2       1.0  0.84341  0.01645  0.85894  1.0000
  H   H1        1.0  0.36130  0.91730  0.90024  1.0000
  H   H2        1.0  0.63870  0.08270  0.09976  1.0000
  H   H3        1.0  0.36023  0.71392  0.68140  1.0000
  H   H4        1.0  0.63977  0.28609  0.31859  1.0000
  H   H5        1.0  0.93848  0.41591  0.78565  1.0000
  H   H6        1.0  0.06152  0.58409  0.21434  1.0000
  H   H7        1.0  0.95867  0.63772  0.00444  1.0000
  H   H8        1.0  0.04134  0.36228  0.99556  1.0000
  H   H9        1.0  0.32636  0.32653  0.27749  1.0000
  H   H10       1.0  0.67364  0.67347  0.72251  1.0000
  H   H11       1.0  0.33160  0.54958  0.49363  1.0000
  H   H12       1.0  0.66840  0.45042  0.50636  1.0000
  H   H13       1.0  0.94446  0.23501  0.61064  1.0000
  H   H14       1.0  0.05553  0.76499  0.38936  1.0000
  H   H15       1.0  0.95842  0.02866  0.38967  1.0000
  H   H16       1.0  0.04158  0.97134  0.61034  1.0000
  H   H17       1.0  0.54335  0.89353  0.43019  1.0000
  H   H18       1.0  0.45665  0.10647  0.56982  1.0000
  H   H19       1.0  0.66421  0.00098  0.34069  1.0000
  H   H20       1.0  0.33579  0.99902  0.65931  1.0000
  H   H21       1.0  0.73547  0.75444  0.28186  1.0000
  H   H22       1.0  0.26453  0.24556  0.71815  1.0000
  H   H23       1.0  0.62604  0.61642  0.02523  1.0000
  H   H24       1.0  0.37395  0.38358  0.97478  1.0000
  H   H25       1.0  0.50339  0.75249  0.04096  1.0000
  H   H26       1.0  0.49661  0.24751  0.95904  1.0000
  H   H27       1.0  0.47303  0.61458  0.34878  1.0000
  H   H28       1.0  0.52697  0.38542  0.65122  1.0000
  H   H29       1.0  0.52562  0.49806  0.18860  1.0000
  H   H30       1.0  0.47438  0.50194  0.81141  1.0000
  H   H31       1.0  0.35187  0.58858  0.19337  1.0000
  H   H32       1.0  0.64813  0.41142  0.80663  1.0000
  C   C1        1.0  0.26605  0.80634  0.87151  1.0000
  C   C2        1.0  0.73395  0.19366  0.12849  1.0000
  C   C3        1.0  0.26436  0.68829  0.74598  1.0000
  C   C4        1.0  0.73563  0.31171  0.25402  1.0000
  C   C5        1.0  0.14496  0.54285  0.70801  1.0000
  C   C6        1.0  0.85503  0.45715  0.29199  1.0000
  C   C7        1.0  0.03371  0.52536  0.80509  1.0000
  C   C8        1.0  0.96630  0.47464  0.19491  1.0000
  C   C9        1.0  0.04364  0.64981  0.92830  1.0000
  C   C10       1.0  0.95636  0.35019  0.07170  1.0000
  C   C11       1.0  0.24536  0.31243  0.35546  1.0000
  C   C12       1.0  0.75464  0.68757  0.64454  1.0000
  C   C13       1.0  0.24684  0.43615  0.47704  1.0000
  C   C14       1.0  0.75315  0.56385  0.52296  1.0000
  C   C15       1.0  0.14034  0.41460  0.57548  1.0000
  C   C16       1.0  0.85966  0.58540  0.42451  1.0000
  C   C17       1.0  0.03292  0.26397  0.54191  1.0000
  C   C18       1.0  0.96707  0.73603  0.45809  1.0000
  C   C19       1.0  0.03942  0.14642  0.41781  1.0000
  C   C20       1.0  0.96057  0.85358  0.58219  1.0000
  C   C21       1.0  0.39689  0.92122  0.26781  1.0000
  C   C22       1.0  0.60311  0.07879  0.73219  1.0000
  C   C23       1.0  0.55934  0.89870  0.32791  1.0000
  C   C24       1.0  0.44066  0.10130  0.67210  1.0000
  C   C25       1.0  0.60674  0.74832  0.23679  1.0000
  C   C26       1.0  0.39326  0.25168  0.76322  1.0000
  C   C27       1.0  0.61917  0.73597  0.08765  1.0000
  C   C28       1.0  0.38083  0.26404  0.91235  1.0000
  C   C29       1.0  0.77631  0.84109  0.06242  1.0000
  C   C30       1.0  0.22369  0.15891  0.93759  1.0000
  C   C31       1.0  0.48192  0.60357  0.24136  1.0000
  C   C32       1.0  0.51808  0.39644  0.75864  1.0000
  N   N1        1.0  0.15581  0.79044  0.96217  1.0000
  N   N2        1.0  0.84419  0.20955  0.03782  1.0000
  N   N3        1.0  0.14374  0.16816  0.32497  1.0000
  N   N4        1.0  0.85626  0.83184  0.67503  1.0000
  O   O1        1.0  0.24740  0.84010  0.26655  1.0000
  O   O2        1.0  0.75261  0.15990  0.73345  1.0000
  O   O3        1.0  0.41500  0.02418  0.21268  1.0000
  O   O4        1.0  0.58501  0.97582  0.78733  1.0000
  O   O5        1.0  0.76766  0.86021  0.94790  1.0000
  O   O6        1.0  0.23234  0.13979  0.05210  1.0000
  O   O7        1.0  0.90869  0.89425  0.15212  1.0000
  O   O8        1.0  0.09132  0.10575  0.84788  1.0000
