data_image0
_chemical_formula_structural       Co2H40C38N4O8
_chemical_formula_sum              "Co2 H40 C38 N4 O8"
_cell_length_a       8.20462
_cell_length_b       10.8799
_cell_length_c       11.0385
_cell_angle_alpha    61.8856
_cell_angle_beta     74.3891
_cell_angle_gamma    84.0204

_space_group_name_H-M_alt    "P 1"
_space_group_IT_number       1

loop_
  _space_group_symop_operation_xyz
  'x, y, z'

loop_
  _atom_site_type_symbol
  _atom_site_label
  _atom_site_symmetry_multiplicity
  _atom_site_fract_x
  _atom_site_fract_y
  _atom_site_fract_z
  _atom_site_occupancy
  Co  Co1       1.0  0.13580  0.65517  0.99988  1.0000
  Co  Co2       1.0  0.86420  0.34482  0.00011  1.0000
  H   H1        1.0  0.96620  0.54966  0.31212  1.0000
  H   H2        1.0  0.03380  0.45034  0.68786  1.0000
  H   H3        1.0  0.95582  0.33571  0.53831  1.0000
  H   H4        1.0  0.04419  0.66431  0.46168  1.0000
  H   H5        1.0  0.34137  0.39264  0.08987  1.0000
  H   H6        1.0  0.65863  0.60734  0.91013  1.0000
  H   H7        1.0  0.34222  0.17276  0.30078  1.0000
  H   H8        1.0  0.65780  0.82724  0.69923  1.0000
  H   H9        1.0  0.97498  0.16199  0.72483  1.0000
  H   H10       1.0  0.02500  0.83800  0.27518  1.0000
  H   H11       1.0  0.28360  0.98067  0.46539  1.0000
  H   H12       1.0  0.71647  0.01934  0.53462  1.0000
  H   H13       1.0  0.97418  0.93499  0.93154  1.0000
  H   H14       1.0  0.02580  0.06499  0.06846  1.0000
  H   H15       1.0  0.27444  0.76192  0.68848  1.0000
  H   H16       1.0  0.72562  0.23809  0.31153  1.0000
  H   H17       1.0  0.60979  0.47460  0.32828  1.0000
  H   H18       1.0  0.39023  0.52541  0.67173  1.0000
  H   H19       1.0  0.51510  0.51255  0.19033  1.0000
  H   H20       1.0  0.48490  0.48743  0.80970  1.0000
  H   H21       1.0  0.46698  0.89790  0.09337  1.0000
  H   H22       1.0  0.53299  0.10209  0.90664  1.0000
  H   H23       1.0  0.62215  0.82362  0.00107  1.0000
  H   H24       1.0  0.37784  0.17639  0.99893  1.0000
  H   H25       1.0  0.71283  0.66897  0.35210  1.0000
  H   H26       1.0  0.28715  0.33104  0.64790  1.0000
  H   H27       1.0  0.75808  0.81693  0.18404  1.0000
  H   H28       1.0  0.24191  0.18307  0.81596  1.0000
  H   H29       1.0  0.57182  0.82259  0.43665  1.0000
  H   H30       1.0  0.42817  0.17743  0.56334  1.0000
  H   H31       1.0  0.55063  0.94955  0.26866  1.0000
  H   H32       1.0  0.44935  0.05046  0.73133  1.0000
  H   H33       1.0  0.28686  0.75282  0.48819  1.0000
  H   H34       1.0  0.71314  0.24719  0.51181  1.0000
  H   H35       1.0  0.28093  0.86127  0.31059  1.0000
  H   H36       1.0  0.71905  0.13873  0.68941  1.0000
  H   H37       1.0  0.26592  0.63439  0.32219  1.0000
  H   H38       1.0  0.73407  0.36562  0.67781  1.0000
  H   H39       1.0  0.39594  0.56074  0.44294  1.0000
  H   H40       1.0  0.60404  0.43927  0.55706  1.0000
  C   C1        1.0  0.04656  0.46233  0.31508  1.0000
  C   C2        1.0  0.95344  0.53766  0.68491  1.0000
  C   C3        1.0  0.04126  0.34168  0.44135  1.0000
  C   C4        1.0  0.95875  0.65833  0.55864  1.0000
  C   C5        1.0  0.14173  0.22858  0.44179  1.0000
  C   C6        1.0  0.85827  0.77142  0.55822  1.0000
  C   C7        1.0  0.25226  0.37538  0.18975  1.0000
  C   C8        1.0  0.74774  0.62461  0.81024  1.0000
  C   C9        1.0  0.25249  0.25047  0.31117  1.0000
  C   C10       1.0  0.74751  0.74953  0.68883  1.0000
  C   C11       1.0  0.13154  0.09493  0.57181  1.0000
  C   C12       1.0  0.86848  0.90508  0.42820  1.0000
  C   C13       1.0  0.04242  0.07786  0.70710  1.0000
  C   C14       1.0  0.95758  0.92213  0.29290  1.0000
  C   C15       1.0  0.21438  0.97740  0.56589  1.0000
  C   C16       1.0  0.78566  0.02261  0.43412  1.0000
  C   C17       1.0  0.04200  0.95008  0.82582  1.0000
  C   C18       1.0  0.95799  0.04991  0.17418  1.0000
  C   C19       1.0  0.20970  0.85421  0.68950  1.0000
  C   C20       1.0  0.79034  0.14579  0.31051  1.0000
  C   C21       1.0  0.77905  0.55695  0.12642  1.0000
  C   C22       1.0  0.22094  0.44306  0.87358  1.0000
  C   C23       1.0  0.60452  0.55495  0.22052  1.0000
  C   C24       1.0  0.39548  0.44505  0.77949  1.0000
  C   C25       1.0  0.53817  0.68876  0.22773  1.0000
  C   C26       1.0  0.46182  0.31124  0.77228  1.0000
  C   C27       1.0  0.50392  0.80199  0.08458  1.0000
  C   C28       1.0  0.49607  0.19801  0.91542  1.0000
  C   C29       1.0  0.65441  0.75371  0.27302  1.0000
  C   C30       1.0  0.34558  0.24629  0.72698  1.0000
  C   C31       1.0  0.53758  0.83705  0.34147  1.0000
  C   C32       1.0  0.46241  0.16296  0.65852  1.0000
  C   C33       1.0  0.35538  0.78151  0.37809  1.0000
  C   C34       1.0  0.64462  0.21850  0.62191  1.0000
  C   C35       1.0  0.37582  0.65551  0.34896  1.0000
  C   C36       1.0  0.62417  0.34449  0.65104  1.0000
  C   C37       1.0  0.36523  0.75888  0.04450  1.0000
  C   C38       1.0  0.63477  0.24110  0.95550  1.0000
  N   N1        1.0  0.14754  0.47939  0.18936  1.0000
  N   N2        1.0  0.85246  0.52059  0.81063  1.0000
  N   N3        1.0  0.12519  0.83917  0.81879  1.0000
  N   N4        1.0  0.87482  0.16083  0.18121  1.0000
  O   O1        1.0  0.87920  0.66199  0.07202  1.0000
  O   O2        1.0  0.12079  0.33801  0.92798  1.0000
  O   O3        1.0  0.81803  0.44656  0.11387  1.0000
  O   O4        1.0  0.18194  0.55344  0.88612  1.0000
  O   O5        1.0  0.40321  0.69001  0.97399  1.0000
  O   O6        1.0  0.59679  0.30998  0.02601  1.0000
  O   O7        1.0  0.21041  0.78543  0.08566  1.0000
  O   O8        1.0  0.78958  0.21455  0.91435  1.0000
