data_image0
_chemical_formula_structural       Co2H28C30N4O8
_chemical_formula_sum              "Co2 H28 C30 N4 O8"
_cell_length_a       8.61405
_cell_length_b       8.75078
_cell_length_c       9.87806
_cell_angle_alpha    95.0026
_cell_angle_beta     104.806
_cell_angle_gamma    102.84

_space_group_name_H-M_alt    "P 1"
_space_group_IT_number       1

loop_
  _space_group_symop_operation_xyz
  'x, y, z'

loop_
  _atom_site_type_symbol
  _atom_site_label
  _atom_site_symmetry_multiplicity
  _atom_site_fract_x
  _atom_site_fract_y
  _atom_site_fract_z
  _atom_site_occupancy
  Co  Co1       1.0  0.98490  0.65811  0.15022  1.0000
  Co  Co2       1.0  0.01510  0.34189  0.84978  1.0000
  H   H1        1.0  0.03995  0.45682  0.38172  1.0000
  H   H2        1.0  0.96004  0.54319  0.61828  1.0000
  H   H3        1.0  0.25311  0.44826  0.59939  1.0000
  H   H4        1.0  0.74689  0.55175  0.40061  1.0000
  H   H5        1.0  0.56445  0.86621  0.50858  1.0000
  H   H6        1.0  0.43555  0.13379  0.49141  1.0000
  H   H7        1.0  0.33410  0.85399  0.29374  1.0000
  H   H8        1.0  0.66591  0.14601  0.70626  1.0000
  H   H9        1.0  0.64394  0.45864  0.98676  1.0000
  H   H10       1.0  0.35605  0.54135  0.01323  1.0000
  H   H11       1.0  0.42773  0.44383  0.76643  1.0000
  H   H12       1.0  0.57226  0.55617  0.23357  1.0000
  H   H13       1.0  0.73316  0.88638  0.70571  1.0000
  H   H14       1.0  0.26684  0.11362  0.29429  1.0000
  H   H15       1.0  0.93302  0.87908  0.92653  1.0000
  H   H16       1.0  0.06698  0.12091  0.07347  1.0000
  H   H17       1.0  0.36801  0.85689  0.87717  1.0000
  H   H18       1.0  0.63199  0.14310  0.12283  1.0000
  H   H19       1.0  0.23311  0.95871  0.93079  1.0000
  H   H20       1.0  0.76689  0.04128  0.06921  1.0000
  H   H21       1.0  0.17717  0.76208  0.64109  1.0000
  H   H22       1.0  0.82283  0.23792  0.35891  1.0000
  H   H23       1.0  0.01290  0.81813  0.69103  1.0000
  H   H24       1.0  0.98710  0.18187  0.30897  1.0000
  H   H25       1.0  0.32996  0.06143  0.68979  1.0000
  H   H26       1.0  0.67005  0.93857  0.31021  1.0000
  H   H27       1.0  0.14971  0.00281  0.54494  1.0000
  H   H28       1.0  0.85029  0.99719  0.45506  1.0000
  C   C1        1.0  0.15830  0.54540  0.41461  1.0000
  C   C2        1.0  0.84170  0.45460  0.58539  1.0000
  C   C3        1.0  0.28007  0.54143  0.53620  1.0000
  C   C4        1.0  0.71993  0.45857  0.46380  1.0000
  C   C5        1.0  0.43083  0.65909  0.57721  1.0000
  C   C6        1.0  0.56917  0.34091  0.42279  1.0000
  C   C7        1.0  0.45016  0.77295  0.48662  1.0000
  C   C8        1.0  0.54984  0.22705  0.51338  1.0000
  C   C9        1.0  0.32206  0.76797  0.36630  1.0000
  C   C10       1.0  0.67794  0.23203  0.63370  1.0000
  C   C11       1.0  0.65940  0.54997  0.92003  1.0000
  C   C12       1.0  0.34060  0.45002  0.07997  1.0000
  C   C13       1.0  0.53780  0.54315  0.79515  1.0000
  C   C14       1.0  0.46219  0.45685  0.20485  1.0000
  C   C15       1.0  0.55864  0.66303  0.71045  1.0000
  C   C16       1.0  0.44135  0.33698  0.28955  1.0000
  C   C17       1.0  0.70436  0.78642  0.76132  1.0000
  C   C18       1.0  0.29564  0.21358  0.23868  1.0000
  C   C19       1.0  0.82002  0.78356  0.88757  1.0000
  C   C20       1.0  0.17998  0.21644  0.11243  1.0000
  C   C21       1.0  0.16217  0.70893  0.92442  1.0000
  C   C22       1.0  0.83783  0.29107  0.07558  1.0000
  C   C23       1.0  0.23581  0.85276  0.86386  1.0000
  C   C24       1.0  0.76419  0.14723  0.13614  1.0000
  C   C25       1.0  0.14783  0.85182  0.70781  1.0000
  C   C26       1.0  0.85217  0.14818  0.29219  1.0000
  C   C27       1.0  0.19449  0.01345  0.66129  1.0000
  C   C28       1.0  0.80551  0.98656  0.33871  1.0000
  C   C29       1.0  0.12220  0.13623  0.72404  1.0000
  C   C30       1.0  0.87780  0.86377  0.27596  1.0000
  N   N1        1.0  0.17611  0.65700  0.33015  1.0000
  N   N2        1.0  0.82389  0.34301  0.66985  1.0000
  N   N3        1.0  0.80098  0.66627  0.96657  1.0000
  N   N4        1.0  0.19901  0.33373  0.03343  1.0000
  O   O1        1.0  0.16075  0.73155  0.05360  1.0000
  O   O2        1.0  0.83925  0.26845  0.94640  1.0000
  O   O3        1.0  0.10875  0.57550  0.84459  1.0000
  O   O4        1.0  0.89125  0.42450  0.15542  1.0000
  O   O5        1.0  0.19125  0.28362  0.73543  1.0000
  O   O6        1.0  0.80875  0.71638  0.26457  1.0000
  O   O7        1.0  0.99318  0.09263  0.76612  1.0000
  O   O8        1.0  0.00682  0.90737  0.23388  1.0000
