data_image0
_chemical_formula_structural       Cu3H14C12N16O6
_chemical_formula_sum              "Cu3 H14 C12 N16 O6"
_cell_length_a       6.07219
_cell_length_b       10.0981
_cell_length_c       10.6594
_cell_angle_alpha    112.033
_cell_angle_beta     100.66
_cell_angle_gamma    105.701

_space_group_name_H-M_alt    "P 1"
_space_group_IT_number       1

loop_
  _space_group_symop_operation_xyz
  'x, y, z'

loop_
  _atom_site_type_symbol
  _atom_site_label
  _atom_site_symmetry_multiplicity
  _atom_site_fract_x
  _atom_site_fract_y
  _atom_site_fract_z
  _atom_site_occupancy
  Cu  Cu1       1.0  0.50001  1.00000  1.00000  1.0000
  Cu  Cu2       1.0  0.75978  0.51994  0.50211  1.0000
  Cu  Cu3       1.0  0.24022  0.48007  0.49789  1.0000
  H   H1        1.0  0.85092  0.82038  0.00033  1.0000
  H   H2        1.0  0.14910  0.17962  0.99968  1.0000
  H   H3        1.0  0.66049  0.94956  0.44560  1.0000
  H   H4        1.0  0.33949  0.05044  0.55439  1.0000
  H   H5        1.0  0.15129  0.70917  0.26474  1.0000
  H   H6        1.0  0.84871  0.29083  0.73526  1.0000
  H   H7        1.0  0.11901  0.70063  0.09019  1.0000
  H   H8        1.0  0.88100  0.29938  0.90982  1.0000
  H   H9        1.0  0.89447  0.56938  0.11554  1.0000
  H   H10       1.0  0.10554  0.43062  0.88447  1.0000
  H   H11       1.0  0.90038  0.77728  0.46401  1.0000
  H   H12       1.0  0.09963  0.22273  0.53600  1.0000
  H   H13       1.0  0.79198  0.80998  0.59018  1.0000
  H   H14       1.0  0.20800  0.19002  0.40982  1.0000
  C   C1        1.0  0.80697  0.84636  0.09924  1.0000
  C   C2        1.0  0.19304  0.15363  0.90076  1.0000
  C   C3        1.0  0.61397  0.96671  0.24709  1.0000
  C   C4        1.0  0.38603  0.03328  0.75290  1.0000
  C   C5        1.0  0.88870  0.79374  0.19709  1.0000
  C   C6        1.0  0.11130  0.20626  0.80291  1.0000
  C   C7        1.0  0.45288  0.05688  0.26560  1.0000
  C   C8        1.0  0.54711  0.94311  0.73439  1.0000
  C   C9        1.0  0.70225  0.91910  0.34562  1.0000
  C   C10       1.0  0.29774  0.08089  0.65438  1.0000
  C   C11       1.0  0.02453  0.68916  0.16588  1.0000
  C   C12       1.0  0.97547  0.31084  0.83413  1.0000
  N   N1        1.0  0.66856  0.92962  0.12490  1.0000
  N   N2        1.0  0.33144  0.07038  0.87509  1.0000
  N   N3        1.0  0.83611  0.83246  0.32010  1.0000
  N   N4        1.0  0.16388  0.16753  0.67990  1.0000
  N   N5        1.0  0.94905  0.46606  0.36139  1.0000
  N   N6        1.0  0.05095  0.53395  0.63862  1.0000
  N   N7        1.0  0.56110  0.54947  0.63961  1.0000
  N   N8        1.0  0.43889  0.45053  0.36038  1.0000
  N   N9        1.0  0.87748  0.36463  0.24014  1.0000
  N   N10       1.0  0.12251  0.63537  0.75986  1.0000
  N   N11       1.0  0.57994  0.51981  0.74070  1.0000
  N   N12       1.0  0.42006  0.48019  0.25930  1.0000
  N   N13       1.0  0.81657  0.27220  0.12192  1.0000
  N   N14       1.0  0.18345  0.72781  0.87809  1.0000
  N   N15       1.0  0.59994  0.49697  0.84039  1.0000
  N   N16       1.0  0.40006  0.50304  0.15961  1.0000
  O   O1        1.0  0.36757  0.07727  0.15692  1.0000
  O   O2        1.0  0.63244  0.92273  0.84307  1.0000
  O   O3        1.0  0.40778  0.10387  0.38074  1.0000
  O   O4        1.0  0.59218  0.89611  0.61925  1.0000
  O   O5        1.0  0.90405  0.76205  0.55150  1.0000
  O   O6        1.0  0.09595  0.23796  0.44851  1.0000
