data_image0
_chemical_formula_structural       Cd4H36C32N4O28
_chemical_formula_sum              "Cd4 H36 C32 N4 O28"
_cell_length_a       9.5019
_cell_length_b       10.0633
_cell_length_c       11.278
_cell_angle_alpha    90
_cell_angle_beta     111.02
_cell_angle_gamma    90.0004

_space_group_name_H-M_alt    "P 1"
_space_group_IT_number       1

loop_
  _space_group_symop_operation_xyz
  'x, y, z'

loop_
  _atom_site_type_symbol
  _atom_site_label
  _atom_site_symmetry_multiplicity
  _atom_site_fract_x
  _atom_site_fract_y
  _atom_site_fract_z
  _atom_site_occupancy
  Cd  Cd1       1.0  0.38614  0.62261  0.04639  1.0000
  Cd  Cd2       1.0  0.61386  0.12261  0.45360  1.0000
  Cd  Cd3       1.0  0.61386  0.37739  0.95361  1.0000
  Cd  Cd4       1.0  0.38614  0.87739  0.54640  1.0000
  H   H1        1.0  0.26671  0.72059  0.23675  1.0000
  H   H2        1.0  0.73329  0.22059  0.26325  1.0000
  H   H3        1.0  0.73329  0.27941  0.76325  1.0000
  H   H4        1.0  0.26671  0.77941  0.73675  1.0000
  H   H5        1.0  0.44382  0.71484  0.30909  1.0000
  H   H6        1.0  0.55618  0.21485  0.19091  1.0000
  H   H7        1.0  0.55618  0.28516  0.69091  1.0000
  H   H8        1.0  0.44382  0.78515  0.80909  1.0000
  H   H9        1.0  0.32197  0.35968  0.05557  1.0000
  H   H10       1.0  0.67803  0.85968  0.44443  1.0000
  H   H11       1.0  0.67803  0.64032  0.94443  1.0000
  H   H12       1.0  0.32197  0.14032  0.55557  1.0000
  H   H13       1.0  0.30373  0.41750  0.17602  1.0000
  H   H14       1.0  0.69627  0.91750  0.32398  1.0000
  H   H15       1.0  0.69627  0.58250  0.82398  1.0000
  H   H16       1.0  0.30373  0.08250  0.67602  1.0000
  H   H17       1.0  0.98887  0.68912  0.55000  1.0000
  H   H18       1.0  0.01114  0.18912  0.95000  1.0000
  H   H19       1.0  0.01113  0.31088  0.45000  1.0000
  H   H20       1.0  0.98887  0.81088  0.05000  1.0000
  H   H21       1.0  0.87406  0.60719  0.14915  1.0000
  H   H22       1.0  0.12594  0.10719  0.35086  1.0000
  H   H23       1.0  0.12594  0.39281  0.85085  1.0000
  H   H24       1.0  0.87406  0.89281  0.64914  1.0000
  H   H25       1.0  0.59549  0.47554  0.35746  1.0000
  H   H26       1.0  0.40450  0.97554  0.14254  1.0000
  H   H27       1.0  0.40450  0.52446  0.64254  1.0000
  H   H28       1.0  0.59550  0.02446  0.85746  1.0000
  H   H29       1.0  0.86019  0.59736  0.65526  1.0000
  H   H30       1.0  0.13981  0.09736  0.84473  1.0000
  H   H31       1.0  0.13981  0.40264  0.34473  1.0000
  H   H32       1.0  0.86019  0.90264  0.15527  1.0000
  H   H33       1.0  0.72551  0.47027  0.58571  1.0000
  H   H34       1.0  0.27448  0.97026  0.91429  1.0000
  H   H35       1.0  0.27449  0.52973  0.41429  1.0000
  H   H36       1.0  0.72552  0.02974  0.08571  1.0000
  C   C1        1.0  0.91634  0.64739  0.45966  1.0000
  C   C2        1.0  0.08366  0.14739  0.04034  1.0000
  C   C3        1.0  0.08366  0.35261  0.54034  1.0000
  C   C4        1.0  0.91634  0.85261  0.95966  1.0000
  C   C5        1.0  0.94686  0.65664  0.34793  1.0000
  C   C6        1.0  0.05314  0.15664  0.15207  1.0000
  C   C7        1.0  0.05313  0.34336  0.65207  1.0000
  C   C8        1.0  0.94686  0.84336  0.84793  1.0000
  C   C9        1.0  0.84846  0.60097  0.23590  1.0000
  C   C10       1.0  0.15154  0.10097  0.26410  1.0000
  C   C11       1.0  0.15154  0.39903  0.76410  1.0000
  C   C12       1.0  0.84845  0.89903  0.73590  1.0000
  C   C13       1.0  0.71378  0.53840  0.23360  1.0000
  C   C14       1.0  0.28622  0.03840  0.26640  1.0000
  C   C15       1.0  0.28622  0.46160  0.76640  1.0000
  C   C16       1.0  0.71378  0.96160  0.73360  1.0000
  C   C17       1.0  0.69275  0.52761  0.35074  1.0000
  C   C18       1.0  0.30725  0.02761  0.14926  1.0000
  C   C19       1.0  0.30725  0.47239  0.64926  1.0000
  C   C20       1.0  0.69275  0.97239  0.85074  1.0000
  C   C21       1.0  0.08870  0.72785  0.35222  1.0000
  C   C22       1.0  0.91132  0.22785  0.14778  1.0000
  C   C23       1.0  0.91130  0.27216  0.64778  1.0000
  C   C24       1.0  0.08869  0.77215  0.85222  1.0000
  C   C25       1.0  0.75739  0.57301  0.57467  1.0000
  C   C26       1.0  0.24261  0.07301  0.92533  1.0000
  C   C27       1.0  0.24261  0.42699  0.42533  1.0000
  C   C28       1.0  0.75739  0.92699  0.07467  1.0000
  C   C29       1.0  0.62969  0.66366  0.57836  1.0000
  C   C30       1.0  0.37030  0.16366  0.92163  1.0000
  C   C31       1.0  0.37031  0.33634  0.42164  1.0000
  C   C32       1.0  0.62970  0.83634  0.07836  1.0000
  N   N1        1.0  0.79121  0.58218  0.45768  1.0000
  N   N2        1.0  0.20878  0.08218  0.04232  1.0000
  N   N3        1.0  0.20878  0.41782  0.54232  1.0000
  N   N4        1.0  0.79122  0.91782  0.95768  1.0000
  O   O1        1.0  0.60819  0.49408  0.13052  1.0000
  O   O2        1.0  0.39181  0.99408  0.36948  1.0000
  O   O3        1.0  0.39181  0.50592  0.86948  1.0000
  O   O4        1.0  0.60819  0.00592  0.63052  1.0000
  O   O5        1.0  0.09956  0.76417  0.24876  1.0000
  O   O6        1.0  0.90044  0.26416  0.25124  1.0000
  O   O7        1.0  0.90044  0.23583  0.75124  1.0000
  O   O8        1.0  0.09956  0.73584  0.74875  1.0000
  O   O9        1.0  0.18761  0.74162  0.46366  1.0000
  O   O10       1.0  0.81239  0.24162  0.03635  1.0000
  O   O11       1.0  0.81238  0.25838  0.53634  1.0000
  O   O12       1.0  0.18761  0.75838  0.96365  1.0000
  O   O13       1.0  0.59560  0.65422  0.67563  1.0000
  O   O14       1.0  0.40439  0.15421  0.82437  1.0000
  O   O15       1.0  0.40440  0.34578  0.32438  1.0000
  O   O16       1.0  0.59561  0.84578  0.17563  1.0000
  O   O17       1.0  0.56488  0.74195  0.48517  1.0000
  O   O18       1.0  0.43512  0.24195  0.01482  1.0000
  O   O19       1.0  0.43512  0.25805  0.51483  1.0000
  O   O20       1.0  0.56488  0.75805  0.98517  1.0000
  O   O21       1.0  0.36095  0.67428  0.23930  1.0000
  O   O22       1.0  0.63905  0.17428  0.26070  1.0000
  O   O23       1.0  0.63905  0.32572  0.76070  1.0000
  O   O24       1.0  0.36095  0.82572  0.73930  1.0000
  O   O25       1.0  0.26672  0.43008  0.08229  1.0000
  O   O26       1.0  0.73329  0.93008  0.41771  1.0000
  O   O27       1.0  0.73328  0.56992  0.91771  1.0000
  O   O28       1.0  0.26672  0.06991  0.58229  1.0000
