data_image0
_chemical_formula_structural       Zn4H36C32N4O28
_chemical_formula_sum              "Zn4 H36 C32 N4 O28"
_cell_length_a       9.12114
_cell_length_b       10.0388
_cell_length_c       11.2345
_cell_angle_alpha    90.0007
_cell_angle_beta     110.204
_cell_angle_gamma    89.9998

_space_group_name_H-M_alt    "P 1"
_space_group_IT_number       1

loop_
  _space_group_symop_operation_xyz
  'x, y, z'

loop_
  _atom_site_type_symbol
  _atom_site_label
  _atom_site_symmetry_multiplicity
  _atom_site_fract_x
  _atom_site_fract_y
  _atom_site_fract_z
  _atom_site_occupancy
  Zn  Zn1       1.0  0.37507  0.10706  0.52609  1.0000
  Zn  Zn2       1.0  0.62493  0.60706  0.97392  1.0000
  Zn  Zn3       1.0  0.62493  0.89294  0.47391  1.0000
  Zn  Zn4       1.0  0.37507  0.39294  0.02608  1.0000
  H   H1        1.0  0.46781  0.26411  0.71036  1.0000
  H   H2        1.0  0.53219  0.76411  0.78964  1.0000
  H   H3        1.0  0.53219  0.73589  0.28963  1.0000
  H   H4        1.0  0.46781  0.23589  0.21036  1.0000
  H   H5        1.0  0.29751  0.21875  0.71196  1.0000
  H   H6        1.0  0.70249  0.71874  0.78803  1.0000
  H   H7        1.0  0.70249  0.78125  0.28803  1.0000
  H   H8        1.0  0.29751  0.28125  0.21197  1.0000
  H   H9        1.0  0.29913  0.92925  0.66604  1.0000
  H   H10       1.0  0.70087  0.42925  0.83397  1.0000
  H   H11       1.0  0.70087  0.07075  0.33397  1.0000
  H   H12       1.0  0.29913  0.57075  0.16603  1.0000
  H   H13       1.0  0.32816  0.86298  0.55121  1.0000
  H   H14       1.0  0.67183  0.36298  0.94879  1.0000
  H   H15       1.0  0.67184  0.13702  0.44879  1.0000
  H   H16       1.0  0.32816  0.63702  0.05121  1.0000
  H   H17       1.0  0.99902  0.29640  0.53408  1.0000
  H   H18       1.0  0.00098  0.79639  0.96592  1.0000
  H   H19       1.0  0.00098  0.70360  0.46592  1.0000
  H   H20       1.0  0.99902  0.20360  0.03408  1.0000
  H   H21       1.0  0.88293  0.40261  0.13869  1.0000
  H   H22       1.0  0.11707  0.90261  0.36131  1.0000
  H   H23       1.0  0.11707  0.59740  0.86131  1.0000
  H   H24       1.0  0.88293  0.09739  0.63869  1.0000
  H   H25       1.0  0.58549  0.50571  0.35319  1.0000
  H   H26       1.0  0.41451  0.00571  0.14681  1.0000
  H   H27       1.0  0.41451  0.49429  0.64680  1.0000
  H   H28       1.0  0.58548  0.99429  0.85319  1.0000
  H   H29       1.0  0.74102  0.52411  0.58034  1.0000
  H   H30       1.0  0.25898  0.02410  0.91966  1.0000
  H   H31       1.0  0.25898  0.47589  0.41966  1.0000
  H   H32       1.0  0.74103  0.97590  0.08034  1.0000
  H   H33       1.0  0.87446  0.39214  0.64575  1.0000
  H   H34       1.0  0.12555  0.89213  0.85425  1.0000
  H   H35       1.0  0.12554  0.60786  0.35424  1.0000
  H   H36       1.0  0.87446  0.10787  0.14575  1.0000
  C   C1        1.0  0.92292  0.34115  0.44608  1.0000
  C   C2        1.0  0.07708  0.84115  0.05392  1.0000
  C   C3        1.0  0.07708  0.65886  0.55392  1.0000
  C   C4        1.0  0.92292  0.15885  0.94608  1.0000
  C   C5        1.0  0.95450  0.33862  0.33342  1.0000
  C   C6        1.0  0.04550  0.83862  0.16658  1.0000
  C   C7        1.0  0.04550  0.66138  0.66657  1.0000
  C   C8        1.0  0.95450  0.16138  0.83342  1.0000
  C   C9        1.0  0.85363  0.40071  0.22495  1.0000
  C   C10       1.0  0.14638  0.90071  0.27505  1.0000
  C   C11       1.0  0.14638  0.59929  0.77505  1.0000
  C   C12       1.0  0.85363  0.09929  0.72495  1.0000
  C   C13       1.0  0.71238  0.45894  0.22590  1.0000
  C   C14       1.0  0.28762  0.95893  0.27410  1.0000
  C   C15       1.0  0.28762  0.54107  0.77409  1.0000
  C   C16       1.0  0.71238  0.04107  0.72590  1.0000
  C   C17       1.0  0.68857  0.45959  0.34351  1.0000
  C   C18       1.0  0.31143  0.95960  0.15649  1.0000
  C   C19       1.0  0.31142  0.54040  0.65648  1.0000
  C   C20       1.0  0.68857  0.04041  0.84351  1.0000
  C   C21       1.0  0.10169  0.26836  0.33335  1.0000
  C   C22       1.0  0.89831  0.76837  0.16665  1.0000
  C   C23       1.0  0.89831  0.73164  0.66665  1.0000
  C   C24       1.0  0.10169  0.23163  0.83335  1.0000
  C   C25       1.0  0.76609  0.41895  0.56920  1.0000
  C   C26       1.0  0.23391  0.91894  0.93081  1.0000
  C   C27       1.0  0.23391  0.58105  0.43080  1.0000
  C   C28       1.0  0.76609  0.08106  0.06920  1.0000
  C   C29       1.0  0.63252  0.33670  0.58483  1.0000
  C   C30       1.0  0.36748  0.83670  0.91518  1.0000
  C   C31       1.0  0.36747  0.66331  0.41517  1.0000
  C   C32       1.0  0.63253  0.16330  0.08483  1.0000
  N   N1        1.0  0.79287  0.40453  0.44809  1.0000
  N   N2        1.0  0.20713  0.90452  0.05191  1.0000
  N   N3        1.0  0.20713  0.59548  0.55190  1.0000
  N   N4        1.0  0.79287  0.09548  0.94809  1.0000
  O   O1        1.0  0.60315  0.50937  0.12652  1.0000
  O   O2        1.0  0.39685  0.00937  0.37348  1.0000
  O   O3        1.0  0.39684  0.49063  0.87348  1.0000
  O   O4        1.0  0.60315  0.99063  0.62652  1.0000
  O   O5        1.0  0.12321  0.25494  0.22898  1.0000
  O   O6        1.0  0.87680  0.75496  0.27103  1.0000
  O   O7        1.0  0.87679  0.74504  0.77102  1.0000
  O   O8        1.0  0.12321  0.24504  0.72898  1.0000
  O   O9        1.0  0.19140  0.23082  0.44282  1.0000
  O   O10       1.0  0.80859  0.73082  0.05720  1.0000
  O   O11       1.0  0.80858  0.76917  0.55719  1.0000
  O   O12       1.0  0.19141  0.26918  0.94281  1.0000
  O   O13       1.0  0.60270  0.36638  0.68379  1.0000
  O   O14       1.0  0.39731  0.86637  0.81622  1.0000
  O   O15       1.0  0.39731  0.63363  0.31621  1.0000
  O   O16       1.0  0.60269  0.13363  0.18379  1.0000
  O   O17       1.0  0.56286  0.24972  0.50342  1.0000
  O   O18       1.0  0.43715  0.74972  0.99659  1.0000
  O   O19       1.0  0.43714  0.75028  0.49658  1.0000
  O   O20       1.0  0.56285  0.25028  0.00342  1.0000
  O   O21       1.0  0.39583  0.18704  0.70032  1.0000
  O   O22       1.0  0.60417  0.68704  0.79968  1.0000
  O   O23       1.0  0.60417  0.81296  0.29968  1.0000
  O   O24       1.0  0.39583  0.31296  0.20032  1.0000
  O   O25       1.0  0.26741  0.93596  0.57231  1.0000
  O   O26       1.0  0.73259  0.43595  0.92769  1.0000
  O   O27       1.0  0.73259  0.06405  0.42769  1.0000
  O   O28       1.0  0.26741  0.56404  0.07231  1.0000
