data_image0
_chemical_formula_structural       Pr4P4H32C28N4O38
_chemical_formula_sum              "Pr4 P4 H32 C28 N4 O38"
_cell_length_a       10.6865
_cell_length_b       11.7386
_cell_length_c       11.4778
_cell_angle_alpha    105.146
_cell_angle_beta     98.8861
_cell_angle_gamma    110.849

_space_group_name_H-M_alt    "P 1"
_space_group_IT_number       1

loop_
  _space_group_symop_operation_xyz
  'x, y, z'

loop_
  _atom_site_type_symbol
  _atom_site_label
  _atom_site_symmetry_multiplicity
  _atom_site_fract_x
  _atom_site_fract_y
  _atom_site_fract_z
  _atom_site_occupancy
  Pr  Pr1       1.0  0.60525  0.45064  0.14696  1.0000
  Pr  Pr2       1.0  0.39475  0.54936  0.85304  1.0000
  Pr  Pr3       1.0  0.75289  0.05032  0.37212  1.0000
  Pr  Pr4       1.0  0.24709  0.94968  0.62788  1.0000
  P   P1        1.0  0.25773  0.46011  0.11383  1.0000
  P   P2        1.0  0.74228  0.53989  0.88617  1.0000
  P   P3        1.0  0.96650  0.64601  0.38075  1.0000
  P   P4        1.0  0.03350  0.35399  0.61924  1.0000
  H   H1        1.0  0.08646  0.31355  0.15237  1.0000
  H   H2        1.0  0.91354  0.68645  0.84762  1.0000
  H   H3        1.0  0.99684  0.64188  0.56913  1.0000
  H   H4        1.0  0.00314  0.35811  0.43086  1.0000
  H   H5        1.0  0.65368  0.69852  0.34151  1.0000
  H   H6        1.0  0.34632  0.30149  0.65849  1.0000
  H   H7        1.0  0.64971  0.60743  0.42118  1.0000
  H   H8        1.0  0.35029  0.39256  0.57879  1.0000
  H   H9        1.0  0.22687  0.74203  0.32962  1.0000
  H   H10       1.0  0.77313  0.25797  0.67038  1.0000
  H   H11       1.0  0.09735  0.04952  0.26873  1.0000
  H   H12       1.0  0.90268  0.95049  0.73127  1.0000
  H   H13       1.0  0.32894  0.58948  0.33657  1.0000
  H   H14       1.0  0.67107  0.41052  0.66343  1.0000
  H   H15       1.0  0.37776  0.68603  0.24346  1.0000
  H   H16       1.0  0.62223  0.31397  0.75654  1.0000
  H   H17       1.0  0.13844  0.55714  0.39938  1.0000
  H   H18       1.0  0.86157  0.44287  0.60062  1.0000
  H   H19       1.0  0.00961  0.47007  0.24984  1.0000
  H   H20       1.0  0.99039  0.52993  0.75016  1.0000
  H   H21       1.0  0.11819  0.59469  0.06332  1.0000
  H   H22       1.0  0.88182  0.40532  0.93669  1.0000
  H   H23       1.0  0.98836  0.61641  0.13668  1.0000
  H   H24       1.0  0.01165  0.38359  0.86333  1.0000
  H   H25       1.0  0.31419  0.78938  0.05574  1.0000
  H   H26       1.0  0.68581  0.21060  0.94425  1.0000
  H   H27       1.0  0.41044  0.02704  0.08946  1.0000
  H   H28       1.0  0.58958  0.97294  0.91054  1.0000
  H   H29       1.0  0.29821  0.16100  0.20221  1.0000
  H   H30       1.0  0.70183  0.83900  0.79778  1.0000
  H   H31       1.0  0.00220  0.83693  0.23784  1.0000
  H   H32       1.0  0.99781  0.16310  0.76216  1.0000
  C   C1        1.0  0.29169  0.60335  0.24905  1.0000
  C   C2        1.0  0.70832  0.39665  0.75096  1.0000
  C   C3        1.0  0.07549  0.56609  0.32005  1.0000
  C   C4        1.0  0.92451  0.43391  0.67995  1.0000
  C   C5        1.0  0.09994  0.65495  0.14331  1.0000
  C   C6        1.0  0.90006  0.34505  0.85669  1.0000
  C   C7        1.0  0.15374  0.79334  0.14807  1.0000
  C   C8        1.0  0.84628  0.20666  0.85193  1.0000
  C   C9        1.0  0.26755  0.84932  0.10427  1.0000
  C   C10       1.0  0.73247  0.15067  0.89572  1.0000
  C   C11       1.0  0.32093  0.98156  0.12141  1.0000
  C   C12       1.0  0.67909  0.01844  0.87859  1.0000
  C   C13       1.0  0.25919  0.05647  0.18148  1.0000
  C   C14       1.0  0.74084  0.94353  0.81853  1.0000
  C   C15       1.0  0.09222  0.87157  0.20252  1.0000
  C   C16       1.0  0.90781  0.12844  0.79748  1.0000
  C   C17       1.0  0.64829  0.27266  0.31626  1.0000
  C   C18       1.0  0.35169  0.72731  0.68374  1.0000
  C   C19       1.0  0.77327  0.28906  0.25810  1.0000
  C   C20       1.0  0.22670  0.71091  0.74189  1.0000
  C   C21       1.0  0.61917  0.75495  0.14623  1.0000
  C   C22       1.0  0.38082  0.24505  0.85377  1.0000
  C   C23       1.0  0.58847  0.84430  0.07842  1.0000
  C   C24       1.0  0.41151  0.15570  0.92159  1.0000
  C   C25       1.0  0.54589  0.05787  0.56103  1.0000
  C   C26       1.0  0.45409  0.94213  0.43898  1.0000
  C   C27       1.0  0.04537  0.03068  0.45962  1.0000
  C   C28       1.0  0.95462  0.96932  0.54038  1.0000
  N   N1        1.0  0.17478  0.64524  0.26293  1.0000
  N   N2        1.0  0.82522  0.35475  0.73707  1.0000
  N   N3        1.0  0.14554  0.99846  0.21746  1.0000
  N   N4        1.0  0.85448  0.00154  0.78254  1.0000
  O   O1        1.0  0.35749  0.40290  0.14887  1.0000
  O   O2        1.0  0.64251  0.59710  0.85113  1.0000
  O   O3        1.0  0.25281  0.49986  0.99863  1.0000
  O   O4        1.0  0.74720  0.50014  0.00137  1.0000
  O   O5        1.0  0.09865  0.35945  0.09250  1.0000
  O   O6        1.0  0.90135  0.64056  0.90750  1.0000
  O   O7        1.0  0.06238  0.78819  0.43968  1.0000
  O   O8        1.0  0.93762  0.21181  0.56030  1.0000
  O   O9        1.0  0.83811  0.60915  0.27891  1.0000
  O   O10       1.0  0.16189  0.39084  0.72107  1.0000
  O   O11       1.0  0.92230  0.58851  0.48794  1.0000
  O   O12       1.0  0.07769  0.41150  0.51206  1.0000
  O   O13       1.0  0.58577  0.34478  0.30608  1.0000
  O   O14       1.0  0.41423  0.65521  0.69392  1.0000
  O   O15       1.0  0.61912  0.18862  0.36930  1.0000
  O   O16       1.0  0.38087  0.81138  0.63073  1.0000
  O   O17       1.0  0.78008  0.34224  0.17620  1.0000
  O   O18       1.0  0.21989  0.65775  0.82380  1.0000
  O   O19       1.0  0.86157  0.24796  0.30025  1.0000
  O   O20       1.0  0.13841  0.75203  0.69974  1.0000
  O   O21       1.0  0.55939  0.63291  0.08681  1.0000
  O   O22       1.0  0.44063  0.36712  0.91319  1.0000
  O   O23       1.0  0.69851  0.80944  0.25645  1.0000
  O   O24       1.0  0.30149  0.19057  0.74355  1.0000
  O   O25       1.0  0.50744  0.78927  0.96837  1.0000
  O   O26       1.0  0.49256  0.21073  0.03164  1.0000
  O   O27       1.0  0.64465  0.96487  0.13945  1.0000
  O   O28       1.0  0.35532  0.03514  0.86056  1.0000
  O   O29       1.0  0.67468  0.10995  0.56899  1.0000
  O   O30       1.0  0.32530  0.89005  0.43101  1.0000
  O   O31       1.0  0.48863  0.09256  0.64335  1.0000
  O   O32       1.0  0.51138  0.90746  0.35667  1.0000
  O   O33       1.0  0.98193  0.04374  0.36303  1.0000
  O   O34       1.0  0.01804  0.95624  0.63697  1.0000
  O   O35       1.0  0.17387  0.06147  0.49133  1.0000
  O   O36       1.0  0.82612  0.93853  0.50867  1.0000
  O   O37       1.0  0.59687  0.61355  0.34780  1.0000
  O   O38       1.0  0.40313  0.38646  0.65218  1.0000
