data_image0
_chemical_formula_structural       Co4H36C32N4O28
_chemical_formula_sum              "Co4 H36 C32 N4 O28"
_cell_length_a       8.78591
_cell_length_b       10.1644
_cell_length_c       11.1022
_cell_angle_alpha    90.0728
_cell_angle_beta     109.242
_cell_angle_gamma    90.091

_space_group_name_H-M_alt    "P 1"
_space_group_IT_number       1

loop_
  _space_group_symop_operation_xyz
  'x, y, z'

loop_
  _atom_site_type_symbol
  _atom_site_label
  _atom_site_symmetry_multiplicity
  _atom_site_fract_x
  _atom_site_fract_y
  _atom_site_fract_z
  _atom_site_occupancy
  Co  Co1       1.0  0.87973  0.61279  0.52676  1.0000
  Co  Co2       1.0  0.11854  0.11170  0.97328  1.0000
  Co  Co3       1.0  0.12066  0.38717  0.47325  1.0000
  Co  Co4       1.0  0.88179  0.88837  0.02666  1.0000
  H   H1        1.0  0.61867  0.42437  0.53596  1.0000
  H   H2        1.0  0.36953  0.91764  0.96567  1.0000
  H   H3        1.0  0.37121  0.58404  0.46385  1.0000
  H   H4        1.0  0.62360  0.07673  0.03411  1.0000
  H   H5        1.0  0.76674  0.43171  0.66403  1.0000
  H   H6        1.0  0.23086  0.93509  0.83470  1.0000
  H   H7        1.0  0.23157  0.56501  0.33371  1.0000
  H   H8        1.0  0.76815  0.06715  0.16380  1.0000
  H   H9        1.0  0.79042  0.71983  0.70962  1.0000
  H   H10       1.0  0.20948  0.21983  0.79096  1.0000
  H   H11       1.0  0.21009  0.27972  0.29039  1.0000
  H   H12       1.0  0.79094  0.78052  0.20904  1.0000
  H   H13       1.0  0.97703  0.75465  0.72335  1.0000
  H   H14       1.0  0.02291  0.25416  0.77720  1.0000
  H   H15       1.0  0.02315  0.24586  0.27652  1.0000
  H   H16       1.0  0.97714  0.74535  0.22268  1.0000
  H   H17       1.0  0.50635  0.30934  0.96315  1.0000
  H   H18       1.0  0.49325  0.80980  0.53748  1.0000
  H   H19       1.0  0.49394  0.69038  0.03720  1.0000
  H   H20       1.0  0.50712  0.19063  0.46283  1.0000
  H   H21       1.0  0.62547  0.38605  0.36650  1.0000
  H   H22       1.0  0.37537  0.88720  0.13498  1.0000
  H   H23       1.0  0.37605  0.61314  0.63436  1.0000
  H   H24       1.0  0.62586  0.11315  0.86559  1.0000
  H   H25       1.0  0.92736  0.51852  0.15300  1.0000
  H   H26       1.0  0.07354  0.01952  0.34863  1.0000
  H   H27       1.0  0.07282  0.48130  0.84705  1.0000
  H   H28       1.0  0.92670  0.98073  0.65124  1.0000
  H   H29       1.0  0.79141  0.53372  0.92878  1.0000
  H   H30       1.0  0.20968  0.03442  0.57293  1.0000
  H   H31       1.0  0.20872  0.46582  0.07115  1.0000
  H   H32       1.0  0.79006  0.96594  0.42678  1.0000
  H   H33       1.0  0.63141  0.42282  0.85495  1.0000
  H   H34       1.0  0.36901  0.92329  0.64620  1.0000
  H   H35       1.0  0.36876  0.57665  0.14521  1.0000
  H   H36       1.0  0.63109  0.07744  0.35384  1.0000
  C   C1        1.0  0.58397  0.34904  0.05397  1.0000
  C   C2        1.0  0.41574  0.84940  0.44677  1.0000
  C   C3        1.0  0.41629  0.65080  0.94631  1.0000
  C   C4        1.0  0.58455  0.15078  0.55343  1.0000
  C   C5        1.0  0.55100  0.33729  0.16764  1.0000
  C   C6        1.0  0.44860  0.83768  0.33301  1.0000
  C   C7        1.0  0.44938  0.66252  0.83270  1.0000
  C   C8        1.0  0.55180  0.16238  0.66725  1.0000
  C   C9        1.0  0.65337  0.39503  0.27870  1.0000
  C   C10       1.0  0.34673  0.89592  0.22246  1.0000
  C   C11       1.0  0.34721  0.60453  0.72174  1.0000
  C   C12       1.0  0.65380  0.10419  0.77781  1.0000
  C   C13       1.0  0.79534  0.45981  0.27876  1.0000
  C   C14       1.0  0.20502  0.96065  0.22259  1.0000
  C   C15       1.0  0.20501  0.53994  0.72139  1.0000
  C   C16       1.0  0.79535  0.03941  0.77742  1.0000
  C   C17       1.0  0.82165  0.46850  0.16042  1.0000
  C   C18       1.0  0.17890  0.96937  0.34101  1.0000
  C   C19       1.0  0.17858  0.53131  0.83970  1.0000
  C   C20       1.0  0.82135  0.03077  0.65896  1.0000
  C   C21       1.0  0.40400  0.26012  0.16775  1.0000
  C   C22       1.0  0.59486  0.76024  0.33222  1.0000
  C   C23       1.0  0.59638  0.73970  0.83249  1.0000
  C   C24       1.0  0.40563  0.23994  0.66803  1.0000
  C   C25       1.0  0.74698  0.43320  0.93197  1.0000
  C   C26       1.0  0.25351  0.93388  0.56923  1.0000
  C   C27       1.0  0.25324  0.56633  0.06810  1.0000
  C   C28       1.0  0.74661  0.06657  0.43070  1.0000
  C   C29       1.0  0.86724  0.33689  0.90644  1.0000
  C   C30       1.0  0.13253  0.83770  0.59416  1.0000
  C   C31       1.0  0.13300  0.66266  0.09352  1.0000
  C   C32       1.0  0.86787  0.16250  0.40573  1.0000
  N   N1        1.0  0.71709  0.41618  0.05361  1.0000
  N   N2        1.0  0.28321  0.91693  0.44750  1.0000
  N   N3        1.0  0.28317  0.58351  0.94653  1.0000
  N   N4        1.0  0.71705  0.08339  0.55253  1.0000
  O   O1        1.0  0.90535  0.50854  0.38098  1.0000
  O   O2        1.0  0.09524  0.00927  0.12062  1.0000
  O   O3        1.0  0.09516  0.49125  0.61917  1.0000
  O   O4        1.0  0.90526  0.99074  0.87938  1.0000
  O   O5        1.0  0.38528  0.23698  0.27375  1.0000
  O   O6        1.0  0.61426  0.73841  0.22627  1.0000
  O   O7        1.0  0.61490  0.76281  0.72642  1.0000
  O   O8        1.0  0.38599  0.26158  0.77393  1.0000
  O   O9        1.0  0.31188  0.22558  0.05744  1.0000
  O   O10       1.0  0.68558  0.72405  0.44227  1.0000
  O   O11       1.0  0.68862  0.77419  0.94277  1.0000
  O   O12       1.0  0.31520  0.27658  0.55801  1.0000
  O   O13       1.0  0.94432  0.25780  0.99187  1.0000
  O   O14       1.0  0.05464  0.75884  0.50836  1.0000
  O   O15       1.0  0.05681  0.74245  0.00846  1.0000
  O   O16       1.0  0.94673  0.24065  0.49187  1.0000
  O   O17       1.0  0.87877  0.35058  0.79551  1.0000
  O   O18       1.0  0.12114  0.85136  0.70516  1.0000
  O   O19       1.0  0.12062  0.64828  0.20412  1.0000
  O   O20       1.0  0.87862  0.14937  0.29448  1.0000
  O   O21       1.0  0.70491  0.48197  0.58588  1.0000
  O   O22       1.0  0.29476  0.98253  0.91456  1.0000
  O   O23       1.0  0.29630  0.51841  0.41355  1.0000
  O   O24       1.0  0.70613  0.01716  0.08513  1.0000
  O   O25       1.0  0.89232  0.68458  0.70039  1.0000
  O   O26       1.0  0.10749  0.18427  0.79986  1.0000
  O   O27       1.0  0.10843  0.31550  0.29969  1.0000
  O   O28       1.0  0.89311  0.81565  0.20017  1.0000
