data_image0
_chemical_formula_structural       ZnH28C32N8O4F6
_chemical_formula_sum              "Zn1 H28 C32 N8 O4 F6"
_cell_length_a       8.81223
_cell_length_b       9.2825
_cell_length_c       11.3763
_cell_angle_alpha    82.4881
_cell_angle_beta     68.0991
_cell_angle_gamma    67.7705

_space_group_name_H-M_alt    "P 1"
_space_group_IT_number       1

loop_
  _space_group_symop_operation_xyz
  'x, y, z'

loop_
  _atom_site_type_symbol
  _atom_site_label
  _atom_site_symmetry_multiplicity
  _atom_site_fract_x
  _atom_site_fract_y
  _atom_site_fract_z
  _atom_site_occupancy
  Zn  Zn1       1.0  1.00000  0.00000  0.50000  1.0000
  H   H1        1.0  0.80023  0.57180  0.81679  1.0000
  H   H2        1.0  0.19977  0.42820  0.18321  1.0000
  H   H3        1.0  0.51728  0.76170  0.95166  1.0000
  H   H4        1.0  0.48272  0.23829  0.04834  1.0000
  H   H5        1.0  0.40105  0.72332  0.18313  1.0000
  H   H6        1.0  0.59895  0.27668  0.81687  1.0000
  H   H7        1.0  0.84138  0.08898  0.99482  1.0000
  H   H8        1.0  0.15863  0.91102  0.00518  1.0000
  H   H9        1.0  0.84949  0.30323  0.14806  1.0000
  H   H10       1.0  0.15051  0.69677  0.85194  1.0000
  H   H11       1.0  0.09019  0.36131  0.81937  1.0000
  H   H12       1.0  0.90981  0.63869  0.18063  1.0000
  H   H13       1.0  0.08872  0.23768  0.95184  1.0000
  H   H14       1.0  0.91128  0.76232  0.04816  1.0000
  H   H15       1.0  0.00382  0.37567  0.46201  1.0000
  H   H16       1.0  0.99618  0.62433  0.53799  1.0000
  H   H17       1.0  0.67476  0.18057  0.40572  1.0000
  H   H18       1.0  0.32524  0.81943  0.59428  1.0000
  H   H19       1.0  0.44958  0.59772  0.36891  1.0000
  H   H20       1.0  0.55042  0.40228  0.63109  1.0000
  H   H21       1.0  0.46381  0.40836  0.34079  1.0000
  H   H22       1.0  0.53619  0.59164  0.65921  1.0000
  H   H23       1.0  0.74657  0.60869  0.38601  1.0000
  H   H24       1.0  0.25343  0.39132  0.61399  1.0000
  H   H25       1.0  0.09227  0.24406  0.63318  1.0000
  H   H26       1.0  0.90773  0.75594  0.36682  1.0000
  H   H27       1.0  0.83145  0.93222  0.80612  1.0000
  H   H28       1.0  0.16855  0.06778  0.19388  1.0000
  C   C1        1.0  0.52694  0.01738  0.26931  1.0000
  C   C2        1.0  0.47306  0.98262  0.73069  1.0000
  C   C3        1.0  0.89239  0.09552  0.89246  1.0000
  C   C4        1.0  0.10761  0.90448  0.10754  1.0000
  C   C5        1.0  0.77545  0.40380  0.10508  1.0000
  C   C6        1.0  0.22455  0.59620  0.89492  1.0000
  C   C7        1.0  0.89749  0.36973  0.43894  1.0000
  C   C8        1.0  0.10251  0.63027  0.56106  1.0000
  C   C9        1.0  0.73315  0.26246  0.41015  1.0000
  C   C10       1.0  0.26685  0.73754  0.58985  1.0000
  C   C11       1.0  0.88782  0.02004  0.79830  1.0000
  C   C12       1.0  0.11218  0.97996  0.20170  1.0000
  C   C13       1.0  0.53909  0.48561  0.32149  1.0000
  C   C14       1.0  0.46091  0.51439  0.67851  1.0000
  C   C15       1.0  0.61600  0.50980  0.18089  1.0000
  C   C16       1.0  0.38400  0.49021  0.81911  1.0000
  C   C17       1.0  0.01915  0.18233  0.70515  1.0000
  C   C18       1.0  0.98086  0.81767  0.29485  1.0000
  C   C19       1.0  0.84229  0.42509  0.97450  1.0000
  C   C20       1.0  0.15772  0.57491  0.02550  1.0000
  C   C21       1.0  0.01032  0.30561  0.89409  1.0000
  C   C22       1.0  0.98968  0.69440  0.10591  1.0000
  C   C23       1.0  0.52399  0.63856  0.12453  1.0000
  C   C24       1.0  0.47601  0.36144  0.87547  1.0000
  C   C25       1.0  0.77646  0.48453  0.39666  1.0000
  C   C26       1.0  0.22354  0.51547  0.60334  1.0000
  C   C27       1.0  0.74869  0.55438  0.91880  1.0000
  C   C28       1.0  0.25131  0.44562  0.08120  1.0000
  C   C29       1.0  0.59004  0.66050  0.99411  1.0000
  C   C30       1.0  0.40996  0.33950  0.00589  1.0000
  C   C31       1.0  0.34983  0.10008  0.37827  1.0000
  C   C32       1.0  0.65017  0.89992  0.62173  1.0000
  N   N1        1.0  0.97675  0.19787  0.83174  1.0000
  N   N2        1.0  0.02325  0.80213  0.16826  1.0000
  N   N3        1.0  0.67348  0.41445  0.37860  1.0000
  N   N4        1.0  0.32652  0.58555  0.62141  1.0000
  N   N5        1.0  0.96689  0.07554  0.68208  1.0000
  N   N6        1.0  0.03310  0.92446  0.31792  1.0000
  N   N7        1.0  0.86875  0.23184  0.44714  1.0000
  N   N8        1.0  0.13125  0.76816  0.55286  1.0000
  O   O1        1.0  0.32413  0.23009  0.41676  1.0000
  O   O2        1.0  0.67587  0.76991  0.58324  1.0000
  O   O3        1.0  0.25698  0.01621  0.41137  1.0000
  O   O4        1.0  0.74302  0.98379  0.58863  1.0000
  F   F1        1.0  0.64170  0.09512  0.23314  1.0000
  F   F2        1.0  0.35830  0.90488  0.76687  1.0000
  F   F3        1.0  0.61311  0.87164  0.30434  1.0000
  F   F4        1.0  0.38689  0.12836  0.69566  1.0000
  F   F5        1.0  0.50017  0.99918  0.16187  1.0000
  F   F6        1.0  0.49983  0.00082  0.83813  1.0000
