data_image0
_chemical_formula_structural       Zn2H28C36N8O8F12
_chemical_formula_sum              "Zn2 H28 C36 N8 O8 F12"
_cell_length_a       9.76162
_cell_length_b       11.2646
_cell_length_c       11.5862
_cell_angle_alpha    98.842
_cell_angle_beta     108.029
_cell_angle_gamma    112.868

_space_group_name_H-M_alt    "P 1"
_space_group_IT_number       1

loop_
  _space_group_symop_operation_xyz
  'x, y, z'

loop_
  _atom_site_type_symbol
  _atom_site_label
  _atom_site_symmetry_multiplicity
  _atom_site_fract_x
  _atom_site_fract_y
  _atom_site_fract_z
  _atom_site_occupancy
  Zn  Zn1       1.0  0.15802  0.16630  0.37622  1.0000
  Zn  Zn2       1.0  0.84198  0.83370  0.62378  1.0000
  H   H1        1.0  0.38197  0.21946  0.21244  1.0000
  H   H2        1.0  0.61803  0.78054  0.78755  1.0000
  H   H3        1.0  0.43244  0.61811  0.29142  1.0000
  H   H4        1.0  0.56756  0.38189  0.70858  1.0000
  H   H5        1.0  0.24263  0.47063  0.40591  1.0000
  H   H6        1.0  0.75737  0.52937  0.59409  1.0000
  H   H7        1.0  0.65079  0.56048  0.22419  1.0000
  H   H8        1.0  0.34921  0.43953  0.77581  1.0000
  H   H9        1.0  0.47077  0.49759  0.08229  1.0000
  H   H10       1.0  0.52923  0.50241  0.91771  1.0000
  H   H11       1.0  0.34302  0.24905  0.94424  1.0000
  H   H12       1.0  0.65698  0.75095  0.05576  1.0000
  H   H13       1.0  0.68413  0.09332  0.95822  1.0000
  H   H14       1.0  0.31587  0.90668  0.04178  1.0000
  H   H15       1.0  0.81699  0.45183  0.25416  1.0000
  H   H16       1.0  0.18301  0.54817  0.74584  1.0000
  H   H17       1.0  0.59857  0.09349  0.69979  1.0000
  H   H18       1.0  0.40143  0.90651  0.30021  1.0000
  H   H19       1.0  0.49475  0.15982  0.47694  1.0000
  H   H20       1.0  0.50525  0.84018  0.52306  1.0000
  H   H21       1.0  0.15342  0.10204  0.64314  1.0000
  H   H22       1.0  0.84658  0.89796  0.35687  1.0000
  H   H23       1.0  0.25302  0.01265  0.81247  1.0000
  H   H24       1.0  0.74698  0.98735  0.18753  1.0000
  H   H25       1.0  0.39938  0.95822  0.80841  1.0000
  H   H26       1.0  0.60062  0.04178  0.19159  1.0000
  H   H27       1.0  0.88761  0.28026  0.16047  1.0000
  H   H28       1.0  0.11239  0.71974  0.83953  1.0000
  C   C1        1.0  0.37018  0.30741  0.25006  1.0000
  C   C2        1.0  0.62982  0.69259  0.74994  1.0000
  C   C3        1.0  0.44057  0.13981  0.54497  1.0000
  C   C4        1.0  0.55943  0.86019  0.45503  1.0000
  C   C5        1.0  0.50020  0.15856  0.93971  1.0000
  C   C6        1.0  0.49980  0.84144  0.06029  1.0000
  C   C7        1.0  0.01331  0.28761  0.49570  1.0000
  C   C8        1.0  0.98668  0.71238  0.50430  1.0000
  C   C9        1.0  0.76792  0.27324  0.11335  1.0000
  C   C10       1.0  0.23208  0.72676  0.88665  1.0000
  C   C11       1.0  0.46252  0.25597  0.99227  1.0000
  C   C12       1.0  0.53748  0.74403  0.00773  1.0000
  C   C13       1.0  0.25947  0.11063  0.62595  1.0000
  C   C14       1.0  0.74053  0.88937  0.37405  1.0000
  C   C15       1.0  0.86292  0.28148  0.52050  1.0000
  C   C16       1.0  0.13708  0.71852  0.47950  1.0000
  C   C17       1.0  0.09891  0.93105  0.20522  1.0000
  C   C18       1.0  0.90109  0.06895  0.79478  1.0000
  C   C19       1.0  0.65391  0.16798  0.00066  1.0000
  C   C20       1.0  0.34609  0.83202  0.99934  1.0000
  C   C21       1.0  0.37654  0.04640  0.81699  1.0000
  C   C22       1.0  0.62346  0.95360  0.18301  1.0000
  C   C23       1.0  0.49317  0.10739  0.65412  1.0000
  C   C24       1.0  0.50682  0.89261  0.34588  1.0000
  C   C25       1.0  0.57642  0.36200  0.10512  1.0000
  C   C26       1.0  0.42358  0.63800  0.89488  1.0000
  C   C27       1.0  0.72945  0.36973  0.16581  1.0000
  C   C28       1.0  0.27055  0.63028  0.83419  1.0000
  C   C29       1.0  0.53787  0.46956  0.15920  1.0000
  C   C30       1.0  0.46212  0.53044  0.84080  1.0000
  C   C31       1.0  0.99992  0.77809  0.12343  1.0000
  C   C32       1.0  0.00008  0.22191  0.87657  1.0000
  C   C33       1.0  0.29854  0.44081  0.34748  1.0000
  C   C34       1.0  0.70146  0.55919  0.65252  1.0000
  C   C35       1.0  0.39321  0.51442  0.29260  1.0000
  C   C36       1.0  0.60679  0.48558  0.70740  1.0000
  N   N1        1.0  0.37682  0.08877  0.70333  1.0000
  N   N2        1.0  0.62318  0.91123  0.29667  1.0000
  N   N3        1.0  0.28445  0.31163  0.31974  1.0000
  N   N4        1.0  0.71555  0.68837  0.68025  1.0000
  N   N5        1.0  0.43751  0.42899  0.23212  1.0000
  N   N6        1.0  0.56249  0.57101  0.76788  1.0000
  N   N7        1.0  0.29486  0.14163  0.52855  1.0000
  N   N8        1.0  0.70514  0.85837  0.47145  1.0000
  O   O1        1.0  0.24236  0.99236  0.21888  1.0000
  O   O2        1.0  0.75764  0.00764  0.78111  1.0000
  O   O3        1.0  0.01722  0.97753  0.24794  1.0000
  O   O4        1.0  0.98278  0.02246  0.75206  1.0000
  O   O5        1.0  0.97437  0.18624  0.40215  1.0000
  O   O6        1.0  0.02564  0.81376  0.59785  1.0000
  O   O7        1.0  0.14940  0.38205  0.56676  1.0000
  O   O8        1.0  0.85061  0.61796  0.43324  1.0000
  F   F1        1.0  0.81031  0.18070  0.57326  1.0000
  F   F2        1.0  0.18969  0.81930  0.42675  1.0000
  F   F3        1.0  0.73440  0.25399  0.41142  1.0000
  F   F4        1.0  0.26560  0.74601  0.58859  1.0000
  F   F5        1.0  0.09488  0.71594  0.13069  1.0000
  F   F6        1.0  0.90512  0.28406  0.86931  1.0000
  F   F7        1.0  0.87905  0.70569  0.15831  1.0000
  F   F8        1.0  0.12095  0.29431  0.84169  1.0000
  F   F9        1.0  0.89739  0.39884  0.60306  1.0000
  F   F10       1.0  0.10261  0.60116  0.39694  1.0000
  F   F11       1.0  0.92681  0.76668  0.99742  1.0000
  F   F12       1.0  0.07319  0.23332  0.00258  1.0000
