data_image0
_chemical_formula_structural       CdCo2H16C12N4O16
_chemical_formula_sum              "Cd1 Co2 H16 C12 N4 O16"
_cell_length_a       7.48804
_cell_length_b       8.94923
_cell_length_c       8.94926
_cell_angle_alpha    90.0002
_cell_angle_beta     90
_cell_angle_gamma    90.0003

_space_group_name_H-M_alt    "P 1"
_space_group_IT_number       1

loop_
  _space_group_symop_operation_xyz
  'x, y, z'

loop_
  _atom_site_type_symbol
  _atom_site_label
  _atom_site_symmetry_multiplicity
  _atom_site_fract_x
  _atom_site_fract_y
  _atom_site_fract_z
  _atom_site_occupancy
  Cd  Cd1       1.0  1.00000  0.50000  0.50000  1.0000
  Co  Co1       1.0  0.54327  0.50000  1.00000  1.0000
  Co  Co2       1.0  0.45672  0.00000  0.50000  1.0000
  H   H1        1.0  0.18272  0.62689  0.88368  1.0000
  H   H2        1.0  0.18272  0.37310  0.11632  1.0000
  H   H3        1.0  0.81728  0.88368  0.37311  1.0000
  H   H4        1.0  0.81728  0.11633  0.62689  1.0000
  H   H5        1.0  0.07147  0.63215  0.06024  1.0000
  H   H6        1.0  0.07147  0.36784  0.93977  1.0000
  H   H7        1.0  0.92853  0.06024  0.36785  1.0000
  H   H8        1.0  0.92853  0.93976  0.63216  1.0000
  H   H9        1.0  0.34445  0.62051  0.18558  1.0000
  H   H10       1.0  0.34445  0.37949  0.81442  1.0000
  H   H11       1.0  0.65555  0.18558  0.37948  1.0000
  H   H12       1.0  0.65555  0.81442  0.62051  1.0000
  H   H13       1.0  0.38860  0.73803  0.04557  1.0000
  H   H14       1.0  0.38860  0.26197  0.95443  1.0000
  H   H15       1.0  0.61140  0.04556  0.26197  1.0000
  H   H16       1.0  0.61140  0.95444  0.73803  1.0000
  C   C1        1.0  0.18498  0.58470  0.99888  1.0000
  C   C2        1.0  0.18498  0.41530  0.00112  1.0000
  C   C3        1.0  0.81502  0.99888  0.41530  1.0000
  C   C4        1.0  0.81502  0.00112  0.58470  1.0000
  C   C5        1.0  0.77630  0.41976  0.78633  1.0000
  C   C6        1.0  0.77629  0.58024  0.21368  1.0000
  C   C7        1.0  0.22371  0.78631  0.58025  1.0000
  C   C8        1.0  0.22371  0.21369  0.41976  1.0000
  C   C9        1.0  0.67935  0.56087  0.73111  1.0000
  C   C10       1.0  0.67936  0.43914  0.26889  1.0000
  C   C11       1.0  0.32064  0.73110  0.43915  1.0000
  C   C12       1.0  0.32063  0.26890  0.56085  1.0000
  N   N1        1.0  0.35623  0.62974  0.07010  1.0000
  N   N2        1.0  0.35623  0.37026  0.92990  1.0000
  N   N3        1.0  0.64378  0.07010  0.37026  1.0000
  N   N4        1.0  0.64377  0.92990  0.62974  1.0000
  O   O1        1.0  0.72490  0.62225  0.61177  1.0000
  O   O2        1.0  0.72491  0.37774  0.38823  1.0000
  O   O3        1.0  0.27510  0.61175  0.37775  1.0000
  O   O4        1.0  0.27510  0.38824  0.62225  1.0000
  O   O5        1.0  0.55308  0.60831  0.81709  1.0000
  O   O6        1.0  0.55308  0.39168  0.18291  1.0000
  O   O7        1.0  0.44692  0.81709  0.39169  1.0000
  O   O8        1.0  0.44693  0.18291  0.60831  1.0000
  O   O9        1.0  0.72292  0.37076  0.91394  1.0000
  O   O10       1.0  0.72291  0.62925  0.08605  1.0000
  O   O11       1.0  0.27708  0.91395  0.62924  1.0000
  O   O12       1.0  0.27708  0.08604  0.37075  1.0000
  O   O13       1.0  0.89850  0.36216  0.71020  1.0000
  O   O14       1.0  0.89850  0.63785  0.28979  1.0000
  O   O15       1.0  0.10150  0.71020  0.63785  1.0000
  O   O16       1.0  0.10150  0.28980  0.36214  1.0000
