data_image0
_chemical_formula_structural       Cd6H38C24N4Cl14O4
_chemical_formula_sum              "Cd6 H38 C24 N4 Cl14 O4"
_cell_length_a       10.124
_cell_length_b       9.84209
_cell_length_c       12.8377
_cell_angle_alpha    76.2169
_cell_angle_beta     74.8892
_cell_angle_gamma    74.2884

_space_group_name_H-M_alt    "P 1"
_space_group_IT_number       1

loop_
  _space_group_symop_operation_xyz
  'x, y, z'

loop_
  _atom_site_type_symbol
  _atom_site_label
  _atom_site_symmetry_multiplicity
  _atom_site_fract_x
  _atom_site_fract_y
  _atom_site_fract_z
  _atom_site_occupancy
  Cd  Cd1       1.0  0.99626  0.34381  0.17717  1.0000
  Cd  Cd2       1.0  0.00374  0.65619  0.82283  1.0000
  Cd  Cd3       1.0  0.39446  0.25089  0.19703  1.0000
  Cd  Cd4       1.0  0.60554  0.74912  0.80297  1.0000
  Cd  Cd5       1.0  0.68622  0.44808  0.05119  1.0000
  Cd  Cd6       1.0  0.31379  0.55192  0.94881  1.0000
  H   H1        1.0  0.27727  0.11599  0.48847  1.0000
  H   H2        1.0  0.72272  0.88402  0.51153  1.0000
  H   H3        1.0  0.92765  0.32643  0.70172  1.0000
  H   H4        1.0  0.07235  0.67357  0.29828  1.0000
  H   H5        1.0  0.66592  0.72379  0.21369  1.0000
  H   H6        1.0  0.33409  0.27620  0.78631  1.0000
  H   H7        1.0  0.62244  0.55663  0.38800  1.0000
  H   H8        1.0  0.37756  0.44338  0.61200  1.0000
  H   H9        1.0  0.45707  0.64701  0.55275  1.0000
  H   H10       1.0  0.54293  0.35300  0.44725  1.0000
  H   H11       1.0  0.29817  0.83514  0.63792  1.0000
  H   H12       1.0  0.70182  0.16487  0.36208  1.0000
  H   H13       1.0  0.75218  0.90231  0.09822  1.0000
  H   H14       1.0  0.24780  0.09770  0.90179  1.0000
  H   H15       1.0  0.65106  0.05307  0.02207  1.0000
  H   H16       1.0  0.34895  0.94693  0.97793  1.0000
  H   H17       1.0  0.59666  0.88526  0.06510  1.0000
  H   H18       1.0  0.40334  0.11476  0.93491  1.0000
  H   H19       1.0  0.72417  0.15263  0.72284  1.0000
  H   H20       1.0  0.27582  0.84736  0.27716  1.0000
  H   H21       1.0  0.75915  0.29724  0.61103  1.0000
  H   H22       1.0  0.24085  0.70276  0.38897  1.0000
  H   H23       1.0  0.68799  0.33278  0.74830  1.0000
  H   H24       1.0  0.31201  0.66721  0.25171  1.0000
  H   H25       1.0  0.81985  0.22160  0.88674  1.0000
  H   H26       1.0  0.18015  0.77839  0.11326  1.0000
  H   H27       1.0  0.00609  0.17723  0.85094  1.0000
  H   H28       1.0  0.99392  0.82277  0.14905  1.0000
  H   H29       1.0  0.90763  0.05027  0.84876  1.0000
  H   H30       1.0  0.09238  0.94972  0.15124  1.0000
  H   H31       1.0  0.18166  0.19931  0.66492  1.0000
  H   H32       1.0  0.81833  0.80070  0.33507  1.0000
  H   H33       1.0  0.16736  0.02071  0.73072  1.0000
  H   H34       1.0  0.83264  0.97929  0.26928  1.0000
  H   H35       1.0  0.99720  0.19506  0.55524  1.0000
  H   H36       1.0  0.00280  0.80493  0.44475  1.0000
  H   H37       1.0  0.96662  0.03724  0.65246  1.0000
  H   H38       1.0  0.03337  0.96276  0.34755  1.0000
  C   C1        1.0  0.44100  0.96804  0.36873  1.0000
  C   C2        1.0  0.55900  0.03196  0.63127  1.0000
  C   C3        1.0  0.53575  0.91116  0.27701  1.0000
  C   C4        1.0  0.46426  0.08884  0.72299  1.0000
  C   C5        1.0  0.59568  0.76586  0.28460  1.0000
  C   C6        1.0  0.40432  0.23415  0.71541  1.0000
  C   C7        1.0  0.56943  0.66934  0.38451  1.0000
  C   C8        1.0  0.43058  0.33066  0.61549  1.0000
  C   C9        1.0  0.47912  0.71891  0.47480  1.0000
  C   C10       1.0  0.52087  0.28110  0.52521  1.0000
  C   C11       1.0  0.41246  0.86686  0.46836  1.0000
  C   C12       1.0  0.58754  0.13314  0.53164  1.0000
  C   C13       1.0  0.31772  0.91326  0.56247  1.0000
  C   C14       1.0  0.68227  0.08674  0.43753  1.0000
  C   C15       1.0  0.64604  0.95848  0.08649  1.0000
  C   C16       1.0  0.35396  0.04152  0.91351  1.0000
  C   C17       1.0  0.75708  0.25481  0.69834  1.0000
  C   C18       1.0  0.24292  0.74519  0.30166  1.0000
  C   C19       1.0  0.91010  0.16371  0.83451  1.0000
  C   C20       1.0  0.08991  0.83629  0.16548  1.0000
  C   C21       1.0  0.15419  0.10203  0.65666  1.0000
  C   C22       1.0  0.84580  0.89797  0.34334  1.0000
  C   C23       1.0  0.00427  0.13613  0.63871  1.0000
  C   C24       1.0  0.99573  0.86387  0.36128  1.0000
  N   N1        1.0  0.25196  0.04819  0.56320  1.0000
  N   N2        1.0  0.74804  0.95181  0.43680  1.0000
  N   N3        1.0  0.90303  0.22722  0.71703  1.0000
  N   N4        1.0  0.09697  0.77278  0.28297  1.0000
  Cl  Cl1       1.0  0.90372  0.32787  0.37878  1.0000
  Cl  Cl2       1.0  0.09627  0.67214  0.62122  1.0000
  Cl  Cl3       1.0  0.86305  0.20663  0.10176  1.0000
  Cl  Cl4       1.0  0.13696  0.79337  0.89823  1.0000
  Cl  Cl5       1.0  0.53045  0.40336  0.24557  1.0000
  Cl  Cl6       1.0  0.46956  0.59663  0.75443  1.0000
  Cl  Cl7       1.0  0.21396  0.13114  0.16453  1.0000
  Cl  Cl8       1.0  0.78604  0.86886  0.83547  1.0000
  Cl  Cl9       1.0  0.14888  0.41558  0.91236  1.0000
  Cl  Cl10      1.0  0.85112  0.58443  0.08765  1.0000
  Cl  Cl11      1.0  0.51965  0.31669  0.98847  1.0000
  Cl  Cl12      1.0  0.48036  0.68332  0.01153  1.0000
  Cl  Cl13      1.0  0.19351  0.49158  0.16662  1.0000
  Cl  Cl14      1.0  0.80649  0.50842  0.83339  1.0000
  O   O1        1.0  0.38374  0.10506  0.36251  1.0000
  O   O2        1.0  0.61625  0.89493  0.63749  1.0000
  O   O3        1.0  0.56238  0.01169  0.18410  1.0000
  O   O4        1.0  0.43761  0.98831  0.81590  1.0000
