data_image0
_chemical_formula_structural       Cd2H44C56N8O12
_chemical_formula_sum              "Cd2 H44 C56 N8 O12"
_cell_length_a       8.14933
_cell_length_b       12.9778
_cell_length_c       13.7847
_cell_angle_alpha    97.289
_cell_angle_beta     105.212
_cell_angle_gamma    106.505

_space_group_name_H-M_alt    "P 1"
_space_group_IT_number       1

loop_
  _space_group_symop_operation_xyz
  'x, y, z'

loop_
  _atom_site_type_symbol
  _atom_site_label
  _atom_site_symmetry_multiplicity
  _atom_site_fract_x
  _atom_site_fract_y
  _atom_site_fract_z
  _atom_site_occupancy
  Cd  Cd1       1.0  0.81776  0.26219  0.25943  1.0000
  Cd  Cd2       1.0  0.18223  0.73781  0.74057  1.0000
  H   H1        1.0  0.55665  0.92130  0.34300  1.0000
  H   H2        1.0  0.44335  0.07869  0.65700  1.0000
  H   H3        1.0  0.47159  0.80181  0.46370  1.0000
  H   H4        1.0  0.52841  0.19818  0.53630  1.0000
  H   H5        1.0  0.75580  0.59124  0.16094  1.0000
  H   H6        1.0  0.24418  0.40875  0.83904  1.0000
  H   H7        1.0  0.61712  0.70434  0.05214  1.0000
  H   H8        1.0  0.38287  0.29564  0.94784  1.0000
  H   H9        1.0  0.79747  0.19286  0.01289  1.0000
  H   H10       1.0  0.20253  0.80715  0.98713  1.0000
  H   H11       1.0  0.32498  0.17062  0.09598  1.0000
  H   H12       1.0  0.67502  0.82938  0.90403  1.0000
  H   H13       1.0  0.22285  0.20220  0.27064  1.0000
  H   H14       1.0  0.77716  0.79779  0.72937  1.0000
  H   H15       1.0  0.90731  0.27032  0.87858  1.0000
  H   H16       1.0  0.09268  0.72968  0.12143  1.0000
  H   H17       1.0  0.88748  0.23382  0.69412  1.0000
  H   H18       1.0  0.11251  0.76617  0.30589  1.0000
  H   H19       1.0  0.17462  0.00278  0.74817  1.0000
  H   H20       1.0  0.82540  0.99723  0.25184  1.0000
  H   H21       1.0  0.18839  0.03616  0.93045  1.0000
  H   H22       1.0  0.81163  0.96385  0.06957  1.0000
  H   H23       1.0  0.88483  0.93305  0.55789  1.0000
  H   H24       1.0  0.11517  0.06695  0.44212  1.0000
  H   H25       1.0  0.12584  0.97540  0.59196  1.0000
  H   H26       1.0  0.87415  0.02460  0.40804  1.0000
  H   H27       1.0  0.06087  0.52523  0.36709  1.0000
  H   H28       1.0  0.93912  0.47477  0.63291  1.0000
  H   H29       1.0  0.34071  0.60250  0.55112  1.0000
  H   H30       1.0  0.65928  0.39751  0.44887  1.0000
  H   H31       1.0  0.12208  0.25316  0.49088  1.0000
  H   H32       1.0  0.87794  0.74685  0.50911  1.0000
  H   H33       1.0  0.30152  0.24947  0.62716  1.0000
  H   H34       1.0  0.69847  0.75054  0.37284  1.0000
  H   H35       1.0  0.54288  0.24899  0.77871  1.0000
  H   H36       1.0  0.45711  0.75103  0.22129  1.0000
  H   H37       1.0  0.78507  0.60003  0.82337  1.0000
  H   H38       1.0  0.21494  0.39998  0.17663  1.0000
  H   H39       1.0  0.54669  0.60189  0.67446  1.0000
  H   H40       1.0  0.45332  0.39812  0.32554  1.0000
  H   H41       1.0  0.88057  0.57305  0.98225  1.0000
  H   H42       1.0  0.11943  0.42696  0.01775  1.0000
  H   H43       1.0  0.02743  0.55376  0.90932  1.0000
  H   H44       1.0  0.97258  0.44625  0.09068  1.0000
  C   C1        1.0  0.60968  0.14031  0.36480  1.0000
  C   C2        1.0  0.39031  0.85968  0.63519  1.0000
  C   C3        1.0  0.54746  0.06668  0.43258  1.0000
  C   C4        1.0  0.45253  0.93331  0.56742  1.0000
  C   C5        1.0  0.53208  0.95509  0.41223  1.0000
  C   C6        1.0  0.46792  0.04490  0.58777  1.0000
  C   C7        1.0  0.48543  0.88889  0.47922  1.0000
  C   C8        1.0  0.51457  0.11109  0.52078  1.0000
  C   C9        1.0  0.65951  0.37064  0.12682  1.0000
  C   C10       1.0  0.34047  0.62934  0.87317  1.0000
  C   C11       1.0  0.57732  0.43700  0.06073  1.0000
  C   C12       1.0  0.42266  0.56299  0.93925  1.0000
  C   C13       1.0  0.64450  0.55223  0.08991  1.0000
  C   C14       1.0  0.35549  0.44775  0.91008  1.0000
  C   C15       1.0  0.56751  0.61484  0.02959  1.0000
  C   C16       1.0  0.43248  0.38514  0.97039  1.0000
  C   C17       1.0  0.92532  0.19023  0.05978  1.0000
  C   C18       1.0  0.07469  0.80977  0.94024  1.0000
  C   C19       1.0  0.19832  0.17466  0.10487  1.0000
  C   C20       1.0  0.80169  0.82534  0.89514  1.0000
  C   C21       1.0  0.14710  0.19377  0.19088  1.0000
  C   C22       1.0  0.85290  0.80623  0.80913  1.0000
  C   C23       1.0  0.04718  0.15401  0.91613  1.0000
  C   C24       1.0  0.95283  0.84599  0.08388  1.0000
  C   C25       1.0  0.96312  0.21027  0.84994  1.0000
  C   C26       1.0  0.03688  0.78973  0.15007  1.0000
  C   C27       1.0  0.95322  0.19101  0.74664  1.0000
  C   C28       1.0  0.04678  0.80898  0.25337  1.0000
  C   C29       1.0  0.02746  0.11571  0.70898  1.0000
  C   C30       1.0  0.97254  0.88429  0.29103  1.0000
  C   C31       1.0  0.11410  0.06070  0.77556  1.0000
  C   C32       1.0  0.88591  0.93931  0.22446  1.0000
  C   C33       1.0  0.12315  0.08008  0.87895  1.0000
  C   C34       1.0  0.87686  0.91993  0.12106  1.0000
  C   C35       1.0  0.00621  0.99628  0.55519  1.0000
  C   C36       1.0  0.99379  0.00371  0.44482  1.0000
  C   C37       1.0  0.11803  0.48037  0.42016  1.0000
  C   C38       1.0  0.88197  0.51964  0.57983  1.0000
  C   C39       1.0  0.25827  0.51891  0.51051  1.0000
  C   C40       1.0  0.74173  0.48110  0.48948  1.0000
  C   C41       1.0  0.14442  0.33679  0.48057  1.0000
  C   C42       1.0  0.85560  0.66322  0.51942  1.0000
  C   C43       1.0  0.40941  0.42576  0.63811  1.0000
  C   C44       1.0  0.59060  0.57425  0.36188  1.0000
  C   C45       1.0  0.40892  0.32649  0.66829  1.0000
  C   C46       1.0  0.59109  0.67352  0.33171  1.0000
  C   C47       1.0  0.54429  0.32538  0.75345  1.0000
  C   C48       1.0  0.45572  0.67463  0.24656  1.0000
  C   C49       1.0  0.68175  0.42348  0.80986  1.0000
  C   C50       1.0  0.31826  0.57653  0.19013  1.0000
  C   C51       1.0  0.68119  0.52260  0.78057  1.0000
  C   C52       1.0  0.31882  0.47741  0.21942  1.0000
  C   C53       1.0  0.54518  0.52353  0.69526  1.0000
  C   C54       1.0  0.45483  0.47648  0.30473  1.0000
  C   C55       1.0  0.94407  0.51574  0.95486  1.0000
  C   C56       1.0  0.05593  0.48426  0.04514  1.0000
  N   N1        1.0  0.97737  0.20357  0.16186  1.0000
  N   N2        1.0  0.02265  0.79643  0.83815  1.0000
  N   N3        1.0  0.05615  0.17252  0.02191  1.0000
  N   N4        1.0  0.94386  0.82748  0.97810  1.0000
  N   N5        1.0  0.27475  0.42686  0.54854  1.0000
  N   N6        1.0  0.72526  0.57315  0.45145  1.0000
  N   N7        1.0  0.04841  0.36703  0.40237  1.0000
  N   N8        1.0  0.95159  0.63297  0.59762  1.0000
  O   O1        1.0  0.69792  0.10682  0.30940  1.0000
  O   O2        1.0  0.30207  0.89317  0.69060  1.0000
  O   O3        1.0  0.58229  0.23138  0.36644  1.0000
  O   O4        1.0  0.41768  0.76861  0.63356  1.0000
  O   O5        1.0  0.60026  0.26558  0.09960  1.0000
  O   O6        1.0  0.39972  0.73439  0.90039  1.0000
  O   O7        1.0  0.78934  0.42232  0.20976  1.0000
  O   O8        1.0  0.21064  0.57767  0.79022  1.0000
  O   O9        1.0  0.01291  0.10207  0.60603  1.0000
  O   O10       1.0  0.98708  0.89793  0.39398  1.0000
  O   O11       1.0  0.80812  0.41524  0.89345  1.0000
  O   O12       1.0  0.19189  0.58477  0.10655  1.0000
