data_image0
_chemical_formula_structural       Cd2H18C26Br4N2
_chemical_formula_sum              "Cd2 H18 C26 Br4 N2"
_cell_length_a       7.27068
_cell_length_b       10.3769
_cell_length_c       10.1182
_cell_angle_alpha    120.849
_cell_angle_beta     105.477
_cell_angle_gamma    89.9999

_space_group_name_H-M_alt    "P 1"
_space_group_IT_number       1

loop_
  _space_group_symop_operation_xyz
  'x, y, z'

loop_
  _atom_site_type_symbol
  _atom_site_label
  _atom_site_symmetry_multiplicity
  _atom_site_fract_x
  _atom_site_fract_y
  _atom_site_fract_z
  _atom_site_occupancy
  Cd  Cd1       1.0  0.75000  0.07446  0.00000  1.0000
  Cd  Cd2       1.0  0.25000  0.92554  0.00000  1.0000
  H   H1        1.0  0.74999  0.67274  0.99999  1.0000
  H   H2        1.0  0.25000  0.32725  0.00000  1.0000
  H   H3        1.0  0.98605  0.80748  0.27523  1.0000
  H   H4        1.0  0.51394  0.53224  0.72476  1.0000
  H   H5        1.0  0.01395  0.19252  0.72476  1.0000
  H   H6        1.0  0.48605  0.46776  0.27524  1.0000
  H   H7        1.0  0.19594  0.79954  0.51036  1.0000
  H   H8        1.0  0.30406  0.28918  0.48963  1.0000
  H   H9        1.0  0.80406  0.20046  0.48964  1.0000
  H   H10       1.0  0.69594  0.71082  0.51037  1.0000
  H   H11       1.0  0.99152  0.31949  0.26247  1.0000
  H   H12       1.0  0.50847  0.05702  0.73753  1.0000
  H   H13       1.0  0.00848  0.68052  0.73753  1.0000
  H   H14       1.0  0.49153  0.94298  0.26247  1.0000
  H   H15       1.0  0.19791  0.55540  0.49920  1.0000
  H   H16       1.0  0.30209  0.05620  0.50079  1.0000
  H   H17       1.0  0.80209  0.44461  0.50079  1.0000
  H   H18       1.0  0.69791  0.94380  0.49920  1.0000
  C   C1        1.0  0.74999  0.56747  1.00000  1.0000
  C   C2        1.0  0.25000  0.43253  0.00000  1.0000
  C   C3        1.0  0.86545  0.42626  0.12957  1.0000
  C   C4        1.0  0.63454  0.29669  0.87042  1.0000
  C   C5        1.0  0.13456  0.57373  0.87043  1.0000
  C   C6        1.0  0.36546  0.70330  0.12958  1.0000
  C   C7        1.0  0.98805  0.70199  0.27436  1.0000
  C   C8        1.0  0.51194  0.42763  0.72563  1.0000
  C   C9        1.0  0.01196  0.29801  0.72564  1.0000
  C   C10       1.0  0.48806  0.57238  0.27437  1.0000
  C   C11       1.0  0.86713  0.56782  0.13449  1.0000
  C   C12       1.0  0.63286  0.43333  0.86550  1.0000
  C   C13       1.0  0.13287  0.43217  0.86551  1.0000
  C   C14       1.0  0.36714  0.56666  0.13450  1.0000
  C   C15       1.0  0.10324  0.69738  0.40308  1.0000
  C   C16       1.0  0.39675  0.29429  0.59691  1.0000
  C   C17       1.0  0.89676  0.30262  0.59692  1.0000
  C   C18       1.0  0.60324  0.70570  0.40309  1.0000
  C   C19       1.0  0.98841  0.42574  0.26450  1.0000
  C   C20       1.0  0.51158  0.16124  0.73549  1.0000
  C   C21       1.0  0.01159  0.57426  0.73550  1.0000
  C   C22       1.0  0.48842  0.83876  0.26451  1.0000
  C   C23       1.0  0.10376  0.55767  0.39689  1.0000
  C   C24       1.0  0.39623  0.16077  0.60309  1.0000
  C   C25       1.0  0.89624  0.44233  0.60310  1.0000
  C   C26       1.0  0.60377  0.83922  0.39691  1.0000
  Br  Br1       1.0  0.49088  0.81994  0.79742  1.0000
  Br  Br2       1.0  0.00912  0.02252  0.20259  1.0000
  Br  Br3       1.0  0.50912  0.18006  0.20259  1.0000
  Br  Br4       1.0  0.99089  0.97749  0.79742  1.0000
  N   N1        1.0  0.74999  0.29612  0.99999  1.0000
  N   N2        1.0  0.25001  0.70388  0.00001  1.0000
