data_image0
_chemical_formula_structural       Cd2H18C26I4N2
_chemical_formula_sum              "Cd2 H18 C26 I4 N2"
_cell_length_a       7.5884
_cell_length_b       10.2302
_cell_length_c       10.2302
_cell_angle_alpha    63.839
_cell_angle_beta     76.0623
_cell_angle_gamma    76.0627

_space_group_name_H-M_alt    "P 1"
_space_group_IT_number       1

loop_
  _space_group_symop_operation_xyz
  'x, y, z'

loop_
  _atom_site_type_symbol
  _atom_site_label
  _atom_site_symmetry_multiplicity
  _atom_site_fract_x
  _atom_site_fract_y
  _atom_site_fract_z
  _atom_site_occupancy
  Cd  Cd1       1.0  0.25000  0.07391  0.92609  1.0000
  Cd  Cd2       1.0  0.75000  0.92609  0.07391  1.0000
  H   H1        1.0  0.48486  0.51496  0.22067  1.0000
  H   H2        1.0  0.01514  0.77934  0.48504  1.0000
  H   H3        1.0  0.51514  0.48504  0.77934  1.0000
  H   H4        1.0  0.98486  0.22066  0.51496  1.0000
  H   H5        1.0  0.69309  0.28224  0.22874  1.0000
  H   H6        1.0  0.80690  0.77126  0.71776  1.0000
  H   H7        1.0  0.30691  0.71776  0.77126  1.0000
  H   H8        1.0  0.19310  0.22874  0.28224  1.0000
  H   H9        1.0  0.69282  0.05858  0.46278  1.0000
  H   H10       1.0  0.80718  0.53722  0.94143  1.0000
  H   H11       1.0  0.30718  0.94142  0.53722  1.0000
  H   H12       1.0  0.19282  0.46278  0.05857  1.0000
  H   H13       1.0  0.48788  0.05963  0.68895  1.0000
  H   H14       1.0  0.01212  0.31106  0.94037  1.0000
  H   H15       1.0  0.51212  0.94037  0.31105  1.0000
  H   H16       1.0  0.98789  0.68894  0.05963  1.0000
  H   H17       1.0  0.25000  0.65016  0.34984  1.0000
  H   H18       1.0  0.75000  0.34983  0.65016  1.0000
  C   C1        1.0  0.36408  0.28932  0.58652  1.0000
  C   C2        1.0  0.13591  0.41348  0.71068  1.0000
  C   C3        1.0  0.63592  0.71068  0.41348  1.0000
  C   C4        1.0  0.86409  0.58652  0.28932  1.0000
  C   C5        1.0  0.36628  0.42044  0.45076  1.0000
  C   C6        1.0  0.13372  0.54924  0.57956  1.0000
  C   C7        1.0  0.63372  0.57956  0.54924  1.0000
  C   C8        1.0  0.86629  0.45076  0.42044  1.0000
  C   C9        1.0  0.48646  0.41481  0.32217  1.0000
  C   C10       1.0  0.01353  0.67783  0.58519  1.0000
  C   C11       1.0  0.51353  0.58518  0.67783  1.0000
  C   C12       1.0  0.98647  0.32217  0.41481  1.0000
  C   C13       1.0  0.60056  0.28705  0.32660  1.0000
  C   C14       1.0  0.89944  0.67340  0.71295  1.0000
  C   C15       1.0  0.39944  0.71295  0.67340  1.0000
  C   C16       1.0  0.10056  0.32660  0.28705  1.0000
  C   C17       1.0  0.60017  0.15893  0.46061  1.0000
  C   C18       1.0  0.89982  0.53940  0.84107  1.0000
  C   C19       1.0  0.39983  0.84107  0.53939  1.0000
  C   C20       1.0  0.10018  0.46061  0.15893  1.0000
  C   C21       1.0  0.48546  0.15943  0.58698  1.0000
  C   C22       1.0  0.01454  0.41303  0.84057  1.0000
  C   C23       1.0  0.51454  0.84057  0.41303  1.0000
  C   C24       1.0  0.98547  0.58697  0.15943  1.0000
  C   C25       1.0  0.25000  0.54915  0.45085  1.0000
  C   C26       1.0  0.75000  0.45085  0.54915  1.0000
  I   I1        1.0  0.99640  0.98198  0.80292  1.0000
  I   I2        1.0  0.50361  0.19708  0.01802  1.0000
  I   I3        1.0  0.00360  0.01802  0.19708  1.0000
  I   I4        1.0  0.49639  0.80292  0.98198  1.0000
  N   N1        1.0  0.25000  0.28866  0.71135  1.0000
  N   N2        1.0  0.75000  0.71134  0.28865  1.0000
