data_image0
_chemical_formula_structural       Cd2H18C26N2Cl4
_chemical_formula_sum              "Cd2 H18 C26 N2 Cl4"
_cell_length_a       7.09889
_cell_length_b       10.0527
_cell_length_c       10.0875
_cell_angle_alpha    119.885
_cell_angle_beta     107.108
_cell_angle_gamma    89.9986

_space_group_name_H-M_alt    "P 1"
_space_group_IT_number       1

loop_
  _space_group_symop_operation_xyz
  'x, y, z'

loop_
  _atom_site_type_symbol
  _atom_site_label
  _atom_site_symmetry_multiplicity
  _atom_site_fract_x
  _atom_site_fract_y
  _atom_site_fract_z
  _atom_site_occupancy
  Cd  Cd1       1.0  0.25000  0.92793  1.00000  1.0000
  Cd  Cd2       1.0  0.75000  0.07207  0.00000  1.0000
  H   H1        1.0  0.00298  0.67714  0.73182  1.0000
  H   H2        1.0  0.49702  0.94530  0.26817  1.0000
  H   H3        1.0  0.99702  0.32287  0.26818  1.0000
  H   H4        1.0  0.50299  0.05469  0.73182  1.0000
  H   H5        1.0  0.79387  0.43412  0.48885  1.0000
  H   H6        1.0  0.70613  0.94525  0.51115  1.0000
  H   H7        1.0  0.20613  0.56588  0.51115  1.0000
  H   H8        1.0  0.29387  0.05474  0.48885  1.0000
  H   H9        1.0  0.00931  0.17364  0.71876  1.0000
  H   H10       1.0  0.49071  0.45488  0.28127  1.0000
  H   H11       1.0  0.99068  0.82636  0.28123  1.0000
  H   H12       1.0  0.50928  0.54512  0.71873  1.0000
  H   H13       1.0  0.79726  0.18306  0.47712  1.0000
  H   H14       1.0  0.70275  0.70593  0.52290  1.0000
  H   H15       1.0  0.20274  0.81695  0.52288  1.0000
  H   H16       1.0  0.29724  0.29406  0.47710  1.0000
  H   H17       1.0  0.25001  0.31122  0.00001  1.0000
  H   H18       1.0  0.74998  0.68878  0.99999  1.0000
  C   C1        1.0  0.13216  0.56625  0.86743  1.0000
  C   C2        1.0  0.36785  0.69882  0.13258  1.0000
  C   C3        1.0  0.86784  0.43375  0.13257  1.0000
  C   C4        1.0  0.63215  0.30119  0.86742  1.0000
  C   C5        1.0  0.00676  0.56734  0.72935  1.0000
  C   C6        1.0  0.49324  0.83798  0.27066  1.0000
  C   C7        1.0  0.99324  0.43266  0.27065  1.0000
  C   C8        1.0  0.50676  0.16202  0.72935  1.0000
  C   C9        1.0  0.13015  0.42022  0.86262  1.0000
  C   C10       1.0  0.36986  0.55759  0.13739  1.0000
  C   C11       1.0  0.86984  0.57979  0.13737  1.0000
  C   C12       1.0  0.63013  0.44240  0.86261  1.0000
  C   C13       1.0  0.88958  0.43179  0.59392  1.0000
  C   C14       1.0  0.61043  0.83786  0.40609  1.0000
  C   C15       1.0  0.11042  0.56821  0.40607  1.0000
  C   C16       1.0  0.38958  0.16213  0.59391  1.0000
  C   C17       1.0  0.00721  0.28243  0.71949  1.0000
  C   C18       1.0  0.49281  0.56294  0.28053  1.0000
  C   C19       1.0  0.99279  0.71759  0.28051  1.0000
  C   C20       1.0  0.50719  0.43705  0.71947  1.0000
  C   C21       1.0  0.89060  0.28772  0.58756  1.0000
  C   C22       1.0  0.60942  0.70017  0.41246  1.0000
  C   C23       1.0  0.10940  0.71228  0.41244  1.0000
  C   C24       1.0  0.39058  0.29983  0.58754  1.0000
  C   C25       1.0  0.25002  0.41988  0.00001  1.0000
  C   C26       1.0  0.74998  0.58012  0.99999  1.0000
  N   N1        1.0  0.25000  0.69995  0.00001  1.0000
  N   N2        1.0  0.75000  0.30005  0.00000  1.0000
  Cl  Cl1       1.0  0.51910  0.16811  0.19131  1.0000
  Cl  Cl2       1.0  0.98089  0.97680  0.80869  1.0000
  Cl  Cl3       1.0  0.48090  0.83189  0.80870  1.0000
  Cl  Cl4       1.0  0.01911  0.02320  0.19132  1.0000
