data_image0
_chemical_formula_structural       Cd2H16C24N4Cl4
_chemical_formula_sum              "Cd2 H16 C24 N4 Cl4"
_cell_length_a       7.13102
_cell_length_b       9.66995
_cell_length_c       9.66968
_cell_angle_alpha    62.5297
_cell_angle_beta     84.3836
_cell_angle_gamma    84.3858

_space_group_name_H-M_alt    "P 1"
_space_group_IT_number       1

loop_
  _space_group_symop_operation_xyz
  'x, y, z'

loop_
  _atom_site_type_symbol
  _atom_site_label
  _atom_site_symmetry_multiplicity
  _atom_site_fract_x
  _atom_site_fract_y
  _atom_site_fract_z
  _atom_site_occupancy
  Cd  Cd1       1.0  0.75001  0.06330  0.93669  1.0000
  Cd  Cd2       1.0  0.25000  0.93670  0.06331  1.0000
  H   H1        1.0  0.81710  0.33113  0.95228  1.0000
  H   H2        1.0  0.68294  0.04772  0.66885  1.0000
  H   H3        1.0  0.18293  0.66888  0.04772  1.0000
  H   H4        1.0  0.31705  0.95228  0.33115  1.0000
  H   H5        1.0  0.87223  0.58325  0.94436  1.0000
  H   H6        1.0  0.62777  0.05564  0.41673  1.0000
  H   H7        1.0  0.12777  0.41677  0.05563  1.0000
  H   H8        1.0  0.37222  0.94436  0.58328  1.0000
  H   H9        1.0  0.83120  0.82104  0.44418  1.0000
  H   H10       1.0  0.66881  0.55581  0.17894  1.0000
  H   H11       1.0  0.16881  0.17896  0.55580  1.0000
  H   H12       1.0  0.33118  0.44419  0.82106  1.0000
  H   H13       1.0  0.88922  0.82506  0.69508  1.0000
  H   H14       1.0  0.61079  0.30492  0.17492  1.0000
  H   H15       1.0  0.11078  0.17496  0.30490  1.0000
  H   H16       1.0  0.38921  0.69508  0.82508  1.0000
  C   C1        1.0  0.78354  0.43196  0.70255  1.0000
  C   C2        1.0  0.71647  0.29744  0.56802  1.0000
  C   C3        1.0  0.21646  0.56804  0.29745  1.0000
  C   C4        1.0  0.28352  0.70255  0.43199  1.0000
  C   C5        1.0  0.81686  0.43819  0.84199  1.0000
  C   C6        1.0  0.68316  0.15801  0.56178  1.0000
  C   C7        1.0  0.18316  0.56182  0.15801  1.0000
  C   C8        1.0  0.31684  0.84199  0.43822  1.0000
  C   C9        1.0  0.84990  0.57810  0.83701  1.0000
  C   C10       1.0  0.65010  0.16300  0.42186  1.0000
  C   C11       1.0  0.15010  0.42190  0.16298  1.0000
  C   C12       1.0  0.34989  0.83700  0.57814  1.0000
  C   C13       1.0  0.82556  0.71683  0.55665  1.0000
  C   C14       1.0  0.67445  0.44336  0.28315  1.0000
  C   C15       1.0  0.17444  0.28317  0.44335  1.0000
  C   C16       1.0  0.32554  0.55664  0.71685  1.0000
  C   C17       1.0  0.78536  0.57521  0.55689  1.0000
  C   C18       1.0  0.71463  0.44311  0.42477  1.0000
  C   C19       1.0  0.21464  0.42478  0.44312  1.0000
  C   C20       1.0  0.28536  0.55688  0.57523  1.0000
  C   C21       1.0  0.85685  0.71795  0.69372  1.0000
  C   C22       1.0  0.64315  0.30629  0.28202  1.0000
  C   C23       1.0  0.14315  0.28204  0.30628  1.0000
  C   C24       1.0  0.35685  0.69370  0.71798  1.0000
  N   N1        1.0  0.75001  0.29593  0.70406  1.0000
  N   N2        1.0  0.25000  0.70407  0.29594  1.0000
  N   N3        1.0  0.75000  0.57844  0.42155  1.0000
  N   N4        1.0  0.25000  0.42155  0.57846  1.0000
  Cl  Cl1       1.0  0.92944  0.03759  0.16225  1.0000
  Cl  Cl2       1.0  0.57056  0.83775  0.96242  1.0000
  Cl  Cl3       1.0  0.07057  0.96241  0.83775  1.0000
  Cl  Cl4       1.0  0.42945  0.16225  0.03759  1.0000
