data_image0
_chemical_formula_structural       Hg2H8C12Br4N2
_chemical_formula_sum              "Hg2 H8 C12 Br4 N2"
_cell_length_a       4.05834
_cell_length_b       9.69456
_cell_length_c       11.2182
_cell_angle_alpha    71.2976
_cell_angle_beta     80.1257
_cell_angle_gamma    79.6754

_space_group_name_H-M_alt    "P 1"
_space_group_IT_number       1

loop_
  _space_group_symop_operation_xyz
  'x, y, z'

loop_
  _atom_site_type_symbol
  _atom_site_label
  _atom_site_symmetry_multiplicity
  _atom_site_fract_x
  _atom_site_fract_y
  _atom_site_fract_z
  _atom_site_occupancy
  Hg  Hg1       1.0  0.70816  0.78957  0.63652  1.0000
  Hg  Hg2       1.0  0.29188  0.21043  0.36348  1.0000
  H   H1        1.0  0.73200  0.45726  0.70090  1.0000
  H   H2        1.0  0.26802  0.54273  0.29910  1.0000
  H   H3        1.0  0.73803  0.92251  0.07011  1.0000
  H   H4        1.0  0.26195  0.07751  0.92989  1.0000
  H   H5        1.0  0.54273  0.22004  0.72360  1.0000
  H   H6        1.0  0.45726  0.77996  0.27641  1.0000
  H   H7        1.0  0.81894  0.83263  0.88150  1.0000
  H   H8        1.0  0.18106  0.16739  0.11850  1.0000
  C   C1        1.0  0.55362  0.45269  0.89513  1.0000
  C   C2        1.0  0.44640  0.54731  0.10487  1.0000
  C   C3        1.0  0.59638  0.63365  0.98262  1.0000
  C   C4        1.0  0.40361  0.36636  0.01738  1.0000
  C   C5        1.0  0.60694  0.39479  0.79081  1.0000
  C   C6        1.0  0.39309  0.60521  0.20920  1.0000
  C   C7        1.0  0.65391  0.81923  0.07714  1.0000
  C   C8        1.0  0.34605  0.18078  0.92286  1.0000
  C   C9        1.0  0.50439  0.26265  0.80447  1.0000
  C   C10       1.0  0.49559  0.73736  0.19554  1.0000
  C   C11       1.0  0.69921  0.77018  0.97271  1.0000
  C   C12       1.0  0.30078  0.22983  0.02729  1.0000
  Br  Br1       1.0  0.24502  0.98160  0.68314  1.0000
  Br  Br2       1.0  0.75496  0.01836  0.31689  1.0000
  Br  Br3       1.0  0.21093  0.65136  0.54177  1.0000
  Br  Br4       1.0  0.78907  0.34861  0.45821  1.0000
  N   N1        1.0  0.64389  0.58497  0.88031  1.0000
  N   N2        1.0  0.35615  0.41503  0.11969  1.0000
