data_image0
_chemical_formula_structural       Hg2H14C18N2Cl4
_chemical_formula_sum              "Hg2 H14 C18 N2 Cl4"
_cell_length_a       7.32723
_cell_length_b       7.53451
_cell_length_c       9.65618
_cell_angle_alpha    69.2859
_cell_angle_beta     86.3437
_cell_angle_gamma    87.8738

_space_group_name_H-M_alt    "P 1"
_space_group_IT_number       1

loop_
  _space_group_symop_operation_xyz
  'x, y, z'

loop_
  _atom_site_type_symbol
  _atom_site_label
  _atom_site_symmetry_multiplicity
  _atom_site_fract_x
  _atom_site_fract_y
  _atom_site_fract_z
  _atom_site_occupancy
  Hg  Hg1       1.0  0.75269  0.54528  0.93479  1.0000
  Hg  Hg2       1.0  0.24730  0.45473  0.06522  1.0000
  H   H1        1.0  0.85867  0.95235  0.89383  1.0000
  H   H2        1.0  0.14130  0.04767  0.10617  1.0000
  H   H3        1.0  0.89828  0.27433  0.70279  1.0000
  H   H4        1.0  0.10171  0.72568  0.29721  1.0000
  H   H5        1.0  0.82894  0.32610  0.43774  1.0000
  H   H6        1.0  0.17107  0.67387  0.56226  1.0000
  H   H7        1.0  0.67561  0.55496  0.65910  1.0000
  H   H8        1.0  0.32440  0.44502  0.34090  1.0000
  H   H9        1.0  0.61068  0.59450  0.39995  1.0000
  H   H10       1.0  0.38931  0.40551  0.60005  1.0000
  H   H11       1.0  0.63013  0.91030  0.20059  1.0000
  H   H12       1.0  0.36989  0.08970  0.79941  1.0000
  H   H13       1.0  0.72515  0.19023  0.25597  1.0000
  H   H14       1.0  0.27490  0.80975  0.74404  1.0000
  C   C1        1.0  0.83110  0.97864  0.77841  1.0000
  C   C2        1.0  0.16887  0.02136  0.22159  1.0000
  C   C3        1.0  0.85089  0.16067  0.66984  1.0000
  C   C4        1.0  0.14910  0.83933  0.33016  1.0000
  C   C5        1.0  0.81352  0.18768  0.52574  1.0000
  C   C6        1.0  0.18648  0.81232  0.47424  1.0000
  C   C7        1.0  0.75625  0.03302  0.48917  1.0000
  C   C8        1.0  0.24377  0.96698  0.51083  1.0000
  C   C9        1.0  0.74137  0.85083  0.60470  1.0000
  C   C10       1.0  0.25862  0.14919  0.39530  1.0000
  C   C11       1.0  0.68777  0.69335  0.57043  1.0000
  C   C12       1.0  0.31223  0.30665  0.42956  1.0000
  C   C13       1.0  0.65019  0.71602  0.42685  1.0000
  C   C14       1.0  0.34980  0.28399  0.57314  1.0000
  C   C15       1.0  0.66249  0.89566  0.31264  1.0000
  C   C16       1.0  0.33752  0.10434  0.68735  1.0000
  C   C17       1.0  0.71452  0.05114  0.34334  1.0000
  C   C18       1.0  0.28550  0.94886  0.65665  1.0000
  N   N1        1.0  0.77937  0.83061  0.74694  1.0000
  N   N2        1.0  0.22062  0.16940  0.25308  1.0000
  Cl  Cl1       1.0  0.57319  0.26779  0.96129  1.0000
  Cl  Cl2       1.0  0.42680  0.73221  0.03874  1.0000
  Cl  Cl3       1.0  0.90576  0.57854  0.15377  1.0000
  Cl  Cl4       1.0  0.09422  0.42146  0.84625  1.0000
