data_image0
_chemical_formula_structural       Hg2H18C26Br4N2
_chemical_formula_sum              "Hg2 H18 C26 Br4 N2"
_cell_length_a       7.49299
_cell_length_b       10.426
_cell_length_c       9.9825
_cell_angle_alpha    121.48
_cell_angle_beta     105.391
_cell_angle_gamma    90.0023

_space_group_name_H-M_alt    "P 1"
_space_group_IT_number       1

loop_
  _space_group_symop_operation_xyz
  'x, y, z'

loop_
  _atom_site_type_symbol
  _atom_site_label
  _atom_site_symmetry_multiplicity
  _atom_site_fract_x
  _atom_site_fract_y
  _atom_site_fract_z
  _atom_site_occupancy
  Hg  Hg1       1.0  0.24999  0.92838  0.99999  1.0000
  Hg  Hg2       1.0  0.75001  0.07162  0.00001  1.0000
  H   H1        1.0  0.24998  0.33315  0.99999  1.0000
  H   H2        1.0  0.75002  0.66686  0.00001  1.0000
  H   H3        1.0  0.00721  0.19929  0.72668  1.0000
  H   H4        1.0  0.49275  0.47259  0.27329  1.0000
  H   H5        1.0  0.99279  0.80071  0.27332  1.0000
  H   H6        1.0  0.50725  0.52741  0.72671  1.0000
  H   H7        1.0  0.79137  0.20684  0.49219  1.0000
  H   H8        1.0  0.70860  0.71462  0.50778  1.0000
  H   H9        1.0  0.20863  0.79316  0.50781  1.0000
  H   H10       1.0  0.29141  0.28537  0.49222  1.0000
  H   H11       1.0  0.00325  0.68482  0.73927  1.0000
  H   H12       1.0  0.49674  0.94554  0.26072  1.0000
  H   H13       1.0  0.99675  0.31518  0.26073  1.0000
  H   H14       1.0  0.50327  0.05446  0.73928  1.0000
  H   H15       1.0  0.79099  0.44938  0.50308  1.0000
  H   H16       1.0  0.70900  0.94628  0.49690  1.0000
  H   H17       1.0  0.20901  0.55063  0.49692  1.0000
  H   H18       1.0  0.29100  0.05372  0.50310  1.0000
  C   C1        1.0  0.24997  0.43796  0.99998  1.0000
  C   C2        1.0  0.75002  0.56204  0.00002  1.0000
  C   C3        1.0  0.12921  0.43781  0.86648  1.0000
  C   C4        1.0  0.37075  0.57131  0.13349  1.0000
  C   C5        1.0  0.87078  0.56219  0.13351  1.0000
  C   C6        1.0  0.62925  0.42869  0.86651  1.0000
  C   C7        1.0  0.13102  0.57846  0.87078  1.0000
  C   C8        1.0  0.36895  0.70767  0.12921  1.0000
  C   C9        1.0  0.86898  0.42154  0.12922  1.0000
  C   C10       1.0  0.63105  0.29233  0.87079  1.0000
  C   C11       1.0  0.00477  0.30420  0.72737  1.0000
  C   C12       1.0  0.49519  0.57681  0.27260  1.0000
  C   C13       1.0  0.99523  0.69581  0.27263  1.0000
  C   C14       1.0  0.50480  0.42319  0.72740  1.0000
  C   C15       1.0  0.88672  0.30843  0.59913  1.0000
  C   C16       1.0  0.61325  0.70928  0.40086  1.0000
  C   C17       1.0  0.11327  0.69158  0.40087  1.0000
  C   C18       1.0  0.38675  0.29071  0.59914  1.0000
  C   C19       1.0  0.00530  0.57884  0.73666  1.0000
  C   C20       1.0  0.49468  0.84217  0.26333  1.0000
  C   C21       1.0  0.99470  0.42116  0.26334  1.0000
  C   C22       1.0  0.50533  0.15783  0.73668  1.0000
  C   C23       1.0  0.88690  0.44742  0.60514  1.0000
  C   C24       1.0  0.61308  0.84227  0.39485  1.0000
  C   C25       1.0  0.11310  0.55258  0.39487  1.0000
  C   C26       1.0  0.38692  0.15773  0.60515  1.0000
  Br  Br1       1.0  0.49000  0.18855  0.20840  1.0000
  Br  Br2       1.0  0.01002  0.98016  0.79160  1.0000
  Br  Br3       1.0  0.51003  0.81144  0.79161  1.0000
  Br  Br4       1.0  0.99000  0.01984  0.20840  1.0000
  N   N1        1.0  0.24999  0.70748  1.00000  1.0000
  N   N2        1.0  0.75001  0.29252  0.00000  1.0000
