data_image0
_chemical_formula_structural       Hg2H14C18Br4N2
_chemical_formula_sum              "Hg2 H14 C18 Br4 N2"
_cell_length_a       7.64821
_cell_length_b       7.51826
_cell_length_c       10.0522
_cell_angle_alpha    111.912
_cell_angle_beta     93.7229
_cell_angle_gamma    93.0837

_space_group_name_H-M_alt    "P 1"
_space_group_IT_number       1

loop_
  _space_group_symop_operation_xyz
  'x, y, z'

loop_
  _atom_site_type_symbol
  _atom_site_label
  _atom_site_symmetry_multiplicity
  _atom_site_fract_x
  _atom_site_fract_y
  _atom_site_fract_z
  _atom_site_occupancy
  Hg  Hg1       1.0  0.74238  0.47787  0.94339  1.0000
  Hg  Hg2       1.0  0.25766  0.52214  0.05663  1.0000
  H   H1        1.0  0.62876  0.83060  0.88401  1.0000
  H   H2        1.0  0.37126  0.16940  0.11599  1.0000
  H   H3        1.0  0.81632  0.22055  0.67571  1.0000
  H   H4        1.0  0.18368  0.77945  0.32428  1.0000
  H   H5        1.0  0.77782  0.46447  0.27612  1.0000
  H   H6        1.0  0.22216  0.53552  0.72388  1.0000
  H   H7        1.0  0.59506  0.96560  0.69290  1.0000
  H   H8        1.0  0.40496  0.03441  0.30712  1.0000
  H   H9        1.0  0.87095  0.13736  0.23220  1.0000
  H   H10       1.0  0.12902  0.86264  0.76780  1.0000
  H   H11       1.0  0.88638  0.01565  0.43026  1.0000
  H   H12       1.0  0.11358  0.98433  0.56973  1.0000
  H   H13       1.0  0.66938  0.76666  0.44193  1.0000
  H   H14       1.0  0.33060  0.23335  0.55808  1.0000
  C   C1        1.0  0.75176  0.45907  0.61507  1.0000
  C   C2        1.0  0.24822  0.54091  0.38494  1.0000
  C   C3        1.0  0.73988  0.52855  0.50024  1.0000
  C   C4        1.0  0.26011  0.47145  0.49975  1.0000
  C   C5        1.0  0.65858  0.74730  0.77432  1.0000
  C   C6        1.0  0.34143  0.25270  0.22568  1.0000
  C   C7        1.0  0.80585  0.27272  0.58790  1.0000
  C   C8        1.0  0.19414  0.72727  0.41210  1.0000
  C   C9        1.0  0.78540  0.40973  0.36248  1.0000
  C   C10       1.0  0.21458  0.59026  0.63751  1.0000
  C   C11       1.0  0.64150  0.82315  0.66597  1.0000
  C   C12       1.0  0.35852  0.17686  0.33405  1.0000
  C   C13       1.0  0.83725  0.22849  0.33851  1.0000
  C   C14       1.0  0.16274  0.77149  0.66149  1.0000
  C   C15       1.0  0.84639  0.16000  0.45172  1.0000
  C   C16       1.0  0.15358  0.84000  0.54826  1.0000
  C   C17       1.0  0.68213  0.71412  0.52948  1.0000
  C   C18       1.0  0.31785  0.28589  0.47053  1.0000
  Br  Br1       1.0  0.60356  0.75021  0.15172  1.0000
  Br  Br2       1.0  0.39647  0.24980  0.84828  1.0000
  Br  Br3       1.0  0.92155  0.21373  0.96970  1.0000
  Br  Br4       1.0  0.07851  0.78629  0.03028  1.0000
  N   N1        1.0  0.71097  0.57322  0.74988  1.0000
  N   N2        1.0  0.28904  0.42678  0.25012  1.0000
