data_image0
_chemical_formula_structural       Hg2H16C24N4Cl4
_chemical_formula_sum              "Hg2 H16 C24 N4 Cl4"
_cell_length_a       7.98053
_cell_length_b       8.8297
_cell_length_c       9.43654
_cell_angle_alpha    66.3321
_cell_angle_beta     77.1597
_cell_angle_gamma    81.4753

_space_group_name_H-M_alt    "P 1"
_space_group_IT_number       1

loop_
  _space_group_symop_operation_xyz
  'x, y, z'

loop_
  _atom_site_type_symbol
  _atom_site_label
  _atom_site_symmetry_multiplicity
  _atom_site_fract_x
  _atom_site_fract_y
  _atom_site_fract_z
  _atom_site_occupancy
  Hg  Hg1       1.0  0.74803  0.50361  0.50913  1.0000
  Hg  Hg2       1.0  0.25197  0.49639  0.49087  1.0000
  H   H1        1.0  0.76766  0.38831  0.22565  1.0000
  H   H2        1.0  0.23233  0.61168  0.77435  1.0000
  H   H3        1.0  0.66899  0.35900  0.00495  1.0000
  H   H4        1.0  0.33100  0.64098  0.99504  1.0000
  H   H5        1.0  0.59025  0.08660  0.03201  1.0000
  H   H6        1.0  0.40975  0.91338  0.96799  1.0000
  H   H7        1.0  0.61302  0.83787  0.27648  1.0000
  H   H8        1.0  0.38699  0.16212  0.72353  1.0000
  H   H9        1.0  0.88836  0.14954  0.74444  1.0000
  H   H10       1.0  0.11165  0.85047  0.25556  1.0000
  H   H11       1.0  0.90716  0.90135  0.99154  1.0000
  H   H12       1.0  0.09286  0.09866  0.00845  1.0000
  H   H13       1.0  0.82881  0.62890  0.01853  1.0000
  H   H14       1.0  0.17121  0.37111  0.98147  1.0000
  H   H15       1.0  0.73491  0.59791  0.79688  1.0000
  H   H16       1.0  0.26511  0.40209  0.20312  1.0000
  C   C1        1.0  0.70320  0.97044  0.39151  1.0000
  C   C2        1.0  0.29679  0.02955  0.60849  1.0000
  C   C3        1.0  0.74361  0.13116  0.37788  1.0000
  C   C4        1.0  0.25638  0.86884  0.62212  1.0000
  C   C5        1.0  0.73277  0.26983  0.23476  1.0000
  C   C6        1.0  0.26721  0.73017  0.76524  1.0000
  C   C7        1.0  0.67965  0.25253  0.11379  1.0000
  C   C8        1.0  0.32034  0.74747  0.88621  1.0000
  C   C9        1.0  0.63531  0.09590  0.12890  1.0000
  C   C10       1.0  0.36468  0.90409  0.87110  1.0000
  C   C11       1.0  0.64806  0.95799  0.26345  1.0000
  C   C12       1.0  0.35194  0.04201  0.73656  1.0000
  C   C13       1.0  0.76106  0.85463  0.64325  1.0000
  C   C14       1.0  0.23893  0.14537  0.35676  1.0000
  C   C15       1.0  0.80118  0.01563  0.62939  1.0000
  C   C16       1.0  0.19882  0.98438  0.37061  1.0000
  C   C17       1.0  0.85420  0.02888  0.75820  1.0000
  C   C18       1.0  0.14580  0.97113  0.24180  1.0000
  C   C19       1.0  0.86481  0.89162  0.89364  1.0000
  C   C20       1.0  0.13520  0.10838  0.10635  1.0000
  C   C21       1.0  0.82056  0.73485  0.90880  1.0000
  C   C22       1.0  0.17945  0.26515  0.09120  1.0000
  C   C23       1.0  0.76992  0.71660  0.78717  1.0000
  C   C24       1.0  0.23008  0.28340  0.21284  1.0000
  N   N1        1.0  0.71421  0.83473  0.52360  1.0000
  N   N2        1.0  0.28578  0.16527  0.47641  1.0000
  N   N3        1.0  0.79146  0.15107  0.49713  1.0000
  N   N4        1.0  0.20852  0.84894  0.50287  1.0000
  Cl  Cl1       1.0  0.53113  0.39854  0.72861  1.0000
  Cl  Cl2       1.0  0.46887  0.60146  0.27138  1.0000
  Cl  Cl3       1.0  0.96324  0.59695  0.28463  1.0000
  Cl  Cl4       1.0  0.03676  0.40306  0.71537  1.0000
