data_image0
_chemical_formula_structural       Hg2H18C26N2Cl4
_chemical_formula_sum              "Hg2 H18 C26 N2 Cl4"
_cell_length_a       7.2725
_cell_length_b       10.1357
_cell_length_c       9.93972
_cell_angle_alpha    120.654
_cell_angle_beta     106.756
_cell_angle_gamma    90.0003

_space_group_name_H-M_alt    "P 1"
_space_group_IT_number       1

loop_
  _space_group_symop_operation_xyz
  'x, y, z'

loop_
  _atom_site_type_symbol
  _atom_site_label
  _atom_site_symmetry_multiplicity
  _atom_site_fract_x
  _atom_site_fract_y
  _atom_site_fract_z
  _atom_site_occupancy
  Hg  Hg1       1.0  0.75000  0.92576  1.00000  1.0000
  Hg  Hg2       1.0  0.25000  0.07424  0.00000  1.0000
  H   H1        1.0  0.00061  0.94706  0.26886  1.0000
  H   H2        1.0  0.49939  0.67820  0.73114  1.0000
  H   H3        1.0  0.99939  0.05294  0.73115  1.0000
  H   H4        1.0  0.50061  0.32179  0.26886  1.0000
  H   H5        1.0  0.75000  0.31711  0.00000  1.0000
  H   H6        1.0  0.25000  0.68289  1.00000  1.0000
  H   H7        1.0  0.21384  0.94798  0.51284  1.0000
  H   H8        1.0  0.28616  0.43513  0.48715  1.0000
  H   H9        1.0  0.78616  0.05202  0.48716  1.0000
  H   H10       1.0  0.71384  0.56486  0.51285  1.0000
  H   H11       1.0  0.20986  0.71083  0.52502  1.0000
  H   H12       1.0  0.29014  0.18581  0.47498  1.0000
  H   H13       1.0  0.79014  0.28917  0.47497  1.0000
  H   H14       1.0  0.70986  0.81419  0.52502  1.0000
  H   H15       1.0  0.99251  0.46094  0.28229  1.0000
  H   H16       1.0  0.50748  0.17866  0.71771  1.0000
  H   H17       1.0  0.00749  0.53906  0.71771  1.0000
  H   H18       1.0  0.49252  0.82134  0.28229  1.0000
  C   C1        1.0  0.87001  0.70242  0.13359  1.0000
  C   C2        1.0  0.62999  0.56884  0.86641  1.0000
  C   C3        1.0  0.12999  0.29758  0.86641  1.0000
  C   C4        1.0  0.37001  0.43117  0.13359  1.0000
  C   C5        1.0  0.99754  0.84080  0.27166  1.0000
  C   C6        1.0  0.50245  0.56914  0.72832  1.0000
  C   C7        1.0  0.00246  0.15920  0.72834  1.0000
  C   C8        1.0  0.49755  0.43086  0.27168  1.0000
  C   C9        1.0  0.75000  0.42487  1.00000  1.0000
  C   C10       1.0  0.25001  0.57513  0.00000  1.0000
  C   C11       1.0  0.11636  0.84112  0.40748  1.0000
  C   C12       1.0  0.38364  0.43365  0.59253  1.0000
  C   C13       1.0  0.88364  0.15888  0.59252  1.0000
  C   C14       1.0  0.61636  0.56636  0.40748  1.0000
  C   C15       1.0  0.11501  0.70470  0.41417  1.0000
  C   C16       1.0  0.38497  0.29053  0.58582  1.0000
  C   C17       1.0  0.88499  0.29530  0.58583  1.0000
  C   C18       1.0  0.61503  0.70947  0.41418  1.0000
  C   C19       1.0  0.99595  0.56821  0.28178  1.0000
  C   C20       1.0  0.50405  0.28644  0.71823  1.0000
  C   C21       1.0  0.00405  0.43179  0.71822  1.0000
  C   C22       1.0  0.49594  0.71357  0.28177  1.0000
  C   C23       1.0  0.87134  0.56225  0.13802  1.0000
  C   C24       1.0  0.62865  0.42424  0.86198  1.0000
  C   C25       1.0  0.12866  0.43775  0.86198  1.0000
  C   C26       1.0  0.37134  0.57576  0.13802  1.0000
  N   N1        1.0  0.74999  0.70168  0.99999  1.0000
  N   N2        1.0  0.25001  0.29832  0.00001  1.0000
  Cl  Cl1       1.0  0.99517  0.17582  0.19786  1.0000
  Cl  Cl2       1.0  0.50482  0.97796  0.80213  1.0000
  Cl  Cl3       1.0  0.00483  0.82418  0.80213  1.0000
  Cl  Cl4       1.0  0.49517  0.02204  0.19787  1.0000
