data_image0
_chemical_formula_structural       Hg2H16C24Br4N4
_chemical_formula_sum              "Hg2 H16 C24 Br4 N4"
_cell_length_a       9.30007
_cell_length_b       8.73933
_cell_length_c       9.38653
_cell_angle_alpha    67.3691
_cell_angle_beta     63.5546
_cell_angle_gamma    83.6643

_space_group_name_H-M_alt    "P 1"
_space_group_IT_number       1

loop_
  _space_group_symop_operation_xyz
  'x, y, z'

loop_
  _atom_site_type_symbol
  _atom_site_label
  _atom_site_symmetry_multiplicity
  _atom_site_fract_x
  _atom_site_fract_y
  _atom_site_fract_z
  _atom_site_occupancy
  Hg  Hg1       1.0  0.25005  0.00143  0.49788  1.0000
  Hg  Hg2       1.0  0.74994  0.99857  0.50212  1.0000
  H   H1        1.0  0.24121  0.89716  0.22079  1.0000
  H   H2        1.0  0.75879  0.10284  0.77922  1.0000
  H   H3        1.0  0.38156  0.68673  0.68966  1.0000
  H   H4        1.0  0.61843  0.31326  0.31034  1.0000
  H   H5        1.0  0.25853  0.10599  0.77485  1.0000
  H   H6        1.0  0.74146  0.89401  0.22516  1.0000
  H   H7        1.0  0.11826  0.31647  0.30628  1.0000
  H   H8        1.0  0.88175  0.68353  0.69371  1.0000
  H   H9        1.0  0.14319  0.84538  0.03487  1.0000
  H   H10       1.0  0.85682  0.15463  0.96512  1.0000
  H   H11       1.0  0.41569  0.44620  0.91929  1.0000
  H   H12       1.0  0.58431  0.55379  0.08071  1.0000
  H   H13       1.0  0.08354  0.55695  0.07688  1.0000
  H   H14       1.0  0.91648  0.44306  0.92310  1.0000
  H   H15       1.0  0.35600  0.15770  0.96131  1.0000
  H   H16       1.0  0.64400  0.84229  0.03870  1.0000
  C   C1        1.0  0.21406  0.77129  0.23841  1.0000
  C   C2        1.0  0.78594  0.22871  0.76160  1.0000
  C   C3        1.0  0.29942  0.53531  0.59972  1.0000
  C   C4        1.0  0.70057  0.46468  0.40029  1.0000
  C   C5        1.0  0.23379  0.63664  0.37254  1.0000
  C   C6        1.0  0.76621  0.36335  0.62746  1.0000
  C   C7        1.0  0.35381  0.56010  0.70957  1.0000
  C   C8        1.0  0.64618  0.43989  0.29043  1.0000
  C   C9        1.0  0.28556  0.23184  0.75746  1.0000
  C   C10       1.0  0.71444  0.76815  0.24253  1.0000
  C   C11       1.0  0.14569  0.44313  0.28652  1.0000
  C   C12       1.0  0.85432  0.55687  0.71347  1.0000
  C   C13       1.0  0.20017  0.46797  0.39626  1.0000
  C   C14       1.0  0.79982  0.53203  0.60374  1.0000
  C   C15       1.0  0.26589  0.36663  0.62335  1.0000
  C   C16       1.0  0.73411  0.63337  0.37664  1.0000
  C   C17       1.0  0.16108  0.74192  0.13552  1.0000
  C   C18       1.0  0.83894  0.25809  0.86448  1.0000
  C   C19       1.0  0.37323  0.42643  0.83607  1.0000
  C   C20       1.0  0.62677  0.57356  0.16393  1.0000
  C   C21       1.0  0.12598  0.57670  0.16015  1.0000
  C   C22       1.0  0.87404  0.42331  0.83983  1.0000
  C   C23       1.0  0.33820  0.26118  0.86060  1.0000
  C   C24       1.0  0.66179  0.73880  0.13941  1.0000
  Br  Br1       1.0  0.47719  0.13207  0.21346  1.0000
  Br  Br2       1.0  0.52278  0.86796  0.78654  1.0000
  Br  Br3       1.0  0.02363  0.87010  0.78286  1.0000
  Br  Br4       1.0  0.97637  0.12991  0.21715  1.0000
  N   N1        1.0  0.28216  0.66701  0.47521  1.0000
  N   N2        1.0  0.71784  0.33299  0.52479  1.0000
  N   N3        1.0  0.21750  0.33626  0.52073  1.0000
  N   N4        1.0  0.78249  0.66374  0.47927  1.0000
