data_image0
_chemical_formula_structural       Sr4H40C32O16
_chemical_formula_sum              "Sr4 H40 C32 O16"
_cell_length_a       7.06238
_cell_length_b       10.0001
_cell_length_c       13.3919
_cell_angle_alpha    107.61
_cell_angle_beta     90.0001
_cell_angle_gamma    89.9999

_space_group_name_H-M_alt    "P 1"
_space_group_IT_number       1

loop_
  _space_group_symop_operation_xyz
  'x, y, z'

loop_
  _atom_site_type_symbol
  _atom_site_label
  _atom_site_symmetry_multiplicity
  _atom_site_fract_x
  _atom_site_fract_y
  _atom_site_fract_z
  _atom_site_occupancy
  Sr  Sr1       1.0  0.51122  0.31074  0.51221  1.0000
  Sr  Sr2       1.0  0.01121  0.18926  0.48779  1.0000
  Sr  Sr3       1.0  0.48879  0.68926  0.48779  1.0000
  Sr  Sr4       1.0  0.98879  0.81074  0.51221  1.0000
  H   H1        1.0  0.16358  0.52847  0.28501  1.0000
  H   H2        1.0  0.66358  0.97153  0.71499  1.0000
  H   H3        1.0  0.83643  0.47153  0.71499  1.0000
  H   H4        1.0  0.33642  0.02847  0.28501  1.0000
  H   H5        1.0  0.86306  0.44144  0.22120  1.0000
  H   H6        1.0  0.36306  0.05856  0.77880  1.0000
  H   H7        1.0  0.13695  0.55856  0.77880  1.0000
  H   H8        1.0  0.63695  0.94144  0.22120  1.0000
  H   H9        1.0  0.72376  0.21675  0.22515  1.0000
  H   H10       1.0  0.22376  0.28325  0.77485  1.0000
  H   H11       1.0  0.27624  0.78325  0.77485  1.0000
  H   H12       1.0  0.77624  0.71675  0.22515  1.0000
  H   H13       1.0  0.93581  0.16742  0.27306  1.0000
  H   H14       1.0  0.43581  0.33258  0.72694  1.0000
  H   H15       1.0  0.06419  0.83258  0.72694  1.0000
  H   H16       1.0  0.56419  0.66742  0.27306  1.0000
  H   H17       1.0  0.92380  0.05466  0.08371  1.0000
  H   H18       1.0  0.42380  0.44534  0.91629  1.0000
  H   H19       1.0  0.07620  0.94535  0.91630  1.0000
  H   H20       1.0  0.57620  0.55466  0.08370  1.0000
  H   H21       1.0  0.88419  0.21676  0.06009  1.0000
  H   H22       1.0  0.38419  0.28324  0.93991  1.0000
  H   H23       1.0  0.11581  0.78324  0.93991  1.0000
  H   H24       1.0  0.61581  0.71676  0.06009  1.0000
  H   H25       1.0  0.22288  0.14897  0.02845  1.0000
  H   H26       1.0  0.72288  0.35103  0.97155  1.0000
  H   H27       1.0  0.77712  0.85103  0.97155  1.0000
  H   H28       1.0  0.27712  0.64897  0.02845  1.0000
  H   H29       1.0  0.24343  0.13444  0.15622  1.0000
  H   H30       1.0  0.74344  0.36556  0.84378  1.0000
  H   H31       1.0  0.75656  0.86556  0.84378  1.0000
  H   H32       1.0  0.25656  0.63444  0.15622  1.0000
  H   H33       1.0  0.14943  0.40373  0.10165  1.0000
  H   H34       1.0  0.64943  0.09627  0.89835  1.0000
  H   H35       1.0  0.85057  0.59627  0.89835  1.0000
  H   H36       1.0  0.35057  0.90373  0.10165  1.0000
  H   H37       1.0  0.37048  0.36596  0.14880  1.0000
  H   H38       1.0  0.87048  0.13404  0.85120  1.0000
  H   H39       1.0  0.62952  0.63404  0.85120  1.0000
  H   H40       1.0  0.12952  0.86596  0.14880  1.0000
  C   C1        1.0  0.14505  0.41430  0.26487  1.0000
  C   C2        1.0  0.64505  0.08570  0.73513  1.0000
  C   C3        1.0  0.85495  0.58571  0.73513  1.0000
  C   C4        1.0  0.35495  0.91429  0.26487  1.0000
  C   C5        1.0  0.93043  0.38380  0.27024  1.0000
  C   C6        1.0  0.43043  0.11620  0.72976  1.0000
  C   C7        1.0  0.06957  0.61620  0.72976  1.0000
  C   C8        1.0  0.56957  0.88380  0.27024  1.0000
  C   C9        1.0  0.87869  0.22834  0.22423  1.0000
  C   C10       1.0  0.37869  0.27166  0.77577  1.0000
  C   C11       1.0  0.12131  0.77166  0.77577  1.0000
  C   C12       1.0  0.62131  0.72834  0.22423  1.0000
  C   C13       1.0  0.95627  0.16737  0.11306  1.0000
  C   C14       1.0  0.45627  0.33263  0.88693  1.0000
  C   C15       1.0  0.04373  0.83263  0.88694  1.0000
  C   C16       1.0  0.54373  0.66737  0.11306  1.0000
  C   C17       1.0  0.16983  0.19158  0.10923  1.0000
  C   C18       1.0  0.66983  0.30842  0.89077  1.0000
  C   C19       1.0  0.83017  0.80842  0.89077  1.0000
  C   C20       1.0  0.33017  0.69158  0.10923  1.0000
  C   C21       1.0  0.21712  0.34774  0.15162  1.0000
  C   C22       1.0  0.71712  0.15226  0.84838  1.0000
  C   C23       1.0  0.78288  0.65226  0.84838  1.0000
  C   C24       1.0  0.28288  0.84774  0.15162  1.0000
  C   C25       1.0  0.27361  0.36819  0.33996  1.0000
  C   C26       1.0  0.77361  0.13181  0.66004  1.0000
  C   C27       1.0  0.72639  0.63180  0.66004  1.0000
  C   C28       1.0  0.22638  0.86820  0.33996  1.0000
  C   C29       1.0  0.85226  0.45271  0.38036  1.0000
  C   C30       1.0  0.35226  0.04729  0.61964  1.0000
  C   C31       1.0  0.14774  0.54727  0.61965  1.0000
  C   C32       1.0  0.64774  0.95273  0.38035  1.0000
  O   O1        1.0  0.23855  0.25745  0.36532  1.0000
  O   O2        1.0  0.73855  0.24255  0.63469  1.0000
  O   O3        1.0  0.76146  0.74255  0.63468  1.0000
  O   O4        1.0  0.26145  0.75745  0.36532  1.0000
  O   O5        1.0  0.42150  0.44185  0.37331  1.0000
  O   O6        1.0  0.92150  0.05815  0.62669  1.0000
  O   O7        1.0  0.57851  0.55815  0.62669  1.0000
  O   O8        1.0  0.07850  0.94185  0.37331  1.0000
  O   O9        1.0  0.82432  0.37753  0.44074  1.0000
  O   O10       1.0  0.32432  0.12247  0.55926  1.0000
  O   O11       1.0  0.17569  0.62247  0.55925  1.0000
  O   O12       1.0  0.67569  0.87753  0.44075  1.0000
  O   O13       1.0  0.81716  0.58370  0.40611  1.0000
  O   O14       1.0  0.31715  0.91630  0.59389  1.0000
  O   O15       1.0  0.18284  0.41631  0.59389  1.0000
  O   O16       1.0  0.68283  0.08369  0.40611  1.0000
