data_image0
_chemical_formula_structural       Zn4H56C40N16Cl8
_chemical_formula_sum              "Zn4 H56 C40 N16 Cl8"
_cell_length_a       7.79185
_cell_length_b       11.4779
_cell_length_c       15.6739
_cell_angle_alpha    89.9999
_cell_angle_beta     91.8086
_cell_angle_gamma    90.0001

_space_group_name_H-M_alt    "P 1"
_space_group_IT_number       1

loop_
  _space_group_symop_operation_xyz
  'x, y, z'

loop_
  _atom_site_type_symbol
  _atom_site_label
  _atom_site_symmetry_multiplicity
  _atom_site_fract_x
  _atom_site_fract_y
  _atom_site_fract_z
  _atom_site_occupancy
  Zn  Zn1       1.0  0.03436  0.89179  0.22334  1.0000
  Zn  Zn2       1.0  0.96564  0.39179  0.27666  1.0000
  Zn  Zn3       1.0  0.96564  0.10821  0.77666  1.0000
  Zn  Zn4       1.0  0.03436  0.60821  0.72334  1.0000
  H   H1        1.0  0.82628  0.64419  0.19570  1.0000
  H   H2        1.0  0.17372  0.14419  0.30430  1.0000
  H   H3        1.0  0.17372  0.35581  0.80430  1.0000
  H   H4        1.0  0.82628  0.85581  0.69571  1.0000
  H   H5        1.0  0.02831  0.88269  0.01960  1.0000
  H   H6        1.0  0.97170  0.38269  0.48040  1.0000
  H   H7        1.0  0.97170  0.11731  0.98040  1.0000
  H   H8        1.0  0.02831  0.61731  0.51960  1.0000
  H   H9        1.0  0.88198  0.69317  0.93034  1.0000
  H   H10       1.0  0.11802  0.19317  0.56966  1.0000
  H   H11       1.0  0.11802  0.30683  0.06966  1.0000
  H   H12       1.0  0.88198  0.80683  0.43034  1.0000
  H   H13       1.0  0.74446  0.47571  0.09612  1.0000
  H   H14       1.0  0.25554  0.97571  0.40388  1.0000
  H   H15       1.0  0.25554  0.52429  0.90388  1.0000
  H   H16       1.0  0.74446  0.02429  0.59612  1.0000
  H   H17       1.0  0.79954  0.48680  0.98725  1.0000
  H   H18       1.0  0.20046  0.98680  0.51276  1.0000
  H   H19       1.0  0.20046  0.51320  0.01276  1.0000
  H   H20       1.0  0.79954  0.01320  0.48725  1.0000
  H   H21       1.0  0.54358  0.61799  0.95978  1.0000
  H   H22       1.0  0.45642  0.11799  0.54022  1.0000
  H   H23       1.0  0.45642  0.38201  0.04022  1.0000
  H   H24       1.0  0.54358  0.88201  0.45978  1.0000
  H   H25       1.0  0.48264  0.59726  0.06692  1.0000
  H   H26       1.0  0.51737  0.09726  0.43308  1.0000
  H   H27       1.0  0.51736  0.40274  0.93308  1.0000
  H   H28       1.0  0.48264  0.90273  0.56692  1.0000
  H   H29       1.0  0.08042  0.65970  0.33934  1.0000
  H   H30       1.0  0.91958  0.15970  0.16066  1.0000
  H   H31       1.0  0.91958  0.34030  0.66066  1.0000
  H   H32       1.0  0.08042  0.84030  0.83933  1.0000
  H   H33       1.0  0.44999  0.89878  0.25265  1.0000
  H   H34       1.0  0.55001  0.39878  0.24735  1.0000
  H   H35       1.0  0.55000  0.10122  0.74735  1.0000
  H   H36       1.0  0.44999  0.60122  0.75265  1.0000
  H   H37       1.0  0.61748  0.71379  0.33336  1.0000
  H   H38       1.0  0.38252  0.21379  0.16664  1.0000
  H   H39       1.0  0.38252  0.28621  0.66664  1.0000
  H   H40       1.0  0.61748  0.78621  0.83336  1.0000
  H   H41       1.0  0.45532  0.48912  0.35341  1.0000
  H   H42       1.0  0.54468  0.98912  0.14659  1.0000
  H   H43       1.0  0.54468  0.51088  0.64659  1.0000
  H   H44       1.0  0.45532  0.01088  0.85341  1.0000
  H   H45       1.0  0.25612  0.50723  0.40279  1.0000
  H   H46       1.0  0.74388  0.00723  0.09721  1.0000
  H   H47       1.0  0.74388  0.49277  0.59721  1.0000
  H   H48       1.0  0.25612  0.99277  0.90279  1.0000
  H   H49       1.0  0.59795  0.60899  0.47241  1.0000
  H   H50       1.0  0.40205  0.10899  0.02758  1.0000
  H   H51       1.0  0.40205  0.39101  0.52759  1.0000
  H   H52       1.0  0.59795  0.89101  0.97241  1.0000
  H   H53       1.0  0.39934  0.60958  0.52519  1.0000
  H   H54       1.0  0.60065  0.10958  0.97481  1.0000
  H   H55       1.0  0.60065  0.39042  0.47481  1.0000
  H   H56       1.0  0.39935  0.89042  0.02519  1.0000
  C   C1        1.0  0.86061  0.68575  0.13631  1.0000
  C   C2        1.0  0.13939  0.18575  0.36369  1.0000
  C   C3        1.0  0.13939  0.31425  0.86369  1.0000
  C   C4        1.0  0.86061  0.81425  0.63631  1.0000
  C   C5        1.0  0.96449  0.80549  0.04259  1.0000
  C   C6        1.0  0.03552  0.30549  0.45741  1.0000
  C   C7        1.0  0.03551  0.19451  0.95741  1.0000
  C   C8        1.0  0.96448  0.69451  0.54259  1.0000
  C   C9        1.0  0.89310  0.71384  0.99786  1.0000
  C   C10       1.0  0.10690  0.21384  0.50214  1.0000
  C   C11       1.0  0.10690  0.28616  0.00214  1.0000
  C   C12       1.0  0.89310  0.78616  0.49786  1.0000
  C   C13       1.0  0.73451  0.53132  0.03922  1.0000
  C   C14       1.0  0.26549  0.03132  0.46078  1.0000
  C   C15       1.0  0.26549  0.46868  0.96078  1.0000
  C   C16       1.0  0.73451  0.96868  0.53922  1.0000
  C   C17       1.0  0.54720  0.55573  0.01324  1.0000
  C   C18       1.0  0.45280  0.05573  0.48676  1.0000
  C   C19       1.0  0.45280  0.44427  0.98676  1.0000
  C   C20       1.0  0.54720  0.94427  0.51324  1.0000
  C   C21       1.0  0.20174  0.70274  0.32755  1.0000
  C   C22       1.0  0.79826  0.20275  0.17245  1.0000
  C   C23       1.0  0.79826  0.29726  0.67245  1.0000
  C   C24       1.0  0.20174  0.79725  0.82755  1.0000
  C   C25       1.0  0.39733  0.82214  0.28242  1.0000
  C   C26       1.0  0.60267  0.32214  0.21758  1.0000
  C   C27       1.0  0.60267  0.17786  0.71758  1.0000
  C   C28       1.0  0.39733  0.67786  0.78242  1.0000
  C   C29       1.0  0.48205  0.73213  0.32310  1.0000
  C   C30       1.0  0.51795  0.23213  0.17690  1.0000
  C   C31       1.0  0.51795  0.26787  0.67690  1.0000
  C   C32       1.0  0.48205  0.76787  0.82310  1.0000
  C   C33       1.0  0.38310  0.54662  0.39523  1.0000
  C   C34       1.0  0.61690  0.04662  0.10477  1.0000
  C   C35       1.0  0.61690  0.45338  0.60477  1.0000
  C   C36       1.0  0.38310  0.95338  0.89523  1.0000
  C   C37       1.0  0.47854  0.55975  0.48103  1.0000
  C   C38       1.0  0.52145  0.05975  0.01897  1.0000
  C   C39       1.0  0.52145  0.44025  0.51897  1.0000
  C   C40       1.0  0.47855  0.94025  0.98103  1.0000
  N   N1        1.0  0.94322  0.78702  0.12883  1.0000
  N   N2        1.0  0.05678  0.28702  0.37117  1.0000
  N   N3        1.0  0.05678  0.21298  0.87117  1.0000
  N   N4        1.0  0.94322  0.71298  0.62883  1.0000
  N   N5        1.0  0.82902  0.63886  0.05813  1.0000
  N   N6        1.0  0.17098  0.13886  0.44187  1.0000
  N   N7        1.0  0.17098  0.36114  0.94187  1.0000
  N   N8        1.0  0.82902  0.86114  0.55813  1.0000
  N   N9        1.0  0.22234  0.80287  0.28570  1.0000
  N   N10       1.0  0.77766  0.30287  0.21430  1.0000
  N   N11       1.0  0.77766  0.19713  0.71430  1.0000
  N   N12       1.0  0.22234  0.69713  0.78570  1.0000
  N   N13       1.0  0.35615  0.65763  0.35117  1.0000
  N   N14       1.0  0.64385  0.15763  0.14883  1.0000
  N   N15       1.0  0.64385  0.34237  0.64883  1.0000
  N   N16       1.0  0.35615  0.84237  0.85116  1.0000
  Cl  Cl1       1.0  0.16976  0.03833  0.15472  1.0000
  Cl  Cl2       1.0  0.83024  0.53833  0.34528  1.0000
  Cl  Cl3       1.0  0.83024  0.96167  0.84528  1.0000
  Cl  Cl4       1.0  0.16976  0.46167  0.65472  1.0000
  Cl  Cl5       1.0  0.82474  0.95084  0.30805  1.0000
  Cl  Cl6       1.0  0.17526  0.45083  0.19195  1.0000
  Cl  Cl7       1.0  0.17526  0.04917  0.69195  1.0000
  Cl  Cl8       1.0  0.82474  0.54917  0.80805  1.0000
