data_image0
_chemical_formula_structural       Li4H24C20N12O12
_chemical_formula_sum              "Li4 H24 C20 N12 O12"
_cell_length_a       3.52546
_cell_length_b       13.1272
_cell_length_c       14.248
_cell_angle_alpha    106.233
_cell_angle_beta     90.0004
_cell_angle_gamma    89.9995

_space_group_name_H-M_alt    "P 1"
_space_group_IT_number       1

loop_
  _space_group_symop_operation_xyz
  'x, y, z'

loop_
  _atom_site_type_symbol
  _atom_site_label
  _atom_site_symmetry_multiplicity
  _atom_site_fract_x
  _atom_site_fract_y
  _atom_site_fract_z
  _atom_site_occupancy
  Li  Li1       1.0  0.60391  0.55980  0.43199  1.0000
  Li  Li2       1.0  0.10390  0.94020  0.56802  1.0000
  Li  Li3       1.0  0.39609  0.44020  0.56801  1.0000
  Li  Li4       1.0  0.89610  0.05980  0.43198  1.0000
  H   H1        1.0  0.20137  0.20223  0.05086  1.0000
  H   H2        1.0  0.70138  0.29778  0.94914  1.0000
  H   H3        1.0  0.79862  0.79777  0.94914  1.0000
  H   H4        1.0  0.29863  0.70222  0.05086  1.0000
  H   H5        1.0  0.18075  0.20938  0.17808  1.0000
  H   H6        1.0  0.68076  0.29063  0.82193  1.0000
  H   H7        1.0  0.81924  0.79062  0.82192  1.0000
  H   H8        1.0  0.31925  0.70937  0.17807  1.0000
  H   H9        1.0  0.82831  0.61616  0.22902  1.0000
  H   H10       1.0  0.32830  0.88384  0.77098  1.0000
  H   H11       1.0  0.17169  0.38384  0.77098  1.0000
  H   H12       1.0  0.67170  0.11616  0.22902  1.0000
  H   H13       1.0  0.77662  0.51333  0.05114  1.0000
  H   H14       1.0  0.27661  0.98667  0.94885  1.0000
  H   H15       1.0  0.22338  0.48667  0.94886  1.0000
  H   H16       1.0  0.72338  0.01333  0.05115  1.0000
  H   H17       1.0  0.12398  0.68420  0.50664  1.0000
  H   H18       1.0  0.62398  0.81580  0.49336  1.0000
  H   H19       1.0  0.87602  0.31580  0.49336  1.0000
  H   H20       1.0  0.37602  0.18420  0.50664  1.0000
  H   H21       1.0  0.15842  0.69355  0.39656  1.0000
  H   H22       1.0  0.65842  0.80645  0.60344  1.0000
  H   H23       1.0  0.84158  0.30645  0.60344  1.0000
  H   H24       1.0  0.34158  0.19355  0.39656  1.0000
  C   C1        1.0  0.47228  0.39299  0.25134  1.0000
  C   C2        1.0  0.97228  0.10702  0.74866  1.0000
  C   C3        1.0  0.52772  0.60701  0.74866  1.0000
  C   C4        1.0  0.02772  0.89298  0.25134  1.0000
  C   C5        1.0  0.37223  0.34993  0.33579  1.0000
  C   C6        1.0  0.87224  0.15007  0.66421  1.0000
  C   C7        1.0  0.62776  0.65007  0.66421  1.0000
  C   C8        1.0  0.12776  0.84993  0.33579  1.0000
  C   C9        1.0  0.42987  0.33478  0.15011  1.0000
  C   C10       1.0  0.92988  0.16522  0.84990  1.0000
  C   C11       1.0  0.57012  0.66521  0.84989  1.0000
  C   C12       1.0  0.07013  0.83478  0.15010  1.0000
  C   C13       1.0  0.71534  0.53575  0.20626  1.0000
  C   C14       1.0  0.21535  0.96425  0.79374  1.0000
  C   C15       1.0  0.28466  0.46425  0.79374  1.0000
  C   C16       1.0  0.78466  0.03575  0.20626  1.0000
  C   C17       1.0  0.68514  0.47808  0.10840  1.0000
  C   C18       1.0  0.18514  0.02192  0.89160  1.0000
  C   C19       1.0  0.31486  0.52192  0.89160  1.0000
  C   C20       1.0  0.81486  0.97808  0.10840  1.0000
  N   N1        1.0  0.61069  0.49152  0.27636  1.0000
  N   N2        1.0  0.11069  0.00849  0.72364  1.0000
  N   N3        1.0  0.38931  0.50848  0.72364  1.0000
  N   N4        1.0  0.88931  0.99152  0.27636  1.0000
  N   N5        1.0  0.54617  0.37953  0.07964  1.0000
  N   N6        1.0  0.04617  0.12047  0.92036  1.0000
  N   N7        1.0  0.45383  0.62047  0.92036  1.0000
  N   N8        1.0  0.95383  0.87953  0.07964  1.0000
  N   N9        1.0  0.28099  0.23684  0.12245  1.0000
  N   N10       1.0  0.78100  0.26317  0.87756  1.0000
  N   N11       1.0  0.71900  0.76316  0.87755  1.0000
  N   N12       1.0  0.21900  0.73683  0.12244  1.0000
  O   O1        1.0  0.23179  0.25667  0.31755  1.0000
  O   O2        1.0  0.73179  0.24334  0.68245  1.0000
  O   O3        1.0  0.76820  0.74333  0.68245  1.0000
  O   O4        1.0  0.26821  0.75666  0.31755  1.0000
  O   O5        1.0  0.43863  0.41010  0.42076  1.0000
  O   O6        1.0  0.93864  0.08991  0.57924  1.0000
  O   O7        1.0  0.56137  0.58990  0.57924  1.0000
  O   O8        1.0  0.06137  0.91009  0.42076  1.0000
  O   O9        1.0  0.09211  0.64478  0.43809  1.0000
  O   O10       1.0  0.59211  0.85523  0.56191  1.0000
  O   O11       1.0  0.90789  0.35522  0.56191  1.0000
  O   O12       1.0  0.40789  0.14478  0.43809  1.0000
