data_image0
_chemical_formula_structural       Cd2H20C22N4O10
_chemical_formula_sum              "Cd2 H20 C22 N4 O10"
_cell_length_a       8.12313
_cell_length_b       8.25314
_cell_length_c       10.3182
_cell_angle_alpha    65.2762
_cell_angle_beta     68.1054
_cell_angle_gamma    79.2731

_space_group_name_H-M_alt    "P 1"
_space_group_IT_number       1

loop_
  _space_group_symop_operation_xyz
  'x, y, z'

loop_
  _atom_site_type_symbol
  _atom_site_label
  _atom_site_symmetry_multiplicity
  _atom_site_fract_x
  _atom_site_fract_y
  _atom_site_fract_z
  _atom_site_occupancy
  Cd  Cd1       1.0  0.09348  0.31540  0.90389  1.0000
  Cd  Cd2       1.0  0.90652  0.68461  0.09611  1.0000
  H   H1        1.0  0.19773  0.99268  0.85089  1.0000
  H   H2        1.0  0.80226  0.00733  0.14910  1.0000
  H   H3        1.0  0.21083  0.94402  0.00764  1.0000
  H   H4        1.0  0.78917  0.05598  0.99236  1.0000
  H   H5        1.0  0.71858  0.59706  0.55019  1.0000
  H   H6        1.0  0.28142  0.40294  0.44981  1.0000
  H   H7        1.0  0.33449  0.94757  0.58800  1.0000
  H   H8        1.0  0.66551  0.05243  0.41200  1.0000
  H   H9        1.0  0.47481  0.01600  0.30949  1.0000
  H   H10       1.0  0.52519  0.98400  0.69050  1.0000
  H   H11       1.0  0.33435  0.92228  0.17924  1.0000
  H   H12       1.0  0.66565  0.07772  0.82076  1.0000
  H   H13       1.0  0.92982  0.66616  0.60321  1.0000
  H   H14       1.0  0.07018  0.33384  0.39679  1.0000
  H   H15       1.0  0.47210  0.39374  0.60974  1.0000
  H   H16       1.0  0.52790  0.60626  0.39027  1.0000
  H   H17       1.0  0.33082  0.55789  0.97383  1.0000
  H   H18       1.0  0.66918  0.44211  0.02617  1.0000
  H   H19       1.0  0.65908  0.69291  0.77076  1.0000
  H   H20       1.0  0.34092  0.30709  0.22924  1.0000
  C   C1        1.0  0.04137  0.75076  0.77935  1.0000
  C   C2        1.0  0.95863  0.24924  0.22065  1.0000
  C   C3        1.0  0.12268  0.80294  0.61222  1.0000
  C   C4        1.0  0.87733  0.19705  0.38778  1.0000
  C   C5        1.0  0.27557  0.90391  0.52943  1.0000
  C   C6        1.0  0.72443  0.09609  0.47056  1.0000
  C   C7        1.0  0.35210  0.94396  0.37450  1.0000
  C   C8        1.0  0.64790  0.05604  0.62550  1.0000
  C   C9        1.0  0.27308  0.89073  0.30021  1.0000
  C   C10       1.0  0.72692  0.10927  0.69979  1.0000
  C   C11       1.0  0.02961  0.73756  0.30290  1.0000
  C   C12       1.0  0.97039  0.26244  0.69710  1.0000
  C   C13       1.0  0.04591  0.74752  0.53744  1.0000
  C   C14       1.0  0.95409  0.25247  0.46256  1.0000
  C   C15       1.0  0.47492  0.46030  0.67944  1.0000
  C   C16       1.0  0.52508  0.53971  0.32056  1.0000
  C   C17       1.0  0.40754  0.54636  0.86674  1.0000
  C   C18       1.0  0.59247  0.45364  0.13326  1.0000
  C   C19       1.0  0.56876  0.61578  0.76625  1.0000
  C   C20       1.0  0.43124  0.38422  0.23376  1.0000
  C   C21       1.0  0.11753  0.79356  0.38117  1.0000
  C   C22       1.0  0.88247  0.20644  0.61883  1.0000
  N   N1        1.0  0.35069  0.44926  0.81085  1.0000
  N   N2        1.0  0.64931  0.55074  0.18915  1.0000
  N   N3        1.0  0.60848  0.56105  0.64841  1.0000
  N   N4        1.0  0.39152  0.43895  0.35159  1.0000
  O   O1        1.0  0.94500  0.61414  0.85728  1.0000
  O   O2        1.0  0.05500  0.38586  0.14272  1.0000
  O   O3        1.0  0.06904  0.84431  0.84112  1.0000
  O   O4        1.0  0.93096  0.15569  0.15888  1.0000
  O   O5        1.0  0.11388  0.75880  0.16385  1.0000
  O   O6        1.0  0.88612  0.24120  0.83615  1.0000
  O   O7        1.0  0.87698  0.67169  0.37200  1.0000
  O   O8        1.0  0.12301  0.32831  0.62800  1.0000
  O   O9        1.0  0.24615  0.03798  0.90374  1.0000
  O   O10       1.0  0.75384  0.96203  0.09626  1.0000
