data_image0
_chemical_formula_structural       Zn2H28C36N4O8
_chemical_formula_sum              "Zn2 H28 C36 N4 O8"
_cell_length_a       5.8009
_cell_length_b       11.146
_cell_length_c       15.1499
_cell_angle_alpha    113.892
_cell_angle_beta     90.0031
_cell_angle_gamma    105.071

_space_group_name_H-M_alt    "P 1"
_space_group_IT_number       1

loop_
  _space_group_symop_operation_xyz
  'x, y, z'

loop_
  _atom_site_type_symbol
  _atom_site_label
  _atom_site_symmetry_multiplicity
  _atom_site_fract_x
  _atom_site_fract_y
  _atom_site_fract_z
  _atom_site_occupancy
  Zn  Zn1       1.0  0.59387  0.99998  0.75004  1.0000
  Zn  Zn2       1.0  0.40606  0.99999  0.24995  1.0000
  H   H1        1.0  0.40381  0.53712  0.44370  1.0000
  H   H2        1.0  0.86635  0.46244  0.05618  1.0000
  H   H3        1.0  0.59611  0.46284  0.55630  1.0000
  H   H4        1.0  0.13357  0.53757  0.94381  1.0000
  H   H5        1.0  0.90640  0.68980  0.63881  1.0000
  H   H6        1.0  0.21636  0.31036  0.86119  1.0000
  H   H7        1.0  0.09350  0.31015  0.36118  1.0000
  H   H8        1.0  0.78360  0.68965  0.13881  1.0000
  H   H9        1.0  0.06939  0.03784  0.85453  1.0000
  H   H10       1.0  0.03126  0.96234  0.64548  1.0000
  H   H11       1.0  0.93062  0.96224  0.14544  1.0000
  H   H12       1.0  0.96870  0.03764  0.35449  1.0000
  H   H13       1.0  0.22814  0.91443  0.93545  1.0000
  H   H14       1.0  0.31321  0.08600  0.56466  1.0000
  H   H15       1.0  0.77207  0.08573  0.06454  1.0000
  H   H16       1.0  0.68672  0.91398  0.43532  1.0000
  H   H17       1.0  0.96059  0.69983  0.93488  1.0000
  H   H18       1.0  0.26009  0.30079  0.56558  1.0000
  H   H19       1.0  0.03972  0.30033  0.06518  1.0000
  H   H20       1.0  0.73986  0.69919  0.43440  1.0000
  H   H21       1.0  0.53947  0.60747  0.84509  1.0000
  H   H22       1.0  0.93094  0.39283  0.65529  1.0000
  H   H23       1.0  0.46078  0.39262  0.15502  1.0000
  H   H24       1.0  0.06901  0.60715  0.34470  1.0000
  H   H25       1.0  0.40702  0.74286  0.76762  1.0000
  H   H26       1.0  0.66307  0.25706  0.73243  1.0000
  H   H27       1.0  0.59308  0.25713  0.23244  1.0000
  H   H28       1.0  0.33688  0.74291  0.26756  1.0000
  C   C1        1.0  0.17410  0.62694  0.54624  1.0000
  C   C2        1.0  0.54690  0.37293  0.95369  1.0000
  C   C3        1.0  0.82580  0.37301  0.45376  1.0000
  C   C4        1.0  0.45308  0.62705  0.04629  1.0000
  C   C5        1.0  0.22578  0.51997  0.46753  1.0000
  C   C6        1.0  0.70563  0.47975  0.03240  1.0000
  C   C7        1.0  0.77416  0.48001  0.53247  1.0000
  C   C8        1.0  0.29432  0.52021  0.96757  1.0000
  C   C9        1.0  0.94664  0.60599  0.57853  1.0000
  C   C10       1.0  0.34044  0.39410  0.92151  1.0000
  C   C11       1.0  0.05330  0.39398  0.42147  1.0000
  C   C12       1.0  0.65956  0.60587  0.07848  1.0000
  C   C13       1.0  0.36416  0.76107  0.59649  1.0000
  C   C14       1.0  0.60266  0.23882  0.90338  1.0000
  C   C15       1.0  0.63575  0.23888  0.40350  1.0000
  C   C16       1.0  0.39725  0.76122  0.09665  1.0000
  C   C17       1.0  0.95849  0.94184  0.85355  1.0000
  C   C18       1.0  0.01602  0.05828  0.64640  1.0000
  C   C19       1.0  0.04154  0.05821  0.14643  1.0000
  C   C20       1.0  0.98396  0.94168  0.35357  1.0000
  C   C21       1.0  0.04590  0.87225  0.89792  1.0000
  C   C22       1.0  0.17301  0.12805  0.60214  1.0000
  C   C23       1.0  0.95424  0.12784  0.10209  1.0000
  C   C24       1.0  0.82692  0.87189  0.39782  1.0000
  C   C25       1.0  0.89621  0.75091  0.89617  1.0000
  C   C26       1.0  0.14442  0.24946  0.60408  1.0000
  C   C27       1.0  0.10398  0.24919  0.10387  1.0000
  C   C28       1.0  0.85555  0.75049  0.39589  1.0000
  C   C29       1.0  0.66340  0.70121  0.84778  1.0000
  C   C30       1.0  0.96122  0.29904  0.65250  1.0000
  C   C31       1.0  0.33677  0.29888  0.15229  1.0000
  C   C32       1.0  0.03875  0.70093  0.34748  1.0000
  C   C33       1.0  0.58795  0.77580  0.80501  1.0000
  C   C34       1.0  0.81111  0.22423  0.69505  1.0000
  C   C35       1.0  0.41214  0.22421  0.19502  1.0000
  C   C36       1.0  0.18885  0.77572  0.30493  1.0000
  N   N1        1.0  0.73206  0.89464  0.80855  1.0000
  N   N2        1.0  0.83670  0.10541  0.69144  1.0000
  N   N3        1.0  0.26791  0.10536  0.19145  1.0000
  N   N4        1.0  0.16327  0.89453  0.30853  1.0000
  O   O1        1.0  0.30164  0.85489  0.66911  1.0000
  O   O2        1.0  0.44600  0.14496  0.83096  1.0000
  O   O3        1.0  0.69834  0.14507  0.33089  1.0000
  O   O4        1.0  0.55409  0.85506  0.16905  1.0000
  O   O5        1.0  0.57054  0.77689  0.57051  1.0000
  O   O6        1.0  0.79364  0.22305  0.92905  1.0000
  O   O7        1.0  0.42938  0.22306  0.42950  1.0000
  O   O8        1.0  0.20622  0.77691  0.07095  1.0000
