data_image0
_chemical_formula_structural       Si2NiH70C30S2N2O6
_chemical_formula_sum              "Si2 Ni1 H70 C30 S2 N2 O6"
_cell_length_a       8.67369
_cell_length_b       9.24602
_cell_length_c       14.1439
_cell_angle_alpha    99.7037
_cell_angle_beta     103.164
_cell_angle_gamma    103.051

_space_group_name_H-M_alt    "P 1"
_space_group_IT_number       1

loop_
  _space_group_symop_operation_xyz
  'x, y, z'

loop_
  _atom_site_type_symbol
  _atom_site_label
  _atom_site_symmetry_multiplicity
  _atom_site_fract_x
  _atom_site_fract_y
  _atom_site_fract_z
  _atom_site_occupancy
  Si  Si1       1.0  0.32176  0.48191  0.75680  1.0000
  Si  Si2       1.0  0.67824  0.51809  0.24320  1.0000
  Ni  Ni1       1.0  0.50000  0.50000  1.00000  1.0000
  H   H1        1.0  0.25071  0.35396  0.02692  1.0000
  H   H2        1.0  0.74929  0.64604  0.97308  1.0000
  H   H3        1.0  0.23393  0.33028  0.90461  1.0000
  H   H4        1.0  0.76607  0.66972  0.09539  1.0000
  H   H5        1.0  0.50797  0.32815  0.54970  1.0000
  H   H6        1.0  0.49203  0.67185  0.45029  1.0000
  H   H7        1.0  0.43382  0.12762  0.53632  1.0000
  H   H8        1.0  0.56618  0.87238  0.46368  1.0000
  H   H9        1.0  0.51656  0.25182  0.65790  1.0000
  H   H10       1.0  0.48344  0.74819  0.34210  1.0000
  H   H11       1.0  0.05063  0.26729  0.47762  1.0000
  H   H12       1.0  0.94936  0.73270  0.52238  1.0000
  H   H13       1.0  0.15009  0.13688  0.42679  1.0000
  H   H14       1.0  0.84991  0.86312  0.57322  1.0000
  H   H15       1.0  0.23382  0.33730  0.44384  1.0000
  H   H16       1.0  0.76617  0.66269  0.55616  1.0000
  H   H17       1.0  0.25259  0.14651  0.70315  1.0000
  H   H18       1.0  0.74741  0.85349  0.29685  1.0000
  H   H19       1.0  0.16614  0.02321  0.58201  1.0000
  H   H20       1.0  0.83386  0.97679  0.41799  1.0000
  H   H21       1.0  0.06005  0.15146  0.62741  1.0000
  H   H22       1.0  0.93996  0.84854  0.37259  1.0000
  H   H23       1.0  0.27520  0.63566  0.56786  1.0000
  H   H24       1.0  0.72480  0.36434  0.43214  1.0000
  H   H25       1.0  0.35629  0.83351  0.57336  1.0000
  H   H26       1.0  0.64371  0.16649  0.42664  1.0000
  H   H27       1.0  0.18561  0.77326  0.62111  1.0000
  H   H28       1.0  0.81439  0.22674  0.37889  1.0000
  H   H29       1.0  0.32948  0.94749  0.78855  1.0000
  H   H30       1.0  0.67053  0.05251  0.21145  1.0000
  H   H31       1.0  0.50052  0.01863  0.74371  1.0000
  H   H32       1.0  0.49948  0.98136  0.25630  1.0000
  H   H33       1.0  0.53087  0.94720  0.85359  1.0000
  H   H34       1.0  0.46914  0.05279  0.14641  1.0000
  H   H35       1.0  0.66121  0.74694  0.78086  1.0000
  H   H36       1.0  0.33879  0.25306  0.21914  1.0000
  H   H37       1.0  0.64669  0.82994  0.67526  1.0000
  H   H38       1.0  0.35331  0.17006  0.32474  1.0000
  H   H39       1.0  0.56221  0.63016  0.65886  1.0000
  H   H40       1.0  0.43779  0.36984  0.34114  1.0000
  H   H41       1.0  0.06183  0.57074  0.93198  1.0000
  H   H42       1.0  0.93816  0.42927  0.06802  1.0000
  H   H43       1.0  0.88669  0.59595  0.84806  1.0000
  H   H44       1.0  0.11331  0.40405  0.15194  1.0000
  H   H45       1.0  0.09043  0.67801  0.84081  1.0000
  H   H46       1.0  0.90957  0.32199  0.15919  1.0000
  H   H47       1.0  0.88348  0.18896  0.75121  1.0000
  H   H48       1.0  0.11652  0.81104  0.24879  1.0000
  H   H49       1.0  0.76415  0.30608  0.79539  1.0000
  H   H50       1.0  0.23585  0.69392  0.20461  1.0000
  H   H51       1.0  0.93906  0.28500  0.87950  1.0000
  H   H52       1.0  0.06094  0.71501  0.12050  1.0000
  H   H53       1.0  0.00821  0.54125  0.65622  1.0000
  H   H54       1.0  0.99180  0.45876  0.34378  1.0000
  H   H55       1.0  0.80554  0.46365  0.66462  1.0000
  H   H56       1.0  0.19447  0.53635  0.33538  1.0000
  H   H57       1.0  0.91694  0.34040  0.61993  1.0000
  H   H58       1.0  0.08307  0.65960  0.38007  1.0000
  H   H59       1.0  0.42288  0.18935  0.04759  1.0000
  H   H60       1.0  0.57712  0.81065  0.95241  1.0000
  H   H61       1.0  0.41664  0.16570  0.91972  1.0000
  H   H62       1.0  0.58336  0.83430  0.08027  1.0000
  H   H63       1.0  0.11717  0.03836  0.86787  1.0000
  H   H64       1.0  0.88283  0.96164  0.13213  1.0000
  H   H65       1.0  0.22415  0.94192  0.94589  1.0000
  H   H66       1.0  0.77584  0.05807  0.05411  1.0000
  H   H67       1.0  0.04374  0.17297  0.01580  1.0000
  H   H68       1.0  0.95626  0.82703  0.98419  1.0000
  H   H69       1.0  0.14834  0.07317  0.09200  1.0000
  H   H70       1.0  0.85165  0.92684  0.90799  1.0000
  C   C1        1.0  0.27225  0.25846  0.58121  1.0000
  C   C2        1.0  0.72774  0.74154  0.41879  1.0000
  C   C3        1.0  0.44326  0.24025  0.58129  1.0000
  C   C4        1.0  0.55674  0.75975  0.41871  1.0000
  C   C5        1.0  0.17069  0.24914  0.47576  1.0000
  C   C6        1.0  0.82931  0.75086  0.52424  1.0000
  C   C7        1.0  0.18212  0.13774  0.62638  1.0000
  C   C8        1.0  0.81789  0.86226  0.37362  1.0000
  C   C9        1.0  0.41822  0.77098  0.71592  1.0000
  C   C10       1.0  0.58178  0.22902  0.28408  1.0000
  C   C11       1.0  0.30175  0.75178  0.61282  1.0000
  C   C12       1.0  0.69825  0.24822  0.38718  1.0000
  C   C13       1.0  0.44687  0.93068  0.77933  1.0000
  C   C14       1.0  0.55314  0.06932  0.22067  1.0000
  C   C15       1.0  0.58201  0.74262  0.70729  1.0000
  C   C16       1.0  0.41799  0.25738  0.29272  1.0000
  C   C17       1.0  0.99695  0.43326  0.78075  1.0000
  C   C18       1.0  0.00305  0.56674  0.21926  1.0000
  C   C19       1.0  0.00995  0.57911  0.85518  1.0000
  C   C20       1.0  0.99005  0.42089  0.14482  1.0000
  C   C21       1.0  0.88940  0.29458  0.80273  1.0000
  C   C22       1.0  0.11060  0.70542  0.19727  1.0000
  C   C23       1.0  0.92831  0.44536  0.67377  1.0000
  C   C24       1.0  0.07169  0.55464  0.32623  1.0000
  C   C25       1.0  0.34404  0.18079  0.97295  1.0000
  C   C26       1.0  0.65596  0.81921  0.02705  1.0000
  C   C27       1.0  0.18798  0.04875  0.94535  1.0000
  C   C28       1.0  0.81202  0.95125  0.05465  1.0000
  C   C29       1.0  0.07849  0.06533  0.01477  1.0000
  C   C30       1.0  0.92150  0.93468  0.98523  1.0000
  S   S1        1.0  0.52177  0.42847  0.84462  1.0000
  S   S2        1.0  0.47823  0.57153  0.15538  1.0000
  N   N1        1.0  0.30851  0.32987  0.97301  1.0000
  N   N2        1.0  0.69149  0.67013  0.02699  1.0000
  O   O1        1.0  0.29199  0.41131  0.63675  1.0000
  O   O2        1.0  0.70801  0.58869  0.36325  1.0000
  O   O3        1.0  0.33729  0.66563  0.76687  1.0000
  O   O4        1.0  0.66271  0.33437  0.23313  1.0000
  O   O5        1.0  0.16024  0.40913  0.79536  1.0000
  O   O6        1.0  0.83976  0.59087  0.20465  1.0000
