data_image0
_chemical_formula_structural       Cd2H16C24N16
_chemical_formula_sum              "Cd2 H16 C24 N16"
_cell_length_a       6.77924
_cell_length_b       10.2744
_cell_length_c       10.9061
_cell_angle_alpha    118.084
_cell_angle_beta     104.143
_cell_angle_gamma    89.9787

_space_group_name_H-M_alt    "P 1"
_space_group_IT_number       1

loop_
  _space_group_symop_operation_xyz
  'x, y, z'

loop_
  _atom_site_type_symbol
  _atom_site_label
  _atom_site_symmetry_multiplicity
  _atom_site_fract_x
  _atom_site_fract_y
  _atom_site_fract_z
  _atom_site_occupancy
  Cd  Cd1       1.0  0.74996  0.58052  0.99985  1.0000
  Cd  Cd2       1.0  0.25004  0.41949  0.00016  1.0000
  H   H1        1.0  0.03193  0.83517  0.32598  1.0000
  H   H2        1.0  0.46788  0.50942  0.67377  1.0000
  H   H3        1.0  0.96807  0.16483  0.67402  1.0000
  H   H4        1.0  0.53212  0.49058  0.32623  1.0000
  H   H5        1.0  0.13887  0.11087  0.47046  1.0000
  H   H6        1.0  0.36087  0.64073  0.52929  1.0000
  H   H7        1.0  0.86113  0.88914  0.52953  1.0000
  H   H8        1.0  0.63913  0.35926  0.47070  1.0000
  H   H9        1.0  0.02292  0.26865  0.35378  1.0000
  H   H10       1.0  0.47703  0.91512  0.64603  1.0000
  H   H11       1.0  0.97708  0.73135  0.64622  1.0000
  H   H12       1.0  0.52297  0.08488  0.35397  1.0000
  H   H13       1.0  0.84968  0.27911  0.12832  1.0000
  H   H14       1.0  0.65024  0.15078  0.87143  1.0000
  H   H15       1.0  0.15032  0.72089  0.87168  1.0000
  H   H16       1.0  0.34976  0.84922  0.12857  1.0000
  C   C1        1.0  0.98299  0.90692  0.27884  1.0000
  C   C2        1.0  0.51686  0.62827  0.72092  1.0000
  C   C3        1.0  0.01701  0.09308  0.72116  1.0000
  C   C4        1.0  0.48314  0.37172  0.27908  1.0000
  C   C5        1.0  0.04180  0.06178  0.35964  1.0000
  C   C6        1.0  0.45803  0.70238  0.64007  1.0000
  C   C7        1.0  0.95820  0.93823  0.64036  1.0000
  C   C8        1.0  0.54197  0.29762  0.35993  1.0000
  C   C9        1.0  0.98176  0.14783  0.29416  1.0000
  C   C10       1.0  0.51802  0.85384  0.70562  1.0000
  C   C11       1.0  0.01825  0.85218  0.70584  1.0000
  C   C12       1.0  0.48198  0.14616  0.29439  1.0000
  C   C13       1.0  0.86586  0.07820  0.14744  1.0000
  C   C14       1.0  0.63389  0.93079  0.85235  1.0000
  C   C15       1.0  0.13414  0.92180  0.85256  1.0000
  C   C16       1.0  0.36611  0.06921  0.14765  1.0000
  C   C17       1.0  0.81037  0.92122  0.07478  1.0000
  C   C18       1.0  0.68962  0.84640  0.92500  1.0000
  C   C19       1.0  0.18962  0.07878  0.92521  1.0000
  C   C20       1.0  0.31038  0.15360  0.07499  1.0000
  C   C21       1.0  0.80516  0.15916  0.07092  1.0000
  C   C22       1.0  0.69460  0.08821  0.92886  1.0000
  C   C23       1.0  0.19483  0.84084  0.92908  1.0000
  C   C24       1.0  0.30540  0.91179  0.07113  1.0000
  N   N1        1.0  0.01404  0.52744  0.14364  1.0000
  N   N2        1.0  0.48565  0.38394  0.85626  1.0000
  N   N3        1.0  0.98596  0.47256  0.85637  1.0000
  N   N4        1.0  0.51435  0.61606  0.14374  1.0000
  N   N5        1.0  0.01448  0.53681  0.25827  1.0000
  N   N6        1.0  0.48504  0.27861  0.74165  1.0000
  N   N7        1.0  0.98553  0.46319  0.74174  1.0000
  N   N8        1.0  0.51496  0.72138  0.25834  1.0000
  N   N9        1.0  0.01492  0.54427  0.36858  1.0000
  N   N10       1.0  0.48442  0.17572  0.63139  1.0000
  N   N11       1.0  0.98509  0.45572  0.63142  1.0000
  N   N12       1.0  0.51558  0.82428  0.36861  1.0000
  N   N13       1.0  0.86878  0.83925  0.14181  1.0000
  N   N14       1.0  0.63110  0.69748  0.85793  1.0000
  N   N15       1.0  0.13122  0.16075  0.85819  1.0000
  N   N16       1.0  0.36890  0.30253  0.14207  1.0000
