data_image0
_chemical_formula_structural       Ba4H12C28N4O16
_chemical_formula_sum              "Ba4 H12 C28 N4 O16"
_cell_length_a       6.93777
_cell_length_b       6.93775
_cell_length_c       17.5603
_cell_angle_alpha    87.596
_cell_angle_beta     87.5961
_cell_angle_gamma    63.1334

_space_group_name_H-M_alt    "P 1"
_space_group_IT_number       1

loop_
  _space_group_symop_operation_xyz
  'x, y, z'

loop_
  _atom_site_type_symbol
  _atom_site_label
  _atom_site_symmetry_multiplicity
  _atom_site_fract_x
  _atom_site_fract_y
  _atom_site_fract_z
  _atom_site_occupancy
  Ba  Ba1       1.0  0.67810  0.98752  0.69360  1.0000
  Ba  Ba2       1.0  0.01248  0.32190  0.80640  1.0000
  Ba  Ba3       1.0  0.32190  0.01248  0.30640  1.0000
  Ba  Ba4       1.0  0.98752  0.67810  0.19360  1.0000
  H   H1        1.0  0.78729  0.60351  0.47656  1.0000
  H   H2        1.0  0.39650  0.21270  0.02344  1.0000
  H   H3        1.0  0.21270  0.39650  0.52344  1.0000
  H   H4        1.0  0.60351  0.78730  0.97656  1.0000
  H   H5        1.0  0.76199  0.09665  0.35023  1.0000
  H   H6        1.0  0.90335  0.23800  0.14977  1.0000
  H   H7        1.0  0.23801  0.90334  0.64977  1.0000
  H   H8        1.0  0.09666  0.76199  0.85023  1.0000
  H   H9        1.0  0.71314  0.93427  0.47586  1.0000
  H   H10       1.0  0.06573  0.28686  0.02414  1.0000
  H   H11       1.0  0.28686  0.06573  0.52415  1.0000
  H   H12       1.0  0.93428  0.71314  0.97585  1.0000
  C   C1        1.0  0.76037  0.34667  0.54091  1.0000
  C   C2        1.0  0.65333  0.23963  0.95909  1.0000
  C   C3        1.0  0.23963  0.65333  0.45909  1.0000
  C   C4        1.0  0.34667  0.76037  0.04091  1.0000
  C   C5        1.0  0.77455  0.45366  0.47361  1.0000
  C   C6        1.0  0.54634  0.22545  0.02639  1.0000
  C   C7        1.0  0.22545  0.54634  0.52639  1.0000
  C   C8        1.0  0.45366  0.77455  0.97361  1.0000
  C   C9        1.0  0.77744  0.36403  0.40361  1.0000
  C   C10       1.0  0.63598  0.22256  0.09639  1.0000
  C   C11       1.0  0.22256  0.63597  0.59639  1.0000
  C   C12       1.0  0.36403  0.77744  0.90361  1.0000
  C   C13       1.0  0.75908  0.17180  0.40382  1.0000
  C   C14       1.0  0.82821  0.24092  0.09618  1.0000
  C   C15       1.0  0.24092  0.82820  0.59618  1.0000
  C   C16       1.0  0.17180  0.75908  0.90382  1.0000
  C   C17       1.0  0.73391  0.08143  0.47379  1.0000
  C   C18       1.0  0.91857  0.26609  0.02621  1.0000
  C   C19       1.0  0.26609  0.91857  0.52621  1.0000
  C   C20       1.0  0.08143  0.73391  0.97379  1.0000
  C   C21       1.0  0.77515  0.43490  0.61692  1.0000
  C   C22       1.0  0.56510  0.22485  0.88308  1.0000
  C   C23       1.0  0.22485  0.56511  0.38308  1.0000
  C   C24       1.0  0.43490  0.77515  0.11692  1.0000
  C   C25       1.0  0.80460  0.47077  0.33026  1.0000
  C   C26       1.0  0.52924  0.19539  0.16974  1.0000
  C   C27       1.0  0.19539  0.52922  0.66974  1.0000
  C   C28       1.0  0.47078  0.80460  0.83026  1.0000
  N   N1        1.0  0.73768  0.16305  0.54127  1.0000
  N   N2        1.0  0.83695  0.26232  0.95873  1.0000
  N   N3        1.0  0.26232  0.83695  0.45873  1.0000
  N   N4        1.0  0.16305  0.73768  0.04127  1.0000
  O   O1        1.0  0.81251  0.30783  0.67518  1.0000
  O   O2        1.0  0.69216  0.18749  0.82481  1.0000
  O   O3        1.0  0.18748  0.69217  0.32482  1.0000
  O   O4        1.0  0.30783  0.81252  0.17519  1.0000
  O   O5        1.0  0.75256  0.62614  0.61686  1.0000
  O   O6        1.0  0.37386  0.24744  0.88314  1.0000
  O   O7        1.0  0.24744  0.37387  0.38314  1.0000
  O   O8        1.0  0.62614  0.75256  0.11686  1.0000
  O   O9        1.0  0.72012  0.67617  0.32693  1.0000
  O   O10       1.0  0.32383  0.27988  0.17307  1.0000
  O   O11       1.0  0.27987  0.32382  0.67307  1.0000
  O   O12       1.0  0.67618  0.72012  0.82693  1.0000
  O   O13       1.0  0.91567  0.34920  0.27632  1.0000
  O   O14       1.0  0.65081  0.08433  0.22368  1.0000
  O   O15       1.0  0.08433  0.65080  0.72368  1.0000
  O   O16       1.0  0.34921  0.91567  0.77632  1.0000
