data_image0
_chemical_formula_structural       Cd2H32C36N8O8
_chemical_formula_sum              "Cd2 H32 C36 N8 O8"
_cell_length_a       8.30317
_cell_length_b       10.6688
_cell_length_c       11.4483
_cell_angle_alpha    70.1183
_cell_angle_beta     80.0399
_cell_angle_gamma    66.8553

_space_group_name_H-M_alt    "P 1"
_space_group_IT_number       1

loop_
  _space_group_symop_operation_xyz
  'x, y, z'

loop_
  _atom_site_type_symbol
  _atom_site_label
  _atom_site_symmetry_multiplicity
  _atom_site_fract_x
  _atom_site_fract_y
  _atom_site_fract_z
  _atom_site_occupancy
  Cd  Cd1       1.0  0.18846  0.94517  0.37938  1.0000
  Cd  Cd2       1.0  0.81154  0.05483  0.62062  1.0000
  H   H1        1.0  0.00805  0.98116  0.15213  1.0000
  H   H2        1.0  0.99195  0.01884  0.84787  1.0000
  H   H3        1.0  0.85367  0.16456  0.96318  1.0000
  H   H4        1.0  0.14633  0.83544  0.03682  1.0000
  H   H5        1.0  0.86778  0.48686  0.10472  1.0000
  H   H6        1.0  0.13222  0.51314  0.89528  1.0000
  H   H7        1.0  0.01931  0.29117  0.28698  1.0000
  H   H8        1.0  0.98069  0.70883  0.71301  1.0000
  H   H9        1.0  0.71249  0.56068  0.92403  1.0000
  H   H10       1.0  0.28751  0.43932  0.07597  1.0000
  H   H11       1.0  0.87162  0.46925  0.82914  1.0000
  H   H12       1.0  0.12839  0.53075  0.17085  1.0000
  H   H13       1.0  0.53350  0.40702  0.92591  1.0000
  H   H14       1.0  0.46651  0.59298  0.07409  1.0000
  H   H15       1.0  0.68900  0.33692  0.81855  1.0000
  H   H16       1.0  0.31101  0.66308  0.18145  1.0000
  H   H17       1.0  0.46882  0.41555  0.67418  1.0000
  H   H18       1.0  0.53118  0.58445  0.32581  1.0000
  H   H19       1.0  0.29588  0.61652  0.50117  1.0000
  H   H20       1.0  0.70413  0.38347  0.49883  1.0000
  H   H21       1.0  0.38419  0.91512  0.61244  1.0000
  H   H22       1.0  0.61581  0.08488  0.38756  1.0000
  H   H23       1.0  0.55565  0.73094  0.78738  1.0000
  H   H24       1.0  0.44435  0.26906  0.21262  1.0000
  H   H25       1.0  0.32391  0.19610  0.55884  1.0000
  H   H26       1.0  0.67609  0.80390  0.44117  1.0000
  H   H27       1.0  0.19481  0.33035  0.43464  1.0000
  H   H28       1.0  0.80519  0.66965  0.56536  1.0000
  H   H29       1.0  0.64670  0.01556  0.07821  1.0000
  H   H30       1.0  0.35330  0.98445  0.92178  1.0000
  H   H31       1.0  0.77744  0.85970  0.18723  1.0000
  H   H32       1.0  0.22256  0.14030  0.81277  1.0000
  C   C1        1.0  0.97524  0.09498  0.13639  1.0000
  C   C2        1.0  0.02476  0.90502  0.86361  1.0000
  C   C3        1.0  0.89018  0.19767  0.03173  1.0000
  C   C4        1.0  0.10982  0.80233  0.96827  1.0000
  C   C5        1.0  0.85154  0.34278  0.01562  1.0000
  C   C6        1.0  0.14847  0.65722  0.98438  1.0000
  C   C7        1.0  0.89813  0.37608  0.11014  1.0000
  C   C8        1.0  0.10187  0.62392  0.88986  1.0000
  C   C9        1.0  0.98277  0.26737  0.21234  1.0000
  C   C10       1.0  0.01723  0.73264  0.78766  1.0000
  C   C11       1.0  0.76721  0.45904  0.90204  1.0000
  C   C12       1.0  0.23279  0.54095  0.09796  1.0000
  C   C13       1.0  0.62959  0.43207  0.85084  1.0000
  C   C14       1.0  0.37042  0.56793  0.14915  1.0000
  C   C15       1.0  0.52921  0.55425  0.74602  1.0000
  C   C16       1.0  0.47080  0.44575  0.25398  1.0000
  C   C17       1.0  0.45325  0.52531  0.66270  1.0000
  C   C18       1.0  0.54675  0.47469  0.33730  1.0000
  C   C19       1.0  0.35708  0.63618  0.56667  1.0000
  C   C20       1.0  0.64292  0.36382  0.43333  1.0000
  C   C21       1.0  0.40418  0.80348  0.62863  1.0000
  C   C22       1.0  0.59582  0.19652  0.37137  1.0000
  C   C23       1.0  0.50199  0.69795  0.72734  1.0000
  C   C24       1.0  0.49801  0.30205  0.27266  1.0000
  C   C25       1.0  0.06598  0.19255  0.56315  1.0000
  C   C26       1.0  0.93401  0.80745  0.43686  1.0000
  C   C27       1.0  0.19116  0.27491  0.53482  1.0000
  C   C28       1.0  0.80884  0.72509  0.46519  1.0000
  C   C29       1.0  0.14097  0.37708  0.60364  1.0000
  C   C30       1.0  0.85903  0.62293  0.39637  1.0000
  C   C31       1.0  0.49510  0.91719  0.22606  1.0000
  C   C32       1.0  0.50489  0.08282  0.77394  1.0000
  C   C33       1.0  0.65757  0.90627  0.13497  1.0000
  C   C34       1.0  0.34243  0.09374  0.86502  1.0000
  C   C35       1.0  0.66999  0.82312  0.05444  1.0000
  C   C36       1.0  0.33002  0.17688  0.94555  1.0000
  N   N1        1.0  0.02199  0.12862  0.22538  1.0000
  N   N2        1.0  0.97800  0.87138  0.77462  1.0000
  N   N3        1.0  0.33321  0.77368  0.54891  1.0000
  N   N4        1.0  0.66679  0.22632  0.45109  1.0000
  N   N5        1.0  0.09827  0.45811  0.66052  1.0000
  N   N6        1.0  0.90173  0.54189  0.33948  1.0000
  N   N7        1.0  0.67233  0.75763  0.99048  1.0000
  N   N8        1.0  0.32767  0.24236  0.00953  1.0000
  O   O1        1.0  0.09044  0.11090  0.49792  1.0000
  O   O2        1.0  0.90956  0.88910  0.50208  1.0000
  O   O3        1.0  0.94788  0.20940  0.64846  1.0000
  O   O4        1.0  0.05212  0.79060  0.35154  1.0000
  O   O5        1.0  0.48005  0.97988  0.30575  1.0000
  O   O6        1.0  0.51996  0.02012  0.69425  1.0000
  O   O7        1.0  0.38806  0.86406  0.21547  1.0000
  O   O8        1.0  0.61193  0.13595  0.78453  1.0000
