data_image0
_chemical_formula_structural       HgH8C12N6Cl2
_chemical_formula_sum              "Hg1 H8 C12 N6 Cl2"
_cell_length_a       7.11235
_cell_length_b       7.38021
_cell_length_c       7.99425
_cell_angle_alpha    115.046
_cell_angle_beta     96.824
_cell_angle_gamma    105.751

_space_group_name_H-M_alt    "P 1"
_space_group_IT_number       1

loop_
  _space_group_symop_operation_xyz
  'x, y, z'

loop_
  _atom_site_type_symbol
  _atom_site_label
  _atom_site_symmetry_multiplicity
  _atom_site_fract_x
  _atom_site_fract_y
  _atom_site_fract_z
  _atom_site_occupancy
  Hg  Hg1       1.0  0.50000  1.00000  0.50000  1.0000
  H   H1        1.0  0.98916  0.76492  0.47237  1.0000
  H   H2        1.0  0.01084  0.23508  0.52764  1.0000
  H   H3        1.0  0.69619  0.42209  0.33906  1.0000
  H   H4        1.0  0.30382  0.57791  0.66093  1.0000
  H   H5        1.0  0.70893  0.09216  0.06506  1.0000
  H   H6        1.0  0.29107  0.90784  0.93494  1.0000
  H   H7        1.0  0.01375  0.12595  0.93727  1.0000
  H   H8        1.0  0.98625  0.87405  0.06273  1.0000
  C   C1        1.0  0.99222  0.61944  0.35569  1.0000
  C   C2        1.0  0.00778  0.38056  0.64432  1.0000
  C   C3        1.0  0.82684  0.42725  0.27993  1.0000
  C   C4        1.0  0.17317  0.57275  0.72007  1.0000
  C   C5        1.0  0.83432  0.24522  0.12956  1.0000
  C   C6        1.0  0.16568  0.75477  0.87044  1.0000
  C   C7        1.0  0.00510  0.26171  0.05953  1.0000
  C   C8        1.0  0.99491  0.73829  0.94047  1.0000
  C   C9        1.0  0.16502  0.45979  0.14621  1.0000
  C   C10       1.0  0.83498  0.54021  0.85379  1.0000
  C   C11       1.0  0.34550  0.48251  0.07189  1.0000
  C   C12       1.0  0.65449  0.51749  0.92811  1.0000
  N   N1        1.0  0.15858  0.63607  0.29269  1.0000
  N   N2        1.0  0.84143  0.36393  0.70732  1.0000
  N   N3        1.0  0.48850  0.67913  0.14082  1.0000
  N   N4        1.0  0.51149  0.32087  0.85918  1.0000
  N   N5        1.0  0.35558  0.30276  0.93170  1.0000
  N   N6        1.0  0.64441  0.69724  0.06830  1.0000
  Cl  Cl1       1.0  0.35303  0.18531  0.37297  1.0000
  Cl  Cl2       1.0  0.64697  0.81469  0.62703  1.0000
