data_image0
_chemical_formula_structural       HgH8C12Br2N6
_chemical_formula_sum              "Hg1 H8 C12 Br2 N6"
_cell_length_a       7.29727
_cell_length_b       7.53627
_cell_length_c       7.99321
_cell_angle_alpha    114.58
_cell_angle_beta     96.25
_cell_angle_gamma    106.812

_space_group_name_H-M_alt    "P 1"
_space_group_IT_number       1

loop_
  _space_group_symop_operation_xyz
  'x, y, z'

loop_
  _atom_site_type_symbol
  _atom_site_label
  _atom_site_symmetry_multiplicity
  _atom_site_fract_x
  _atom_site_fract_y
  _atom_site_fract_z
  _atom_site_occupancy
  Hg  Hg1       1.0  0.50000  0.00001  0.50000  1.0000
  H   H1        1.0  0.00281  0.23853  0.53730  1.0000
  H   H2        1.0  0.99718  0.76146  0.46271  1.0000
  H   H3        1.0  0.29087  0.57668  0.66419  1.0000
  H   H4        1.0  0.70912  0.42329  0.33580  1.0000
  H   H5        1.0  0.27722  0.90210  0.93081  1.0000
  H   H6        1.0  0.72279  0.09789  0.06918  1.0000
  H   H7        1.0  0.97729  0.86834  0.05711  1.0000
  H   H8        1.0  0.02272  0.13166  0.94288  1.0000
  C   C1        1.0  0.00005  0.38225  0.65058  1.0000
  C   C2        1.0  0.99994  0.61774  0.34942  1.0000
  C   C3        1.0  0.16236  0.57164  0.72278  1.0000
  C   C4        1.0  0.83764  0.42834  0.27722  1.0000
  C   C5        1.0  0.15457  0.75094  0.86894  1.0000
  C   C6        1.0  0.84544  0.24905  0.13105  1.0000
  C   C7        1.0  0.98667  0.73441  0.93840  1.0000
  C   C8        1.0  0.01334  0.26559  0.06161  1.0000
  C   C9        1.0  0.83010  0.53903  0.85570  1.0000
  C   C10       1.0  0.16990  0.46098  0.14430  1.0000
  C   C11       1.0  0.65248  0.51680  0.92946  1.0000
  C   C12       1.0  0.34752  0.48321  0.07054  1.0000
  Br  Br1       1.0  0.65217  0.80885  0.62884  1.0000
  Br  Br2       1.0  0.34783  0.19116  0.37116  1.0000
  N   N1        1.0  0.83656  0.36540  0.71305  1.0000
  N   N2        1.0  0.16344  0.63460  0.28695  1.0000
  N   N3        1.0  0.51291  0.32311  0.86480  1.0000
  N   N4        1.0  0.48709  0.67690  0.13521  1.0000
  N   N5        1.0  0.35877  0.30597  0.93619  1.0000
  N   N6        1.0  0.64123  0.69404  0.06382  1.0000
