data_image0
_chemical_formula_structural       Hg2H8C12I4N6
_chemical_formula_sum              "Hg2 H8 C12 I4 N6"
_cell_length_a       7.06456
_cell_length_b       8.14152
_cell_length_c       9.78498
_cell_angle_alpha    84.6776
_cell_angle_beta     79.0819
_cell_angle_gamma    65.9706

_space_group_name_H-M_alt    "P 1"
_space_group_IT_number       1

loop_
  _space_group_symop_operation_xyz
  'x, y, z'

loop_
  _atom_site_type_symbol
  _atom_site_label
  _atom_site_symmetry_multiplicity
  _atom_site_fract_x
  _atom_site_fract_y
  _atom_site_fract_z
  _atom_site_occupancy
  Hg  Hg1       1.0  0.25367  0.09297  0.14692  1.0000
  Hg  Hg2       1.0  0.74633  0.90703  0.85308  1.0000
  H   H1        1.0  0.10278  0.53103  0.11844  1.0000
  H   H2        1.0  0.89724  0.46898  0.88157  1.0000
  H   H3        1.0  0.01488  0.81193  0.24548  1.0000
  H   H4        1.0  0.98510  0.18810  0.75451  1.0000
  H   H5        1.0  0.12091  0.78388  0.48244  1.0000
  H   H6        1.0  0.87907  0.21613  0.51756  1.0000
  H   H7        1.0  0.30847  0.47695  0.57933  1.0000
  H   H8        1.0  0.69152  0.52304  0.42065  1.0000
  C   C1        1.0  0.14331  0.52428  0.22169  1.0000
  C   C2        1.0  0.85669  0.47573  0.77829  1.0000
  C   C3        1.0  0.09654  0.68098  0.29260  1.0000
  C   C4        1.0  0.90348  0.31900  0.70738  1.0000
  C   C5        1.0  0.15535  0.66550  0.42292  1.0000
  C   C6        1.0  0.84466  0.33448  0.57710  1.0000
  C   C7        1.0  0.26058  0.49484  0.47766  1.0000
  C   C8        1.0  0.73943  0.50516  0.52236  1.0000
  C   C9        1.0  0.29902  0.34525  0.40011  1.0000
  C   C10       1.0  0.70097  0.65475  0.59990  1.0000
  C   C11       1.0  0.40559  0.16172  0.45376  1.0000
  C   C12       1.0  0.59441  0.83829  0.54625  1.0000
  I   I1        1.0  0.82851  0.19926  0.18220  1.0000
  I   I2        1.0  0.17149  0.80074  0.81782  1.0000
  I   I3        1.0  0.58044  0.74862  0.10936  1.0000
  I   I4        1.0  0.41958  0.25136  0.89064  1.0000
  N   N1        1.0  0.24010  0.36010  0.27460  1.0000
  N   N2        1.0  0.75990  0.63990  0.72538  1.0000
  N   N3        1.0  0.37266  0.02720  0.40560  1.0000
  N   N4        1.0  0.62732  0.97278  0.59438  1.0000
  N   N5        1.0  0.46866  0.86250  0.45140  1.0000
  N   N6        1.0  0.53136  0.13751  0.54862  1.0000
