data_image0
_chemical_formula_structural       Sr2CuH26C18O22
_chemical_formula_sum              "Sr2 Cu1 H26 C18 O22"
_cell_length_a       7.09002
_cell_length_b       10.0087
_cell_length_c       10.3919
_cell_angle_alpha    66.0395
_cell_angle_beta     72.7307
_cell_angle_gamma    80.4216

_space_group_name_H-M_alt    "P 1"
_space_group_IT_number       1

loop_
  _space_group_symop_operation_xyz
  'x, y, z'

loop_
  _atom_site_type_symbol
  _atom_site_label
  _atom_site_symmetry_multiplicity
  _atom_site_fract_x
  _atom_site_fract_y
  _atom_site_fract_z
  _atom_site_occupancy
  Sr  Sr1       1.0  0.97458  0.46472  0.26227  1.0000
  Sr  Sr2       1.0  0.02542  0.53528  0.73773  1.0000
  Cu  Cu1       1.0  0.49999  1.00000  0.50000  1.0000
  H   H1        1.0  0.38354  0.70616  0.06666  1.0000
  H   H2        1.0  0.61646  0.29383  0.93334  1.0000
  H   H3        1.0  0.08570  0.96775  0.31689  1.0000
  H   H4        1.0  0.91431  0.03224  0.68311  1.0000
  H   H5        1.0  0.22732  0.16326  0.85161  1.0000
  H   H6        1.0  0.77270  0.83675  0.14839  1.0000
  H   H7        1.0  0.16670  0.87744  0.63686  1.0000
  H   H8        1.0  0.83328  0.12256  0.36314  1.0000
  H   H9        1.0  0.24934  0.84976  0.48717  1.0000
  H   H10       1.0  0.75064  0.15024  0.51283  1.0000
  H   H11       1.0  0.72886  0.73391  0.38118  1.0000
  H   H12       1.0  0.27113  0.26609  0.61882  1.0000
  H   H13       1.0  0.74134  0.57197  0.49167  1.0000
  H   H14       1.0  0.25866  0.42803  0.50833  1.0000
  H   H15       1.0  0.31103  0.22229  0.33436  1.0000
  H   H16       1.0  0.68897  0.77771  0.66564  1.0000
  H   H17       1.0  0.13151  0.15299  0.46001  1.0000
  H   H18       1.0  0.86849  0.84701  0.53999  1.0000
  H   H19       1.0  0.30949  0.48099  0.97179  1.0000
  H   H20       1.0  0.69051  0.51901  0.02821  1.0000
  H   H21       1.0  0.38878  0.36091  0.09975  1.0000
  H   H22       1.0  0.61122  0.63909  0.90025  1.0000
  H   H23       1.0  0.60551  0.35149  0.23401  1.0000
  H   H24       1.0  0.39449  0.64852  0.76599  1.0000
  H   H25       1.0  0.49951  0.49117  0.26520  1.0000
  H   H26       1.0  0.50049  0.50883  0.73480  1.0000
  C   C1        1.0  0.32230  0.93460  0.94241  1.0000
  C   C2        1.0  0.67771  0.06540  0.05759  1.0000
  C   C3        1.0  0.32253  0.81188  0.07114  1.0000
  C   C4        1.0  0.67747  0.18812  0.92886  1.0000
  C   C5        1.0  0.24041  0.82339  0.20662  1.0000
  C   C6        1.0  0.75960  0.17661  0.79339  1.0000
  C   C7        1.0  0.15197  0.95757  0.21229  1.0000
  C   C8        1.0  0.84803  0.04243  0.78771  1.0000
  C   C9        1.0  0.14314  0.07879  0.08464  1.0000
  C   C10       1.0  0.85687  0.92121  0.91536  1.0000
  C   C11       1.0  0.23252  0.06743  0.94998  1.0000
  C   C12       1.0  0.76748  0.93257  0.05002  1.0000
  C   C13       1.0  0.40940  0.92092  0.79866  1.0000
  C   C14       1.0  0.59060  0.07908  0.20133  1.0000
  C   C15       1.0  0.23812  0.69089  0.34445  1.0000
  C   C16       1.0  0.76190  0.30911  0.65555  1.0000
  C   C17       1.0  0.03516  0.22071  0.08819  1.0000
  C   C18       1.0  0.96484  0.77928  0.91181  1.0000
  O   O1        1.0  0.39723  0.03452  0.68316  1.0000
  O   O2        1.0  0.60276  0.96548  0.31684  1.0000
  O   O3        1.0  0.48925  0.79894  0.79413  1.0000
  O   O4        1.0  0.51075  0.20105  0.20587  1.0000
  O   O5        1.0  0.25400  0.56471  0.33673  1.0000
  O   O6        1.0  0.74600  0.43529  0.66327  1.0000
  O   O7        1.0  0.21542  0.70849  0.46278  1.0000
  O   O8        1.0  0.78457  0.29151  0.53722  1.0000
  O   O9        1.0  0.94927  0.22838  0.21300  1.0000
  O   O10       1.0  0.05074  0.77162  0.78700  1.0000
  O   O11       1.0  0.03421  0.32476  0.96877  1.0000
  O   O12       1.0  0.96579  0.67524  0.03125  1.0000
  O   O13       1.0  0.24332  0.92580  0.53040  1.0000
  O   O14       1.0  0.75666  0.07420  0.46960  1.0000
  O   O15       1.0  0.75677  0.63337  0.38627  1.0000
  O   O16       1.0  0.24323  0.36663  0.61373  1.0000
  O   O17       1.0  0.19598  0.24574  0.40563  1.0000
  O   O18       1.0  0.80402  0.75426  0.59437  1.0000
  O   O19       1.0  0.29502  0.44619  0.07762  1.0000
  O   O20       1.0  0.70498  0.55381  0.92238  1.0000
  O   O21       1.0  0.62947  0.44834  0.22715  1.0000
  O   O22       1.0  0.37053  0.55166  0.77285  1.0000
