data_image0
_chemical_formula_structural       Cu6H28C24S2I6N8
_chemical_formula_sum              "Cu6 H28 C24 S2 I6 N8"
_cell_length_a       8.40428
_cell_length_b       9.11987
_cell_length_c       13.5469
_cell_angle_alpha    87.274
_cell_angle_beta     85.8936
_cell_angle_gamma    66.1494

_space_group_name_H-M_alt    "P 1"
_space_group_IT_number       1

loop_
  _space_group_symop_operation_xyz
  'x, y, z'

loop_
  _atom_site_type_symbol
  _atom_site_label
  _atom_site_symmetry_multiplicity
  _atom_site_fract_x
  _atom_site_fract_y
  _atom_site_fract_z
  _atom_site_occupancy
  Cu  Cu1       1.0  0.49456  0.11587  0.26435  1.0000
  Cu  Cu2       1.0  0.50544  0.88413  0.73565  1.0000
  Cu  Cu3       1.0  0.36414  0.09744  0.45420  1.0000
  Cu  Cu4       1.0  0.63586  0.90257  0.54580  1.0000
  Cu  Cu5       1.0  0.18876  0.34226  0.22667  1.0000
  Cu  Cu6       1.0  0.81124  0.65774  0.77333  1.0000
  H   H1        1.0  0.25687  0.74385  0.10883  1.0000
  H   H2        1.0  0.74314  0.25613  0.89118  1.0000
  H   H3        1.0  0.14478  0.95720  0.10031  1.0000
  H   H4        1.0  0.85523  0.04278  0.89969  1.0000
  H   H5        1.0  0.16232  0.83365  0.99784  1.0000
  H   H6        1.0  0.83768  0.16634  0.00217  1.0000
  H   H7        1.0  0.36460  0.45900  0.38227  1.0000
  H   H8        1.0  0.63540  0.54100  0.61773  1.0000
  H   H9        1.0  0.29815  0.66545  0.41391  1.0000
  H   H10       1.0  0.70185  0.33456  0.58609  1.0000
  H   H11       1.0  0.30386  0.60853  0.28843  1.0000
  H   H12       1.0  0.69614  0.39148  0.71157  1.0000
  H   H13       1.0  0.85702  0.05331  0.19093  1.0000
  H   H14       1.0  0.14299  0.94668  0.80908  1.0000
  H   H15       1.0  0.55460  0.78865  0.19085  1.0000
  H   H16       1.0  0.44539  0.21136  0.80915  1.0000
  H   H17       1.0  0.85189  0.48947  0.01598  1.0000
  H   H18       1.0  0.14811  0.51053  0.98402  1.0000
  H   H19       1.0  0.66533  0.53527  0.10042  1.0000
  H   H20       1.0  0.33467  0.46472  0.89957  1.0000
  H   H21       1.0  0.85701  0.29570  0.32909  1.0000
  H   H22       1.0  0.14299  0.70431  0.67091  1.0000
  H   H23       1.0  0.67846  0.45712  0.27974  1.0000
  H   H24       1.0  0.32154  0.54288  0.72026  1.0000
  H   H25       1.0  0.62125  0.64637  0.41887  1.0000
  H   H26       1.0  0.37874  0.35363  0.58112  1.0000
  H   H27       1.0  0.00968  0.79068  0.48635  1.0000
  H   H28       1.0  0.99032  0.20932  0.51365  1.0000
  C   C1        1.0  0.14408  0.84324  0.07880  1.0000
  C   C2        1.0  0.85593  0.15674  0.92121  1.0000
  C   C3        1.0  0.97946  0.82653  0.11404  1.0000
  C   C4        1.0  0.02054  0.17346  0.88596  1.0000
  C   C5        1.0  0.84526  0.94452  0.16925  1.0000
  C   C6        1.0  0.15474  0.05547  0.83075  1.0000
  C   C7        1.0  0.67851  0.79722  0.16984  1.0000
  C   C8        1.0  0.32148  0.20278  0.83016  1.0000
  C   C9        1.0  0.81430  0.67654  0.11770  1.0000
  C   C10       1.0  0.18570  0.32346  0.88230  1.0000
  C   C11       1.0  0.80014  0.52540  0.09200  1.0000
  C   C12       1.0  0.19985  0.47459  0.90800  1.0000
  C   C13       1.0  0.81986  0.40987  0.28679  1.0000
  C   C14       1.0  0.18014  0.59014  0.71322  1.0000
  C   C15       1.0  0.87307  0.52074  0.34135  1.0000
  C   C16       1.0  0.12692  0.47927  0.65864  1.0000
  C   C17       1.0  0.75661  0.63185  0.40724  1.0000
  C   C18       1.0  0.24338  0.36816  0.59276  1.0000
  C   C19       1.0  0.97160  0.71106  0.44525  1.0000
  C   C20       1.0  0.02839  0.28895  0.55475  1.0000
  C   C21       1.0  0.09127  0.59968  0.38035  1.0000
  C   C22       1.0  0.90873  0.40032  0.61965  1.0000
  C   C23       1.0  0.27443  0.58340  0.36625  1.0000
  C   C24       1.0  0.72557  0.41661  0.63375  1.0000
  S   S1        1.0  0.93108  0.35067  0.16619  1.0000
  S   S2        1.0  0.06892  0.64933  0.83381  1.0000
  I   I1        1.0  0.64543  0.14898  0.42399  1.0000
  I   I2        1.0  0.35457  0.85103  0.57600  1.0000
  I   I3        1.0  0.23038  0.03330  0.30307  1.0000
  I   I4        1.0  0.76962  0.96671  0.69693  1.0000
  I   I5        1.0  0.45531  0.34484  0.12955  1.0000
  I   I6        1.0  0.54470  0.65516  0.87044  1.0000
  N   N1        1.0  0.69467  0.93042  0.19627  1.0000
  N   N2        1.0  0.30533  0.06958  0.80373  1.0000
  N   N3        1.0  0.96303  0.69236  0.08972  1.0000
  N   N4        1.0  0.03697  0.30763  0.91028  1.0000
  N   N5        1.0  0.80557  0.72663  0.45980  1.0000
  N   N6        1.0  0.19442  0.27338  0.54020  1.0000
  N   N7        1.0  0.04082  0.50346  0.32870  1.0000
  N   N8        1.0  0.95918  0.49655  0.67131  1.0000
