data_image0
_chemical_formula_structural       Mn2H20C28N12O8
_chemical_formula_sum              "Mn2 H20 C28 N12 O8"
_cell_length_a       9.40395
_cell_length_b       9.5207
_cell_length_c       9.52397
_cell_angle_alpha    81.7758
_cell_angle_beta     75.4058
_cell_angle_gamma    75.8111

_space_group_name_H-M_alt    "P 1"
_space_group_IT_number       1

loop_
  _space_group_symop_operation_xyz
  'x, y, z'

loop_
  _atom_site_type_symbol
  _atom_site_label
  _atom_site_symmetry_multiplicity
  _atom_site_fract_x
  _atom_site_fract_y
  _atom_site_fract_z
  _atom_site_occupancy
  Mn  Mn1       1.0  0.73933  0.95556  0.70874  1.0000
  Mn  Mn2       1.0  0.23681  0.69924  0.95962  1.0000
  H   H1        1.0  0.38785  0.01551  0.61062  1.0000
  H   H2        1.0  0.88453  0.61538  0.02767  1.0000
  H   H3        1.0  0.59494  0.49184  0.78409  1.0000
  H   H4        1.0  0.10347  0.77759  0.47980  1.0000
  H   H5        1.0  0.87801  0.87655  0.17233  1.0000
  H   H6        1.0  0.37288  0.18113  0.88265  1.0000
  H   H7        1.0  0.07468  0.30978  0.24926  1.0000
  H   H8        1.0  0.57692  0.24517  0.29683  1.0000
  H   H9        1.0  0.58734  0.92597  0.07849  1.0000
  H   H10       1.0  0.08582  0.08789  0.92562  1.0000
  H   H11       1.0  0.96670  0.11156  0.40997  1.0000
  H   H12       1.0  0.47343  0.40625  0.09794  1.0000
  H   H13       1.0  0.79028  0.63592  0.53275  1.0000
  H   H14       1.0  0.29464  0.53129  0.62198  1.0000
  H   H15       1.0  0.21374  0.03147  0.44821  1.0000
  H   H16       1.0  0.71163  0.45450  0.03316  1.0000
  H   H17       1.0  0.31008  0.98581  0.18825  1.0000
  H   H18       1.0  0.80843  0.19565  0.98336  1.0000
  H   H19       1.0  0.98502  0.56562  0.30695  1.0000
  H   H20       1.0  0.48713  0.30406  0.55281  1.0000
  C   C1        1.0  0.43050  0.99372  0.49683  1.0000
  C   C2        1.0  0.92818  0.50269  0.00316  1.0000
  C   C3        1.0  0.43845  0.89188  0.86955  1.0000
  C   C4        1.0  0.94378  0.86813  0.90647  1.0000
  C   C5        1.0  0.54663  0.74576  0.83505  1.0000
  C   C6        1.0  0.04754  0.82042  0.76138  1.0000
  C   C7        1.0  0.98816  0.33546  0.34784  1.0000
  C   C8        1.0  0.49201  0.34435  0.32242  1.0000
  C   C9        1.0  0.54320  0.94221  0.19335  1.0000
  C   C10       1.0  0.04117  0.20200  0.94455  1.0000
  C   C11       1.0  0.81946  0.26464  0.56181  1.0000
  C   C12       1.0  0.32759  0.55954  0.24994  1.0000
  C   C13       1.0  0.93042  0.22435  0.43631  1.0000
  C   C14       1.0  0.43680  0.43325  0.21059  1.0000
  C   C15       1.0  0.82809  0.52370  0.50532  1.0000
  C   C16       1.0  0.33327  0.50309  0.50978  1.0000
  C   C17       1.0  0.76987  0.41122  0.59536  1.0000
  C   C18       1.0  0.27730  0.59312  0.39683  1.0000
  C   C19       1.0  0.64027  0.93227  0.28645  1.0000
  C   C20       1.0  0.13791  0.29474  0.93911  1.0000
  C   C21       1.0  0.33493  0.00299  0.40481  1.0000
  C   C22       1.0  0.83270  0.41118  0.00689  1.0000
  C   C23       1.0  0.39026  0.97782  0.25568  1.0000
  C   C24       1.0  0.88799  0.26332  0.97881  1.0000
  C   C25       1.0  0.93724  0.48237  0.38147  1.0000
  C   C26       1.0  0.44085  0.37847  0.46919  1.0000
  C   C27       1.0  0.58574  0.95735  0.43539  1.0000
  C   C28       1.0  0.08331  0.44240  0.96871  1.0000
  N   N1        1.0  0.83319  0.90797  0.39078  1.0000
  N   N2        1.0  0.33249  0.39710  0.92131  1.0000
  N   N3        1.0  0.64536  0.27106  0.76563  1.0000
  N   N4        1.0  0.15473  0.76511  0.25733  1.0000
  N   N5        1.0  0.70985  0.94079  0.49331  1.0000
  N   N6        1.0  0.20864  0.49919  0.95669  1.0000
  N   N7        1.0  0.66270  0.40658  0.72206  1.0000
  N   N8        1.0  0.17141  0.71977  0.39315  1.0000
  N   N9        1.0  0.73880  0.18410  0.67045  1.0000
  N   N10       1.0  0.24783  0.66931  0.16952  1.0000
  N   N11       1.0  0.79355  0.90253  0.26697  1.0000
  N   N12       1.0  0.29105  0.27473  0.91042  1.0000
  O   O1        1.0  0.48758  0.63480  0.86870  1.0000
  O   O2        1.0  0.99450  0.85458  0.64767  1.0000
  O   O3        1.0  0.49040  0.00675  0.83274  1.0000
  O   O4        1.0  0.99920  0.82789  0.01875  1.0000
  O   O5        1.0  0.30233  0.88825  0.93203  1.0000
  O   O6        1.0  0.81236  0.94179  0.90740  1.0000
  O   O7        1.0  0.68307  0.74433  0.77603  1.0000
  O   O8        1.0  0.18034  0.74854  0.76627  1.0000
