data_image0
_chemical_formula_structural       Co2H20C28N12O8
_chemical_formula_sum              "Co2 H20 C28 N12 O8"
_cell_length_a       9.10598
_cell_length_b       9.33843
_cell_length_c       9.33842
_cell_angle_alpha    81.1471
_cell_angle_beta     75.76
_cell_angle_gamma    75.7602

_space_group_name_H-M_alt    "P 1"
_space_group_IT_number       1

loop_
  _space_group_symop_operation_xyz
  'x, y, z'

loop_
  _atom_site_type_symbol
  _atom_site_label
  _atom_site_symmetry_multiplicity
  _atom_site_fract_x
  _atom_site_fract_y
  _atom_site_fract_z
  _atom_site_occupancy
  Co  Co1       1.0  0.73723  0.95808  0.70390  1.0000
  Co  Co2       1.0  0.23723  0.70390  0.95808  1.0000
  H   H1        1.0  0.37128  0.02913  0.62323  1.0000
  H   H2        1.0  0.87129  0.62323  0.02913  1.0000
  H   H3        1.0  0.60270  0.47489  0.78726  1.0000
  H   H4        1.0  0.10269  0.78726  0.47491  1.0000
  H   H5        1.0  0.87805  0.88223  0.18491  1.0000
  H   H6        1.0  0.37805  0.18491  0.88223  1.0000
  H   H7        1.0  0.08432  0.30620  0.23870  1.0000
  H   H8        1.0  0.58433  0.23871  0.30621  1.0000
  H   H9        1.0  0.58621  0.93431  0.08492  1.0000
  H   H10       1.0  0.08621  0.08492  0.93429  1.0000
  H   H11       1.0  0.97855  0.09875  0.39885  1.0000
  H   H12       1.0  0.47853  0.39886  0.09876  1.0000
  H   H13       1.0  0.79211  0.62699  0.53583  1.0000
  H   H14       1.0  0.29210  0.53582  0.62700  1.0000
  H   H15       1.0  0.19697  0.04047  0.45492  1.0000
  H   H16       1.0  0.69698  0.45493  0.04045  1.0000
  H   H17       1.0  0.29889  0.99518  0.19048  1.0000
  H   H18       1.0  0.79889  0.19049  0.99516  1.0000
  H   H19       1.0  0.98779  0.56509  0.30087  1.0000
  H   H20       1.0  0.48780  0.30088  0.56509  1.0000
  C   C1        1.0  0.41804  0.00504  0.50873  1.0000
  C   C2        1.0  0.91805  0.50873  0.00503  1.0000
  C   C3        1.0  0.43726  0.89837  0.86745  1.0000
  C   C4        1.0  0.93727  0.86744  0.89837  1.0000
  C   C5        1.0  0.55148  0.75266  0.82535  1.0000
  C   C6        1.0  0.05148  0.82535  0.75267  1.0000
  C   C7        1.0  0.99650  0.32887  0.33994  1.0000
  C   C8        1.0  0.49651  0.33995  0.32888  1.0000
  C   C9        1.0  0.53804  0.95077  0.20140  1.0000
  C   C10       1.0  0.03804  0.20140  0.95075  1.0000
  C   C11       1.0  0.82930  0.24720  0.55887  1.0000
  C   C12       1.0  0.32929  0.55887  0.24721  1.0000
  C   C13       1.0  0.94072  0.21218  0.42858  1.0000
  C   C14       1.0  0.44071  0.42859  0.21218  1.0000
  C   C15       1.0  0.83278  0.51401  0.50469  1.0000
  C   C16       1.0  0.33276  0.50469  0.51402  1.0000
  C   C17       1.0  0.77768  0.39555  0.59537  1.0000
  C   C18       1.0  0.27767  0.59536  0.39557  1.0000
  C   C19       1.0  0.63568  0.94082  0.29920  1.0000
  C   C20       1.0  0.13568  0.29920  0.94081  1.0000
  C   C21       1.0  0.32179  0.01253  0.41260  1.0000
  C   C22       1.0  0.82180  0.41261  0.01251  1.0000
  C   C23       1.0  0.38009  0.98719  0.26136  1.0000
  C   C24       1.0  0.88009  0.26137  0.98716  1.0000
  C   C25       1.0  0.94251  0.47728  0.37650  1.0000
  C   C26       1.0  0.44250  0.37650  0.47729  1.0000
  C   C27       1.0  0.57851  0.96842  0.45000  1.0000
  C   C28       1.0  0.07852  0.45000  0.96841  1.0000
  N   N1        1.0  0.83458  0.91812  0.40617  1.0000
  N   N2        1.0  0.33459  0.40617  0.91812  1.0000
  N   N3        1.0  0.65463  0.24876  0.77029  1.0000
  N   N4        1.0  0.15462  0.77030  0.24878  1.0000
  N   N5        1.0  0.70712  0.95381  0.50946  1.0000
  N   N6        1.0  0.20713  0.50946  0.95381  1.0000
  N   N7        1.0  0.67105  0.38785  0.72574  1.0000
  N   N8        1.0  0.17104  0.72574  0.38787  1.0000
  N   N9        1.0  0.74912  0.16205  0.67108  1.0000
  N   N10       1.0  0.24911  0.67108  0.16206  1.0000
  N   N11       1.0  0.79328  0.91063  0.28056  1.0000
  N   N12       1.0  0.29329  0.28056  0.91063  1.0000
  O   O1        1.0  0.49963  0.63548  0.86326  1.0000
  O   O2        1.0  0.99963  0.86326  0.63548  1.0000
  O   O3        1.0  0.48872  0.01601  0.82962  1.0000
  O   O4        1.0  0.98873  0.82960  0.01602  1.0000
  O   O5        1.0  0.29897  0.89348  0.93661  1.0000
  O   O6        1.0  0.79897  0.93660  0.89349  1.0000
  O   O7        1.0  0.68963  0.75913  0.75600  1.0000
  O   O8        1.0  0.18964  0.75601  0.75913  1.0000
