data_image0
_chemical_formula_structural       Zn2H20C28N12O8
_chemical_formula_sum              "Zn2 H20 C28 N12 O8"
_cell_length_a       9.24467
_cell_length_b       9.50391
_cell_length_c       9.50391
_cell_angle_alpha    81.7701
_cell_angle_beta     75.8919
_cell_angle_gamma    75.892

_space_group_name_H-M_alt    "P 1"
_space_group_IT_number       1

loop_
  _space_group_symop_operation_xyz
  'x, y, z'

loop_
  _atom_site_type_symbol
  _atom_site_label
  _atom_site_symmetry_multiplicity
  _atom_site_fract_x
  _atom_site_fract_y
  _atom_site_fract_z
  _atom_site_occupancy
  Zn  Zn1       1.0  0.74059  0.95985  0.70372  1.0000
  Zn  Zn2       1.0  0.24059  0.70372  0.95985  1.0000
  H   H1        1.0  0.38339  0.01667  0.61154  1.0000
  H   H2        1.0  0.88339  0.61154  0.01667  1.0000
  H   H3        1.0  0.59727  0.48888  0.78489  1.0000
  H   H4        1.0  0.09727  0.78489  0.48888  1.0000
  H   H5        1.0  0.87799  0.87835  0.17453  1.0000
  H   H6        1.0  0.37799  0.17453  0.87835  1.0000
  H   H7        1.0  0.07354  0.30941  0.24635  1.0000
  H   H8        1.0  0.57354  0.24635  0.30941  1.0000
  H   H9        1.0  0.58265  0.93769  0.07755  1.0000
  H   H10       1.0  0.08265  0.07755  0.93769  1.0000
  H   H11       1.0  0.96870  0.10989  0.40995  1.0000
  H   H12       1.0  0.46869  0.40995  0.10989  1.0000
  H   H13       1.0  0.79024  0.63484  0.53184  1.0000
  H   H14       1.0  0.29024  0.53184  0.63484  1.0000
  H   H15       1.0  0.20586  0.03606  0.44849  1.0000
  H   H16       1.0  0.70586  0.44849  0.03606  1.0000
  H   H17       1.0  0.30142  0.99701  0.18673  1.0000
  H   H18       1.0  0.80142  0.18673  0.99701  1.0000
  H   H19       1.0  0.98318  0.56541  0.30375  1.0000
  H   H20       1.0  0.48318  0.30375  0.56541  1.0000
  C   C1        1.0  0.42629  0.99750  0.49732  1.0000
  C   C2        1.0  0.92629  0.49731  0.99750  1.0000
  C   C3        1.0  0.44399  0.90214  0.86469  1.0000
  C   C4        1.0  0.94400  0.86468  0.90215  1.0000
  C   C5        1.0  0.54785  0.75060  0.83002  1.0000
  C   C6        1.0  0.04787  0.83001  0.75060  1.0000
  C   C7        1.0  0.98825  0.33467  0.34607  1.0000
  C   C8        1.0  0.48825  0.34607  0.33467  1.0000
  C   C9        1.0  0.53828  0.95163  0.19278  1.0000
  C   C10       1.0  0.03828  0.19278  0.95163  1.0000
  C   C11       1.0  0.82316  0.26231  0.56317  1.0000
  C   C12       1.0  0.32315  0.56317  0.26232  1.0000
  C   C13       1.0  0.93248  0.22281  0.43608  1.0000
  C   C14       1.0  0.43248  0.43608  0.22280  1.0000
  C   C15       1.0  0.82869  0.52245  0.50456  1.0000
  C   C16       1.0  0.32869  0.50456  0.52245  1.0000
  C   C17       1.0  0.77250  0.40920  0.59623  1.0000
  C   C18       1.0  0.27250  0.59623  0.40920  1.0000
  C   C19       1.0  0.63769  0.93844  0.28673  1.0000
  C   C20       1.0  0.13769  0.28673  0.93844  1.0000
  C   C21       1.0  0.32853  0.00878  0.40466  1.0000
  C   C22       1.0  0.82853  0.40466  0.00878  1.0000
  C   C23       1.0  0.38328  0.98706  0.25493  1.0000
  C   C24       1.0  0.88329  0.25493  0.98706  1.0000
  C   C25       1.0  0.93678  0.48172  0.37952  1.0000
  C   C26       1.0  0.43678  0.37952  0.48172  1.0000
  C   C27       1.0  0.58367  0.96195  0.43611  1.0000
  C   C28       1.0  0.08367  0.43611  0.96195  1.0000
  N   N1        1.0  0.83493  0.91128  0.39196  1.0000
  N   N2        1.0  0.33493  0.39196  0.91128  1.0000
  N   N3        1.0  0.65099  0.26752  0.76911  1.0000
  N   N4        1.0  0.15099  0.76911  0.26752  1.0000
  N   N5        1.0  0.71062  0.94427  0.49412  1.0000
  N   N6        1.0  0.21062  0.49412  0.94427  1.0000
  N   N7        1.0  0.66648  0.40377  0.72425  1.0000
  N   N8        1.0  0.16648  0.72426  0.40378  1.0000
  N   N9        1.0  0.74444  0.18104  0.67355  1.0000
  N   N10       1.0  0.24444  0.67355  0.18104  1.0000
  N   N11       1.0  0.79352  0.90727  0.26770  1.0000
  N   N12       1.0  0.29352  0.26770  0.90727  1.0000
  O   O1        1.0  0.48434  0.64181  0.86856  1.0000
  O   O2        1.0  0.98434  0.86857  0.64181  1.0000
  O   O3        1.0  0.50380  0.01256  0.82021  1.0000
  O   O4        1.0  0.00380  0.82021  0.01256  1.0000
  O   O5        1.0  0.30818  0.90760  0.93342  1.0000
  O   O6        1.0  0.80818  0.93343  0.90760  1.0000
  O   O7        1.0  0.68530  0.74493  0.76676  1.0000
  O   O8        1.0  0.18529  0.76677  0.74493  1.0000
