data_image0
_chemical_formula_structural       Cu2H20C28N12O8
_chemical_formula_sum              "Cu2 H20 C28 N12 O8"
_cell_length_a       9.40147
_cell_length_b       9.40532
_cell_length_c       9.40532
_cell_angle_alpha    81.8467
_cell_angle_beta     75.9992
_cell_angle_gamma    75.999

_space_group_name_H-M_alt    "P 1"
_space_group_IT_number       1

loop_
  _space_group_symop_operation_xyz
  'x, y, z'

loop_
  _atom_site_type_symbol
  _atom_site_label
  _atom_site_symmetry_multiplicity
  _atom_site_fract_x
  _atom_site_fract_y
  _atom_site_fract_z
  _atom_site_occupancy
  Cu  Cu1       1.0  0.73815  0.96149  0.70175  1.0000
  Cu  Cu2       1.0  0.23815  0.70176  0.96148  1.0000
  H   H1        1.0  0.38875  0.02698  0.61710  1.0000
  H   H2        1.0  0.88875  0.61710  0.02698  1.0000
  H   H3        1.0  0.61051  0.48616  0.78476  1.0000
  H   H4        1.0  0.11050  0.78475  0.48617  1.0000
  H   H5        1.0  0.87392  0.88533  0.17461  1.0000
  H   H6        1.0  0.37392  0.17462  0.88533  1.0000
  H   H7        1.0  0.08994  0.29825  0.25261  1.0000
  H   H8        1.0  0.58995  0.25261  0.29825  1.0000
  H   H9        1.0  0.58627  0.93732  0.08009  1.0000
  H   H10       1.0  0.08627  0.08009  0.93731  1.0000
  H   H11       1.0  0.97840  0.09839  0.41120  1.0000
  H   H12       1.0  0.47840  0.41120  0.09839  1.0000
  H   H13       1.0  0.80851  0.62760  0.53819  1.0000
  H   H14       1.0  0.30852  0.53818  0.62761  1.0000
  H   H15       1.0  0.21490  0.03987  0.45252  1.0000
  H   H16       1.0  0.71491  0.45252  0.03987  1.0000
  H   H17       1.0  0.31001  0.99541  0.18917  1.0000
  H   H18       1.0  0.81001  0.18917  0.99540  1.0000
  H   H19       1.0  0.00331  0.55672  0.31158  1.0000
  H   H20       1.0  0.50332  0.31158  0.55672  1.0000
  C   C1        1.0  0.43114  0.00510  0.50238  1.0000
  C   C2        1.0  0.93114  0.50238  0.00510  1.0000
  C   C3        1.0  0.44008  0.89833  0.87107  1.0000
  C   C4        1.0  0.94007  0.87107  0.89833  1.0000
  C   C5        1.0  0.55347  0.75295  0.82728  1.0000
  C   C6        1.0  0.05346  0.82729  0.75296  1.0000
  C   C7        1.0  0.00314  0.32442  0.35108  1.0000
  C   C8        1.0  0.50315  0.35108  0.32442  1.0000
  C   C9        1.0  0.54231  0.95309  0.19611  1.0000
  C   C10       1.0  0.04232  0.19611  0.95307  1.0000
  C   C11       1.0  0.83207  0.25293  0.56371  1.0000
  C   C12       1.0  0.33207  0.56371  0.25293  1.0000
  C   C13       1.0  0.94348  0.21219  0.43822  1.0000
  C   C14       1.0  0.44348  0.43822  0.21219  1.0000
  C   C15       1.0  0.84512  0.51448  0.50941  1.0000
  C   C16       1.0  0.34513  0.50941  0.51449  1.0000
  C   C17       1.0  0.78487  0.40104  0.59819  1.0000
  C   C18       1.0  0.28487  0.59819  0.40104  1.0000
  C   C19       1.0  0.63922  0.94307  0.29110  1.0000
  C   C20       1.0  0.13922  0.29110  0.94306  1.0000
  C   C21       1.0  0.33558  0.01289  0.40882  1.0000
  C   C22       1.0  0.83559  0.40881  0.01289  1.0000
  C   C23       1.0  0.38994  0.98803  0.25820  1.0000
  C   C24       1.0  0.88994  0.25820  0.98802  1.0000
  C   C25       1.0  0.95431  0.47274  0.38556  1.0000
  C   C26       1.0  0.45431  0.38555  0.47274  1.0000
  C   C27       1.0  0.58589  0.96927  0.44124  1.0000
  C   C28       1.0  0.08589  0.44123  0.96926  1.0000
  N   N1        1.0  0.83340  0.91858  0.39595  1.0000
  N   N2        1.0  0.33340  0.39595  0.91858  1.0000
  N   N3        1.0  0.65624  0.26142  0.76761  1.0000
  N   N4        1.0  0.15623  0.76761  0.26142  1.0000
  N   N5        1.0  0.71114  0.95313  0.49882  1.0000
  N   N6        1.0  0.21114  0.49881  0.95313  1.0000
  N   N7        1.0  0.67670  0.39770  0.72438  1.0000
  N   N8        1.0  0.17670  0.72438  0.39771  1.0000
  N   N9        1.0  0.74881  0.17318  0.67226  1.0000
  N   N10       1.0  0.24881  0.67226  0.17319  1.0000
  N   N11       1.0  0.79213  0.91230  0.27135  1.0000
  N   N12       1.0  0.29213  0.27136  0.91230  1.0000
  O   O1        1.0  0.50649  0.63537  0.86427  1.0000
  O   O2        1.0  0.00647  0.86426  0.63539  1.0000
  O   O3        1.0  0.48795  0.01594  0.83715  1.0000
  O   O4        1.0  0.98795  0.83715  0.01594  1.0000
  O   O5        1.0  0.30672  0.89251  0.93791  1.0000
  O   O6        1.0  0.80671  0.93791  0.89252  1.0000
  O   O7        1.0  0.68588  0.76073  0.75743  1.0000
  O   O8        1.0  0.18587  0.75743  0.76074  1.0000
