data_image0
_chemical_formula_structural       Ag8H24C24N16
_chemical_formula_sum              "Ag8 H24 C24 N16"
_cell_length_a       5.39144
_cell_length_b       6.66547
_cell_length_c       22.4837
_cell_angle_alpha    89.9978
_cell_angle_beta     89.9979
_cell_angle_gamma    89.9984

_space_group_name_H-M_alt    "P 1"
_space_group_IT_number       1

loop_
  _space_group_symop_operation_xyz
  'x, y, z'

loop_
  _atom_site_type_symbol
  _atom_site_label
  _atom_site_symmetry_multiplicity
  _atom_site_fract_x
  _atom_site_fract_y
  _atom_site_fract_z
  _atom_site_occupancy
  Ag  Ag1       1.0  0.63293  0.43169  0.38043  1.0000
  Ag  Ag2       1.0  0.36706  0.93169  0.11958  1.0000
  Ag  Ag3       1.0  0.13292  0.06831  0.61956  1.0000
  Ag  Ag4       1.0  0.86709  0.56830  0.88043  1.0000
  Ag  Ag5       1.0  0.41790  0.38932  0.11897  1.0000
  Ag  Ag6       1.0  0.58211  0.88931  0.38103  1.0000
  Ag  Ag7       1.0  0.91790  0.11070  0.88103  1.0000
  Ag  Ag8       1.0  0.08207  0.61069  0.61897  1.0000
  H   H1        1.0  0.86884  0.34297  0.50638  1.0000
  H   H2        1.0  0.13117  0.84297  0.99363  1.0000
  H   H3        1.0  0.36884  0.15703  0.49361  1.0000
  H   H4        1.0  0.63116  0.65702  0.00637  1.0000
  H   H5        1.0  0.19273  0.63872  0.47036  1.0000
  H   H6        1.0  0.80725  0.13872  0.02964  1.0000
  H   H7        1.0  0.69273  0.86128  0.52963  1.0000
  H   H8        1.0  0.30729  0.36128  0.97037  1.0000
  H   H9        1.0  0.97774  0.20257  0.16935  1.0000
  H   H10       1.0  0.02228  0.70255  0.33066  1.0000
  H   H11       1.0  0.47777  0.29741  0.83063  1.0000
  H   H12       1.0  0.52223  0.79744  0.66937  1.0000
  H   H13       1.0  0.37512  0.48482  0.25493  1.0000
  H   H14       1.0  0.62486  0.98482  0.24507  1.0000
  H   H15       1.0  0.87513  0.01520  0.74507  1.0000
  H   H16       1.0  0.12487  0.51519  0.75493  1.0000
  H   H17       1.0  0.61365  0.40388  0.61230  1.0000
  H   H18       1.0  0.38634  0.90389  0.88771  1.0000
  H   H19       1.0  0.11367  0.09613  0.38770  1.0000
  H   H20       1.0  0.88632  0.59612  0.11230  1.0000
  H   H21       1.0  0.06774  0.21383  0.29013  1.0000
  H   H22       1.0  0.93227  0.71382  0.20987  1.0000
  H   H23       1.0  0.56774  0.28618  0.70984  1.0000
  H   H24       1.0  0.43225  0.78618  0.79015  1.0000
  C   C1        1.0  0.69079  0.41277  0.51457  1.0000
  C   C2        1.0  0.30920  0.91276  0.98543  1.0000
  C   C3        1.0  0.19079  0.08725  0.48542  1.0000
  C   C4        1.0  0.80923  0.58722  0.01457  1.0000
  C   C5        1.0  0.34272  0.56681  0.49450  1.0000
  C   C6        1.0  0.65729  0.06680  0.00550  1.0000
  C   C7        1.0  0.84271  0.93320  0.50550  1.0000
  C   C8        1.0  0.15730  0.43319  0.99450  1.0000
  C   C9        1.0  0.86512  0.26441  0.20491  1.0000
  C   C10       1.0  0.13488  0.76440  0.29510  1.0000
  C   C11       1.0  0.36514  0.23558  0.79508  1.0000
  C   C12       1.0  0.63486  0.73559  0.70492  1.0000
  C   C13       1.0  0.55214  0.41081  0.24821  1.0000
  C   C14       1.0  0.44784  0.91080  0.25179  1.0000
  C   C15       1.0  0.05216  0.08919  0.75179  1.0000
  C   C16       1.0  0.94784  0.58919  0.74821  1.0000
  C   C17       1.0  0.56441  0.44387  0.56709  1.0000
  C   C18       1.0  0.43559  0.94386  0.93291  1.0000
  C   C19       1.0  0.06443  0.05615  0.43290  1.0000
  C   C20       1.0  0.93556  0.55613  0.06709  1.0000
  C   C21       1.0  0.90996  0.27002  0.26535  1.0000
  C   C22       1.0  0.09004  0.77001  0.23465  1.0000
  C   C23       1.0  0.40997  0.22998  0.73463  1.0000
  C   C24       1.0  0.59002  0.72999  0.76537  1.0000
  N   N1        1.0  0.54900  0.48993  0.46884  1.0000
  N   N2        1.0  0.45101  0.98992  0.03116  1.0000
  N   N3        1.0  0.04899  0.01007  0.53115  1.0000
  N   N4        1.0  0.95103  0.51007  0.96884  1.0000
  N   N5        1.0  0.34538  0.54269  0.55404  1.0000
  N   N6        1.0  0.65463  0.04270  0.94597  1.0000
  N   N7        1.0  0.84537  0.95731  0.44596  1.0000
  N   N8        1.0  0.15463  0.45730  0.05404  1.0000
  N   N9        1.0  0.71076  0.36337  0.29243  1.0000
  N   N10       1.0  0.28924  0.86335  0.20758  1.0000
  N   N11       1.0  0.21077  0.13666  0.70756  1.0000
  N   N12       1.0  0.78924  0.63665  0.79243  1.0000
  N   N13       1.0  0.63816  0.35429  0.19451  1.0000
  N   N14       1.0  0.36185  0.85427  0.30549  1.0000
  N   N15       1.0  0.13817  0.14570  0.80548  1.0000
  N   N16       1.0  0.86182  0.64572  0.69452  1.0000
