data_image0
_chemical_formula_structural       Ag16H48C48N32
_chemical_formula_sum              "Ag16 H48 C48 N32"
_cell_length_a       9.22792
_cell_length_b       11.414
_cell_length_c       16.482
_cell_angle_alpha    90
_cell_angle_beta     90
_cell_angle_gamma    105.589

_space_group_name_H-M_alt    "P 1"
_space_group_IT_number       1

loop_
  _space_group_symop_operation_xyz
  'x, y, z'

loop_
  _atom_site_type_symbol
  _atom_site_label
  _atom_site_symmetry_multiplicity
  _atom_site_fract_x
  _atom_site_fract_y
  _atom_site_fract_z
  _atom_site_occupancy
  Ag  Ag1       1.0  0.88120  0.11919  0.20120  1.0000
  Ag  Ag2       1.0  0.61880  0.88081  0.70120  1.0000
  Ag  Ag3       1.0  0.11880  0.88081  0.79880  1.0000
  Ag  Ag4       1.0  0.38120  0.11919  0.29880  1.0000
  Ag  Ag5       1.0  0.30512  0.59125  0.06683  1.0000
  Ag  Ag6       1.0  0.19488  0.40875  0.56683  1.0000
  Ag  Ag7       1.0  0.69488  0.40875  0.93317  1.0000
  Ag  Ag8       1.0  0.80512  0.59125  0.43317  1.0000
  Ag  Ag9       1.0  0.58524  0.13755  0.12260  1.0000
  Ag  Ag10      1.0  0.91476  0.86245  0.62260  1.0000
  Ag  Ag11      1.0  0.41476  0.86245  0.87740  1.0000
  Ag  Ag12      1.0  0.08523  0.13755  0.37740  1.0000
  Ag  Ag13      1.0  0.37739  0.67859  0.31126  1.0000
  Ag  Ag14      1.0  0.12262  0.32140  0.81126  1.0000
  Ag  Ag15      1.0  0.62262  0.32140  0.68875  1.0000
  Ag  Ag16      1.0  0.87739  0.67860  0.18874  1.0000
  H   H1        1.0  0.16162  0.37060  0.19452  1.0000
  H   H2        1.0  0.33838  0.62940  0.69452  1.0000
  H   H3        1.0  0.83838  0.62940  0.80548  1.0000
  H   H4        1.0  0.66162  0.37061  0.30548  1.0000
  H   H5        1.0  0.86920  0.19311  0.00915  1.0000
  H   H6        1.0  0.63080  0.80689  0.50914  1.0000
  H   H7        1.0  0.13080  0.80689  0.99086  1.0000
  H   H8        1.0  0.36920  0.19311  0.49085  1.0000
  H   H9        1.0  0.05200  0.40983  0.94964  1.0000
  H   H10       1.0  0.44799  0.59017  0.44965  1.0000
  H   H11       1.0  0.94800  0.59017  0.05035  1.0000
  H   H12       1.0  0.55200  0.40982  0.55036  1.0000
  H   H13       1.0  0.33435  0.87013  0.12190  1.0000
  H   H14       1.0  0.16565  0.12987  0.62190  1.0000
  H   H15       1.0  0.66565  0.12987  0.87810  1.0000
  H   H16       1.0  0.83435  0.87013  0.37810  1.0000
  H   H17       1.0  0.65997  0.72066  0.01479  1.0000
  H   H18       1.0  0.84003  0.27935  0.51479  1.0000
  H   H19       1.0  0.34003  0.27935  0.98521  1.0000
  H   H20       1.0  0.15997  0.72066  0.48521  1.0000
  H   H21       1.0  0.77869  0.97051  0.03411  1.0000
  H   H22       1.0  0.72131  0.02949  0.53411  1.0000
  H   H23       1.0  0.22131  0.02949  0.96589  1.0000
  H   H24       1.0  0.27869  0.97051  0.46589  1.0000
  H   H25       1.0  0.34981  0.39234  0.34334  1.0000
  H   H26       1.0  0.15019  0.60765  0.84334  1.0000
  H   H27       1.0  0.65019  0.60765  0.65666  1.0000
  H   H28       1.0  0.84981  0.39235  0.15666  1.0000
  H   H29       1.0  0.00718  0.56787  0.30480  1.0000
  H   H30       1.0  0.49283  0.43214  0.80481  1.0000
  H   H31       1.0  0.99282  0.43214  0.69520  1.0000
  H   H32       1.0  0.50718  0.56787  0.19520  1.0000
  H   H33       1.0  0.87776  0.32474  0.34146  1.0000
  H   H34       1.0  0.62224  0.67527  0.84146  1.0000
  H   H35       1.0  0.12224  0.67527  0.65854  1.0000
  H   H36       1.0  0.37776  0.32474  0.15854  1.0000
  H   H37       1.0  0.67182  0.83574  0.20456  1.0000
  H   H38       1.0  0.82818  0.16426  0.70456  1.0000
  H   H39       1.0  0.32818  0.16426  0.79544  1.0000
  H   H40       1.0  0.17182  0.83574  0.29544  1.0000
  H   H41       1.0  0.72103  0.11433  0.37880  1.0000
  H   H42       1.0  0.77897  0.88567  0.87880  1.0000
  H   H43       1.0  0.27897  0.88567  0.62120  1.0000
  H   H44       1.0  0.22103  0.11433  0.12120  1.0000
  H   H45       1.0  0.48467  0.91712  0.42379  1.0000
  H   H46       1.0  0.01533  0.08288  0.92379  1.0000
  H   H47       1.0  0.51533  0.08288  0.57621  1.0000
  H   H48       1.0  0.98468  0.91713  0.07621  1.0000
  C   C1        1.0  0.10859  0.35078  0.13560  1.0000
  C   C2        1.0  0.39142  0.64922  0.63561  1.0000
  C   C3        1.0  0.89142  0.64922  0.86439  1.0000
  C   C4        1.0  0.60859  0.35078  0.36440  1.0000
  C   C5        1.0  0.95864  0.26087  0.03880  1.0000
  C   C6        1.0  0.54136  0.73913  0.53880  1.0000
  C   C7        1.0  0.04136  0.73913  0.96120  1.0000
  C   C8        1.0  0.45863  0.26087  0.46120  1.0000
  C   C9        1.0  0.04960  0.36864  0.00905  1.0000
  C   C10       1.0  0.45039  0.63136  0.50905  1.0000
  C   C11       1.0  0.95040  0.63136  0.99095  1.0000
  C   C12       1.0  0.54960  0.36864  0.49095  1.0000
  C   C13       1.0  0.43909  0.86349  0.09524  1.0000
  C   C14       1.0  0.06091  0.13651  0.59523  1.0000
  C   C15       1.0  0.56091  0.13651  0.90476  1.0000
  C   C16       1.0  0.93909  0.86349  0.40476  1.0000
  C   C17       1.0  0.60999  0.78843  0.04018  1.0000
  C   C18       1.0  0.89001  0.21157  0.54018  1.0000
  C   C19       1.0  0.39001  0.21157  0.95982  1.0000
  C   C20       1.0  0.10999  0.78843  0.45982  1.0000
  C   C21       1.0  0.66915  0.91231  0.05027  1.0000
  C   C22       1.0  0.83085  0.08770  0.55027  1.0000
  C   C23       1.0  0.33085  0.08770  0.94973  1.0000
  C   C24       1.0  0.16915  0.91230  0.44973  1.0000
  C   C25       1.0  0.23899  0.40716  0.33814  1.0000
  C   C26       1.0  0.26101  0.59283  0.83814  1.0000
  C   C27       1.0  0.76101  0.59283  0.66186  1.0000
  C   C28       1.0  0.73899  0.40717  0.16186  1.0000
  C   C29       1.0  0.05948  0.49553  0.31843  1.0000
  C   C30       1.0  0.44052  0.50447  0.81843  1.0000
  C   C31       1.0  0.94052  0.50447  0.68157  1.0000
  C   C32       1.0  0.55948  0.49553  0.18157  1.0000
  C   C33       1.0  0.99516  0.37461  0.33637  1.0000
  C   C34       1.0  0.50484  0.62539  0.83637  1.0000
  C   C35       1.0  0.00483  0.62539  0.66363  1.0000
  C   C36       1.0  0.49516  0.37461  0.16363  1.0000
  C   C37       1.0  0.65380  0.88427  0.25863  1.0000
  C   C38       1.0  0.84620  0.11573  0.75863  1.0000
  C   C39       1.0  0.34620  0.11573  0.74138  1.0000
  C   C40       1.0  0.15380  0.88427  0.24137  1.0000
  C   C41       1.0  0.67604  0.02745  0.34915  1.0000
  C   C42       1.0  0.82396  0.97255  0.84915  1.0000
  C   C43       1.0  0.32396  0.97255  0.65085  1.0000
  C   C44       1.0  0.17604  0.02745  0.15085  1.0000
  C   C45       1.0  0.55837  0.93004  0.37153  1.0000
  C   C46       1.0  0.94163  0.06996  0.87153  1.0000
  C   C47       1.0  0.44163  0.06996  0.62847  1.0000
  C   C48       1.0  0.05837  0.93004  0.12847  1.0000
  N   N1        1.0  0.99690  0.25023  0.11907  1.0000
  N   N2        1.0  0.50310  0.74977  0.61907  1.0000
  N   N3        1.0  0.00310  0.74977  0.88093  1.0000
  N   N4        1.0  0.49690  0.25023  0.38093  1.0000
  N   N5        1.0  0.14455  0.42493  0.07057  1.0000
  N   N6        1.0  0.35545  0.57507  0.57057  1.0000
  N   N7        1.0  0.85545  0.57507  0.92943  1.0000
  N   N8        1.0  0.64455  0.42493  0.42943  1.0000
  N   N9        1.0  0.46361  0.75845  0.06882  1.0000
  N   N10       1.0  0.03639  0.24155  0.56882  1.0000
  N   N11       1.0  0.53639  0.24155  0.93118  1.0000
  N   N12       1.0  0.96361  0.75845  0.43118  1.0000
  N   N13       1.0  0.56053  0.95882  0.08528  1.0000
  N   N14       1.0  0.93946  0.04117  0.58528  1.0000
  N   N15       1.0  0.43946  0.04118  0.91472  1.0000
  N   N16       1.0  0.06053  0.95882  0.41472  1.0000
  N   N17       1.0  0.10938  0.31936  0.34861  1.0000
  N   N18       1.0  0.39061  0.68063  0.84861  1.0000
  N   N19       1.0  0.89062  0.68063  0.65139  1.0000
  N   N20       1.0  0.60938  0.31937  0.15139  1.0000
  N   N21       1.0  0.21381  0.51537  0.31959  1.0000
  N   N22       1.0  0.28620  0.48462  0.81959  1.0000
  N   N23       1.0  0.78620  0.48462  0.68041  1.0000
  N   N24       1.0  0.71380  0.51538  0.18041  1.0000
  N   N25       1.0  0.54523  0.83972  0.31386  1.0000
  N   N26       1.0  0.95477  0.16027  0.81386  1.0000
  N   N27       1.0  0.45477  0.16028  0.68614  1.0000
  N   N28       1.0  0.04523  0.83973  0.18614  1.0000
  N   N29       1.0  0.73594  0.99757  0.27775  1.0000
  N   N30       1.0  0.76406  0.00243  0.77775  1.0000
  N   N31       1.0  0.26406  0.00243  0.72225  1.0000
  N   N32       1.0  0.23594  0.99757  0.22225  1.0000
