data_image0
_chemical_formula_structural       Cu4H24C20N20O4
_chemical_formula_sum              "Cu4 H24 C20 N20 O4"
_cell_length_a       6.98436
_cell_length_b       9.64954
_cell_length_c       11.2768
_cell_angle_alpha    89.9876
_cell_angle_beta     104.06
_cell_angle_gamma    89.9848

_space_group_name_H-M_alt    "P 1"
_space_group_IT_number       1

loop_
  _space_group_symop_operation_xyz
  'x, y, z'

loop_
  _atom_site_type_symbol
  _atom_site_label
  _atom_site_symmetry_multiplicity
  _atom_site_fract_x
  _atom_site_fract_y
  _atom_site_fract_z
  _atom_site_occupancy
  Cu  Cu1       1.0  0.14975  0.87700  0.71764  1.0000
  Cu  Cu2       1.0  0.64955  0.62249  0.21758  1.0000
  Cu  Cu3       1.0  0.85023  0.12296  0.28230  1.0000
  Cu  Cu4       1.0  0.35045  0.37752  0.78242  1.0000
  H   H1        1.0  0.91192  0.35457  0.17681  1.0000
  H   H2        1.0  0.41157  0.14538  0.67727  1.0000
  H   H3        1.0  0.08810  0.64545  0.82318  1.0000
  H   H4        1.0  0.58843  0.85462  0.32273  1.0000
  H   H5        1.0  0.05534  0.22706  0.14739  1.0000
  H   H6        1.0  0.55484  0.27264  0.64746  1.0000
  H   H7        1.0  0.94466  0.77296  0.85260  1.0000
  H   H8        1.0  0.44515  0.72737  0.35254  1.0000
  H   H9        1.0  0.36541  0.22031  0.47111  1.0000
  H   H10       1.0  0.86555  0.27974  0.97124  1.0000
  H   H11       1.0  0.63463  0.77971  0.52889  1.0000
  H   H12       1.0  0.13445  0.72027  0.02876  1.0000
  H   H13       1.0  0.34218  0.12914  0.33248  1.0000
  H   H14       1.0  0.84247  0.37079  0.83264  1.0000
  H   H15       1.0  0.65780  0.87087  0.66751  1.0000
  H   H16       1.0  0.15752  0.62921  0.16735  1.0000
  H   H17       1.0  0.28003  0.37647  0.27932  1.0000
  H   H18       1.0  0.77981  0.12359  0.77952  1.0000
  H   H19       1.0  0.71998  0.62354  0.72069  1.0000
  H   H20       1.0  0.22019  0.87641  0.22048  1.0000
  H   H21       1.0  0.11055  0.38776  0.37428  1.0000
  H   H22       1.0  0.61075  0.11238  0.87467  1.0000
  H   H23       1.0  0.88945  0.61224  0.62572  1.0000
  H   H24       1.0  0.38925  0.88762  0.12534  1.0000
  C   C1        1.0  0.56424  0.83677  0.88669  1.0000
  C   C2        1.0  0.06422  0.66365  0.38722  1.0000
  C   C3        1.0  0.43573  0.16323  0.11329  1.0000
  C   C4        1.0  0.93577  0.33633  0.61278  1.0000
  C   C5        1.0  0.80943  0.89781  0.05465  1.0000
  C   C6        1.0  0.30995  0.60221  0.55459  1.0000
  C   C7        1.0  0.19056  0.10219  0.94533  1.0000
  C   C8        1.0  0.69006  0.39775  0.44541  1.0000
  C   C9        1.0  0.09838  0.03319  0.50227  1.0000
  C   C10       1.0  0.59864  0.46684  0.00248  1.0000
  C   C11       1.0  0.90165  0.96681  0.49774  1.0000
  C   C12       1.0  0.40136  0.53316  0.99753  1.0000
  C   C13       1.0  0.26021  0.19126  0.38574  1.0000
  C   C14       1.0  0.76028  0.30886  0.88590  1.0000
  C   C15       1.0  0.73979  0.80874  0.61426  1.0000
  C   C16       1.0  0.23972  0.69115  0.11410  1.0000
  C   C17       1.0  0.16919  0.31890  0.31405  1.0000
  C   C18       1.0  0.66919  0.18121  0.81436  1.0000
  C   C19       1.0  0.83081  0.68110  0.68594  1.0000
  C   C20       1.0  0.33081  0.81879  0.18565  1.0000
  N   N1        1.0  0.41210  0.84091  0.81351  1.0000
  N   N2        1.0  0.91132  0.65998  0.31479  1.0000
  N   N3        1.0  0.58786  0.15911  0.18649  1.0000
  N   N4        1.0  0.08867  0.34002  0.68522  1.0000
  N   N5        1.0  0.73888  0.82288  0.95766  1.0000
  N   N6        1.0  0.23947  0.67709  0.45749  1.0000
  N   N7        1.0  0.26109  0.17713  0.04234  1.0000
  N   N8        1.0  0.76055  0.32287  0.54250  1.0000
  N   N9        1.0  0.88915  0.95909  0.14336  1.0000
  N   N10       1.0  0.38954  0.54083  0.64330  1.0000
  N   N11       1.0  0.11084  0.04091  0.85663  1.0000
  N   N12       1.0  0.61049  0.45914  0.35670  1.0000
  N   N13       1.0  0.09599  0.11085  0.40741  1.0000
  N   N14       1.0  0.59629  0.38930  0.90743  1.0000
  N   N15       1.0  0.90402  0.88914  0.59260  1.0000
  N   N16       1.0  0.40372  0.61071  0.09258  1.0000
  N   N17       1.0  0.00168  0.27301  0.21504  1.0000
  N   N18       1.0  0.50132  0.22694  0.71531  1.0000
  N   N19       1.0  0.99833  0.72701  0.78495  1.0000
  N   N20       1.0  0.49868  0.77306  0.28470  1.0000
  O   O1        1.0  0.24256  0.00924  0.59495  1.0000
  O   O2        1.0  0.74313  0.49097  0.09516  1.0000
  O   O3        1.0  0.75743  0.99071  0.40510  1.0000
  O   O4        1.0  0.25687  0.50905  0.90486  1.0000
