data_image0
_chemical_formula_structural       Sr2H12C12S4N8O12
_chemical_formula_sum              "Sr2 H12 C12 S4 N8 O12"
_cell_length_a       5.94151
_cell_length_b       7.25472
_cell_length_c       14.1884
_cell_angle_alpha    92.7377
_cell_angle_beta     101.363
_cell_angle_gamma    97.736

_space_group_name_H-M_alt    "P 1"
_space_group_IT_number       1

loop_
  _space_group_symop_operation_xyz
  'x, y, z'

loop_
  _atom_site_type_symbol
  _atom_site_label
  _atom_site_symmetry_multiplicity
  _atom_site_fract_x
  _atom_site_fract_y
  _atom_site_fract_z
  _atom_site_occupancy
  Sr  Sr1       1.0  0.17781  0.77098  0.48164  1.0000
  Sr  Sr2       1.0  0.82219  0.22902  0.51836  1.0000
  H   H1        1.0  0.28707  0.70017  0.97993  1.0000
  H   H2        1.0  0.71293  0.29983  0.02007  1.0000
  H   H3        1.0  0.78516  0.78215  0.95055  1.0000
  H   H4        1.0  0.21483  0.21785  0.04944  1.0000
  H   H5        1.0  0.19693  0.66686  0.14687  1.0000
  H   H6        1.0  0.80307  0.33314  0.85313  1.0000
  H   H7        1.0  0.91182  0.91249  0.16064  1.0000
  H   H8        1.0  0.08818  0.08751  0.83936  1.0000
  H   H9        1.0  0.55896  0.84683  0.78736  1.0000
  H   H10       1.0  0.44103  0.15317  0.21264  1.0000
  H   H11       1.0  0.17043  0.59740  0.76059  1.0000
  H   H12       1.0  0.82957  0.40260  0.23941  1.0000
  C   C1        1.0  0.36477  0.72528  0.13371  1.0000
  C   C2        1.0  0.63523  0.27473  0.86630  1.0000
  C   C3        1.0  0.56901  0.80163  0.19741  1.0000
  C   C4        1.0  0.43099  0.19837  0.80259  1.0000
  C   C5        1.0  0.73117  0.84973  0.13885  1.0000
  C   C6        1.0  0.26883  0.15027  0.86116  1.0000
  C   C7        1.0  0.72014  0.78859  0.79798  1.0000
  C   C8        1.0  0.27986  0.21141  0.20202  1.0000
  C   C9        1.0  0.84174  0.72643  0.73129  1.0000
  C   C10       1.0  0.15826  0.27356  0.26871  1.0000
  C   C11       1.0  0.03623  0.66138  0.78621  1.0000
  C   C12       1.0  0.96377  0.33862  0.21379  1.0000
  S   S1        1.0  0.61493  0.82668  0.32336  1.0000
  S   S2        1.0  0.38507  0.17332  0.67664  1.0000
  S   S3        1.0  0.75523  0.71156  0.60597  1.0000
  S   S4        1.0  0.24478  0.28844  0.39403  1.0000
  N   N1        1.0  0.63276  0.80653  0.04565  1.0000
  N   N2        1.0  0.36724  0.19347  0.95435  1.0000
  N   N3        1.0  0.41066  0.73026  0.04431  1.0000
  N   N4        1.0  0.58933  0.26974  0.95569  1.0000
  N   N5        1.0  0.03480  0.68307  0.88057  1.0000
  N   N6        1.0  0.96519  0.31692  0.11943  1.0000
  N   N7        1.0  0.84198  0.76189  0.88573  1.0000
  N   N8        1.0  0.15801  0.23811  0.11427  1.0000
  O   O1        1.0  0.39360  0.74663  0.34623  1.0000
  O   O2        1.0  0.60640  0.25337  0.65377  1.0000
  O   O3        1.0  0.80696  0.72247  0.35691  1.0000
  O   O4        1.0  0.19304  0.27753  0.64309  1.0000
  O   O5        1.0  0.67446  0.02778  0.35193  1.0000
  O   O6        1.0  0.32555  0.97222  0.64807  1.0000
  O   O7        1.0  0.81185  0.89599  0.56940  1.0000
  O   O8        1.0  0.18816  0.10401  0.43059  1.0000
  O   O9        1.0  0.90000  0.58144  0.57291  1.0000
  O   O10       1.0  0.09999  0.41856  0.42709  1.0000
  O   O11       1.0  0.50785  0.64318  0.58409  1.0000
  O   O12       1.0  0.49215  0.35683  0.41590  1.0000
