data_image0
_chemical_formula_structural       Cs4H12C12S4N8O12
_chemical_formula_sum              "Cs4 H12 C12 S4 N8 O12"
_cell_length_a       8.13141
_cell_length_b       8.89759
_cell_length_c       9.76418
_cell_angle_alpha    91.479
_cell_angle_beta     90
_cell_angle_gamma    89.9999

_space_group_name_H-M_alt    "P 1"
_space_group_IT_number       1

loop_
  _space_group_symop_operation_xyz
  'x, y, z'

loop_
  _atom_site_type_symbol
  _atom_site_label
  _atom_site_symmetry_multiplicity
  _atom_site_fract_x
  _atom_site_fract_y
  _atom_site_fract_z
  _atom_site_occupancy
  Cs  Cs1       1.0  0.16849  0.90795  0.31347  1.0000
  Cs  Cs2       1.0  0.66849  0.09205  0.18653  1.0000
  Cs  Cs3       1.0  0.83151  0.09205  0.68653  1.0000
  Cs  Cs4       1.0  0.33151  0.90795  0.81347  1.0000
  H   H1        1.0  0.98260  0.34212  0.28695  1.0000
  H   H2        1.0  0.48260  0.65789  0.21305  1.0000
  H   H3        1.0  0.01740  0.65788  0.71305  1.0000
  H   H4        1.0  0.51740  0.34212  0.78695  1.0000
  H   H5        1.0  0.93903  0.62432  0.25024  1.0000
  H   H6        1.0  0.43903  0.37569  0.24976  1.0000
  H   H7        1.0  0.06097  0.37568  0.74976  1.0000
  H   H8        1.0  0.56097  0.62431  0.75024  1.0000
  H   H9        1.0  0.62501  0.44827  0.56666  1.0000
  H   H10       1.0  0.12501  0.55173  0.93334  1.0000
  H   H11       1.0  0.37499  0.55173  0.43334  1.0000
  H   H12       1.0  0.87499  0.44827  0.06666  1.0000
  C   C1        1.0  0.87826  0.55965  0.32808  1.0000
  C   C2        1.0  0.37826  0.44035  0.17192  1.0000
  C   C3        1.0  0.12174  0.44035  0.67192  1.0000
  C   C4        1.0  0.62174  0.55965  0.82808  1.0000
  C   C5        1.0  0.75509  0.60055  0.42086  1.0000
  C   C6        1.0  0.25510  0.39945  0.07914  1.0000
  C   C7        1.0  0.24491  0.39945  0.57914  1.0000
  C   C8        1.0  0.74491  0.60055  0.92086  1.0000
  C   C9        1.0  0.71570  0.46634  0.48768  1.0000
  C   C10       1.0  0.21570  0.53366  0.01233  1.0000
  C   C11       1.0  0.28430  0.53366  0.51232  1.0000
  C   C12       1.0  0.78430  0.46634  0.98767  1.0000
  S   S1        1.0  0.66981  0.78087  0.44409  1.0000
  S   S2        1.0  0.16981  0.21913  0.05591  1.0000
  S   S3        1.0  0.33019  0.21914  0.55591  1.0000
  S   S4        1.0  0.83018  0.78087  0.94409  1.0000
  N   N1        1.0  0.80794  0.35142  0.44061  1.0000
  N   N2        1.0  0.30794  0.64858  0.05939  1.0000
  N   N3        1.0  0.19206  0.64858  0.55939  1.0000
  N   N4        1.0  0.69207  0.35142  0.94061  1.0000
  N   N5        1.0  0.90641  0.41204  0.34476  1.0000
  N   N6        1.0  0.40642  0.58796  0.15524  1.0000
  N   N7        1.0  0.09359  0.58796  0.65524  1.0000
  N   N8        1.0  0.59359  0.41204  0.84476  1.0000
  O   O1        1.0  0.54179  0.79520  0.33660  1.0000
  O   O2        1.0  0.04180  0.20479  0.16340  1.0000
  O   O3        1.0  0.45821  0.20480  0.66340  1.0000
  O   O4        1.0  0.95820  0.79521  0.83660  1.0000
  O   O5        1.0  0.80526  0.88776  0.42349  1.0000
  O   O6        1.0  0.30526  0.11224  0.07651  1.0000
  O   O7        1.0  0.19474  0.11224  0.57651  1.0000
  O   O8        1.0  0.69474  0.88776  0.92349  1.0000
  O   O9        1.0  0.60080  0.78770  0.58251  1.0000
  O   O10       1.0  0.10081  0.21231  0.91749  1.0000
  O   O11       1.0  0.39919  0.21230  0.41749  1.0000
  O   O12       1.0  0.89919  0.78769  0.08251  1.0000
