data_image0
_chemical_formula_structural       Cu2H20C12S4N8O16
_chemical_formula_sum              "Cu2 H20 C12 S4 N8 O16"
_cell_length_a       7.12821
_cell_length_b       7.33015
_cell_length_c       13.3138
_cell_angle_alpha    90.0035
_cell_angle_beta     90.002
_cell_angle_gamma    115.034

_space_group_name_H-M_alt    "P 1"
_space_group_IT_number       1

loop_
  _space_group_symop_operation_xyz
  'x, y, z'

loop_
  _atom_site_type_symbol
  _atom_site_label
  _atom_site_symmetry_multiplicity
  _atom_site_fract_x
  _atom_site_fract_y
  _atom_site_fract_z
  _atom_site_occupancy
  Cu  Cu1       1.0  0.00000  0.49999  0.50000  1.0000
  Cu  Cu2       1.0  0.50000  0.50000  1.00000  1.0000
  H   H1        1.0  0.47843  0.25876  0.81794  1.0000
  H   H2        1.0  0.02157  0.74125  0.31796  1.0000
  H   H3        1.0  0.52156  0.74123  0.18206  1.0000
  H   H4        1.0  0.97843  0.25874  0.68205  1.0000
  H   H5        1.0  0.48512  0.34717  0.62935  1.0000
  H   H6        1.0  0.01490  0.65287  0.12937  1.0000
  H   H7        1.0  0.51487  0.65284  0.37064  1.0000
  H   H8        1.0  0.98511  0.34713  0.87063  1.0000
  H   H9        1.0  0.49441  0.82079  0.82946  1.0000
  H   H10       1.0  0.00558  0.17922  0.32944  1.0000
  H   H11       1.0  0.50559  0.17924  0.17054  1.0000
  H   H12       1.0  0.99441  0.82074  0.67057  1.0000
  H   H13       1.0  0.88959  0.11251  0.53055  1.0000
  H   H14       1.0  0.61042  0.88750  0.03056  1.0000
  H   H15       1.0  0.11041  0.88748  0.46945  1.0000
  H   H16       1.0  0.38957  0.11250  0.96943  1.0000
  H   H17       1.0  0.13138  0.21536  0.49601  1.0000
  H   H18       1.0  0.36862  0.78461  0.99604  1.0000
  H   H19       1.0  0.86863  0.78462  0.50398  1.0000
  H   H20       1.0  0.63137  0.21539  0.00395  1.0000
  C   C1        1.0  0.48152  0.44208  0.69142  1.0000
  C   C2        1.0  0.01848  0.55795  0.19143  1.0000
  C   C3        1.0  0.51851  0.55794  0.30858  1.0000
  C   C4        1.0  0.98150  0.44204  0.80857  1.0000
  C   C5        1.0  0.49092  0.63622  0.69399  1.0000
  C   C6        1.0  0.00908  0.36382  0.19397  1.0000
  C   C7        1.0  0.50909  0.36380  0.30599  1.0000
  C   C8        1.0  0.99093  0.63619  0.80600  1.0000
  C   C9        1.0  0.48998  0.68456  0.79604  1.0000
  C   C10       1.0  0.01002  0.31547  0.29603  1.0000
  C   C11       1.0  0.51001  0.31542  0.20396  1.0000
  C   C12       1.0  0.98998  0.68455  0.70397  1.0000
  S   S1        1.0  0.50894  0.79797  0.59353  1.0000
  S   S2        1.0  0.99106  0.20205  0.09351  1.0000
  S   S3        1.0  0.49107  0.20204  0.40646  1.0000
  S   S4        1.0  0.00892  0.79793  0.90648  1.0000
  N   N1        1.0  0.47991  0.52973  0.85261  1.0000
  N   N2        1.0  0.02009  0.47029  0.35263  1.0000
  N   N3        1.0  0.52008  0.47025  0.14740  1.0000
  N   N4        1.0  0.97991  0.52972  0.64740  1.0000
  N   N5        1.0  0.47426  0.38486  0.78784  1.0000
  N   N6        1.0  0.02575  0.61517  0.28786  1.0000
  N   N7        1.0  0.52575  0.61516  0.21216  1.0000
  N   N8        1.0  0.97425  0.38483  0.71215  1.0000
  O   O1        1.0  0.73165  0.88044  0.56179  1.0000
  O   O2        1.0  0.76837  0.11959  0.06175  1.0000
  O   O3        1.0  0.26831  0.11952  0.43822  1.0000
  O   O4        1.0  0.23167  0.88044  0.93827  1.0000
  O   O5        1.0  0.37444  0.67213  0.51395  1.0000
  O   O6        1.0  0.12557  0.32790  0.01395  1.0000
  O   O7        1.0  0.62556  0.32789  0.48606  1.0000
  O   O8        1.0  0.87441  0.67208  0.98607  1.0000
  O   O9        1.0  0.45602  0.95329  0.63496  1.0000
  O   O10       1.0  0.04397  0.04676  0.13494  1.0000
  O   O11       1.0  0.54399  0.04671  0.36503  1.0000
  O   O12       1.0  0.95603  0.95327  0.86506  1.0000
  O   O13       1.0  0.01993  0.24080  0.53127  1.0000
  O   O14       1.0  0.48010  0.75920  0.03129  1.0000
  O   O15       1.0  0.98006  0.75920  0.46874  1.0000
  O   O16       1.0  0.51992  0.24079  0.96871  1.0000
