data_image0
_chemical_formula_structural       Hg4H12C16Br8N8
_chemical_formula_sum              "Hg4 H12 C16 Br8 N8"
_cell_length_a       4.15249
_cell_length_b       9.39497
_cell_length_c       19.5015
_cell_angle_alpha    89.9997
_cell_angle_beta     90
_cell_angle_gamma    100.572

_space_group_name_H-M_alt    "P 1"
_space_group_IT_number       1

loop_
  _space_group_symop_operation_xyz
  'x, y, z'

loop_
  _atom_site_type_symbol
  _atom_site_label
  _atom_site_symmetry_multiplicity
  _atom_site_fract_x
  _atom_site_fract_y
  _atom_site_fract_z
  _atom_site_occupancy
  Hg  Hg1       1.0  0.75702  0.72885  0.86676  1.0000
  Hg  Hg2       1.0  0.74297  0.77114  0.36677  1.0000
  Hg  Hg3       1.0  0.24289  0.27114  0.13323  1.0000
  Hg  Hg4       1.0  0.25707  0.22886  0.63324  1.0000
  H   H1        1.0  0.10521  0.86097  0.02445  1.0000
  H   H2        1.0  0.39483  0.63902  0.52445  1.0000
  H   H3        1.0  0.89477  0.13901  0.97555  1.0000
  H   H4        1.0  0.60523  0.36099  0.47555  1.0000
  H   H5        1.0  0.61958  0.60274  0.19111  1.0000
  H   H6        1.0  0.88040  0.89727  0.69111  1.0000
  H   H7        1.0  0.38038  0.39725  0.80889  1.0000
  H   H8        1.0  0.11961  0.10275  0.30889  1.0000
  H   H9        1.0  0.00697  0.83036  0.15240  1.0000
  H   H10       1.0  0.49306  0.66964  0.65240  1.0000
  H   H11       1.0  0.99301  0.16963  0.84760  1.0000
  H   H12       1.0  0.50698  0.33037  0.34760  1.0000
  C   C1        1.0  0.58793  0.55355  0.02502  1.0000
  C   C2        1.0  0.91206  0.94645  0.52502  1.0000
  C   C3        1.0  0.41204  0.44643  0.97498  1.0000
  C   C4        1.0  0.08798  0.05357  0.47498  1.0000
  C   C5        1.0  0.93963  0.76751  0.04559  1.0000
  C   C6        1.0  0.56038  0.73248  0.54559  1.0000
  C   C7        1.0  0.06034  0.23247  0.95442  1.0000
  C   C8        1.0  0.43966  0.26753  0.45441  1.0000
  C   C9        1.0  0.67720  0.62509  0.13721  1.0000
  C   C10       1.0  0.82278  0.87491  0.63721  1.0000
  C   C11       1.0  0.32277  0.37490  0.86279  1.0000
  C   C12       1.0  0.17724  0.12511  0.36279  1.0000
  C   C13       1.0  0.88787  0.75014  0.11583  1.0000
  C   C14       1.0  0.61215  0.74986  0.61583  1.0000
  C   C15       1.0  0.11211  0.24984  0.88417  1.0000
  C   C16       1.0  0.38788  0.25016  0.38417  1.0000
  Br  Br1       1.0  0.42835  0.92148  0.90309  1.0000
  Br  Br2       1.0  0.07167  0.57851  0.40309  1.0000
  Br  Br3       1.0  0.57155  0.07851  0.09691  1.0000
  Br  Br4       1.0  0.92845  0.42151  0.59692  1.0000
  Br  Br5       1.0  0.00168  0.61680  0.76648  1.0000
  Br  Br6       1.0  0.49838  0.88320  0.26648  1.0000
  Br  Br7       1.0  0.99831  0.38320  0.23352  1.0000
  Br  Br8       1.0  0.50168  0.11680  0.73352  1.0000
  N   N1        1.0  0.78881  0.67029  0.00010  1.0000
  N   N2        1.0  0.71121  0.82970  0.50010  1.0000
  N   N3        1.0  0.21115  0.32969  0.99990  1.0000
  N   N4        1.0  0.28884  0.17031  0.49990  1.0000
  N   N5        1.0  0.53152  0.52664  0.09187  1.0000
  N   N6        1.0  0.96846  0.97336  0.59187  1.0000
  N   N7        1.0  0.46843  0.47334  0.90813  1.0000
  N   N8        1.0  0.03156  0.02666  0.40813  1.0000
