data_image0
_chemical_formula_structural       Er2Ag10H32C64O32
_chemical_formula_sum              "Er2 Ag10 H32 C64 O32"
_cell_length_a       7.84209
_cell_length_b       14.8366
_cell_length_c       14.9892
_cell_angle_alpha    64.5721
_cell_angle_beta     81.4668
_cell_angle_gamma    81.6042

_space_group_name_H-M_alt    "P 1"
_space_group_IT_number       1

loop_
  _space_group_symop_operation_xyz
  'x, y, z'

loop_
  _atom_site_type_symbol
  _atom_site_label
  _atom_site_symmetry_multiplicity
  _atom_site_fract_x
  _atom_site_fract_y
  _atom_site_fract_z
  _atom_site_occupancy
  Er  Er1       1.0  0.35160  0.25112  0.25212  1.0000
  Er  Er2       1.0  0.64840  0.74888  0.74788  1.0000
  Ag  Ag1       1.0  0.12758  0.09288  0.49663  1.0000
  Ag  Ag2       1.0  0.87242  0.90713  0.50336  1.0000
  Ag  Ag3       1.0  0.17857  0.40549  0.00333  1.0000
  Ag  Ag4       1.0  0.82142  0.59451  0.99667  1.0000
  Ag  Ag5       1.0  0.79946  0.32935  0.01915  1.0000
  Ag  Ag6       1.0  0.20054  0.67065  0.98085  1.0000
  Ag  Ag7       1.0  0.29186  0.82556  0.51700  1.0000
  Ag  Ag8       1.0  0.70815  0.17444  0.48300  1.0000
  Ag  Ag9       1.0  0.85323  0.25221  0.25167  1.0000
  Ag  Ag10      1.0  0.14677  0.74779  0.74833  1.0000
  H   H1        1.0  0.18214  0.09090  0.98565  1.0000
  H   H2        1.0  0.81786  0.90910  0.01436  1.0000
  H   H3        1.0  0.13604  0.91209  0.03767  1.0000
  H   H4        1.0  0.86395  0.08790  0.96234  1.0000
  H   H5        1.0  0.07447  0.80226  0.21807  1.0000
  H   H6        1.0  0.92553  0.19774  0.78195  1.0000
  H   H7        1.0  0.07633  0.87009  0.34310  1.0000
  H   H8        1.0  0.92367  0.12991  0.65691  1.0000
  H   H9        1.0  0.88799  0.40259  0.51273  1.0000
  H   H10       1.0  0.11200  0.59742  0.48726  1.0000
  H   H11       1.0  0.77346  0.58187  0.45919  1.0000
  H   H12       1.0  0.22653  0.41814  0.54080  1.0000
  H   H13       1.0  0.80613  0.69834  0.27960  1.0000
  H   H14       1.0  0.19386  0.30166  0.72038  1.0000
  H   H15       1.0  0.93678  0.63325  0.15558  1.0000
  H   H16       1.0  0.06322  0.36676  0.84441  1.0000
  H   H17       1.0  0.42450  0.51127  0.41627  1.0000
  H   H18       1.0  0.57550  0.48872  0.58373  1.0000
  H   H19       1.0  0.33491  0.69172  0.31553  1.0000
  H   H20       1.0  0.66510  0.30828  0.68448  1.0000
  H   H21       1.0  0.36818  0.75867  0.12987  1.0000
  H   H22       1.0  0.63182  0.24133  0.87014  1.0000
  H   H23       1.0  0.48130  0.64532  0.04820  1.0000
  H   H24       1.0  0.51870  0.35468  0.95180  1.0000
  H   H25       1.0  0.63683  0.00108  0.08457  1.0000
  H   H26       1.0  0.36318  0.99892  0.91543  1.0000
  H   H27       1.0  0.58910  0.82016  0.18262  1.0000
  H   H28       1.0  0.41090  0.17984  0.81737  1.0000
  H   H29       1.0  0.57003  0.74791  0.36865  1.0000
  H   H30       1.0  0.42997  0.25208  0.63134  1.0000
  H   H31       1.0  0.58838  0.85681  0.45321  1.0000
  H   H32       1.0  0.41161  0.14318  0.54678  1.0000
  C   C1        1.0  0.20405  0.18731  0.09342  1.0000
  C   C2        1.0  0.79597  0.81269  0.90658  1.0000
  C   C3        1.0  0.16496  0.08012  0.13376  1.0000
  C   C4        1.0  0.83504  0.91987  0.86624  1.0000
  C   C5        1.0  0.16203  0.04106  0.06408  1.0000
  C   C6        1.0  0.83798  0.95893  0.93593  1.0000
  C   C7        1.0  0.13344  0.94132  0.09339  1.0000
  C   C8        1.0  0.86656  0.05868  0.90662  1.0000
  C   C9        1.0  0.10125  0.87977  0.19419  1.0000
  C   C10       1.0  0.89875  0.12023  0.80582  1.0000
  C   C11       1.0  0.10288  0.91758  0.26439  1.0000
  C   C12       1.0  0.89713  0.08242  0.73562  1.0000
  C   C13       1.0  0.13627  0.01725  0.23595  1.0000
  C   C14       1.0  0.86374  0.98275  0.76406  1.0000
  C   C15       1.0  0.13286  0.05169  0.31637  1.0000
  C   C16       1.0  0.86715  0.94832  0.68363  1.0000
  C   C17       1.0  0.06685  0.31207  0.40741  1.0000
  C   C18       1.0  0.93315  0.68794  0.59259  1.0000
  C   C19       1.0  0.98441  0.41779  0.36590  1.0000
  C   C20       1.0  0.01558  0.58221  0.63409  1.0000
  C   C21       1.0  0.90001  0.45418  0.43459  1.0000
  C   C22       1.0  0.09998  0.54582  0.56540  1.0000
  C   C23       1.0  0.83630  0.55454  0.40437  1.0000
  C   C24       1.0  0.16369  0.44546  0.59563  1.0000
  C   C25       1.0  0.85405  0.61967  0.30401  1.0000
  C   C26       1.0  0.14594  0.38033  0.69598  1.0000
  C   C27       1.0  0.93007  0.58355  0.23440  1.0000
  C   C28       1.0  0.06994  0.41645  0.76559  1.0000
  C   C29       1.0  0.99564  0.48287  0.26351  1.0000
  C   C30       1.0  0.00436  0.51713  0.73648  1.0000
  C   C31       1.0  0.06078  0.44903  0.18301  1.0000
  C   C32       1.0  0.93923  0.55097  0.81699  1.0000
  C   C33       1.0  0.54375  0.36779  0.35259  1.0000
  C   C34       1.0  0.45625  0.63220  0.64741  1.0000
  C   C35       1.0  0.48644  0.47509  0.29061  1.0000
  C   C36       1.0  0.51355  0.52491  0.70939  1.0000
  C   C37       1.0  0.42925  0.54097  0.33576  1.0000
  C   C38       1.0  0.57075  0.45902  0.66424  1.0000
  C   C39       1.0  0.38228  0.64190  0.27909  1.0000
  C   C40       1.0  0.61773  0.35809  0.72091  1.0000
  C   C41       1.0  0.40058  0.67946  0.17553  1.0000
  C   C42       1.0  0.59943  0.32054  0.82447  1.0000
  C   C43       1.0  0.46105  0.61523  0.12938  1.0000
  C   C44       1.0  0.53895  0.38477  0.87062  1.0000
  C   C45       1.0  0.49897  0.51250  0.18623  1.0000
  C   C46       1.0  0.50103  0.48750  0.81377  1.0000
  C   C47       1.0  0.55107  0.44530  0.13300  1.0000
  C   C48       1.0  0.44893  0.55470  0.86700  1.0000
  C   C49       1.0  0.66764  0.13778  0.15305  1.0000
  C   C50       1.0  0.33236  0.86222  0.84695  1.0000
  C   C51       1.0  0.62765  0.03149  0.21254  1.0000
  C   C52       1.0  0.37235  0.96851  0.78746  1.0000
  C   C53       1.0  0.62206  0.96863  0.16532  1.0000
  C   C54       1.0  0.37794  0.03138  0.83468  1.0000
  C   C55       1.0  0.59692  0.86778  0.22036  1.0000
  C   C56       1.0  0.40308  0.13222  0.77964  1.0000
  C   C57       1.0  0.58524  0.82727  0.32405  1.0000
  C   C58       1.0  0.41475  0.17273  0.67595  1.0000
  C   C59       1.0  0.59161  0.88893  0.37210  1.0000
  C   C60       1.0  0.40837  0.11107  0.62790  1.0000
  C   C61       1.0  0.60568  0.99185  0.31699  1.0000
  C   C62       1.0  0.39432  0.00815  0.68301  1.0000
  C   C63       1.0  0.59276  0.05777  0.37134  1.0000
  C   C64       1.0  0.40724  0.94222  0.62866  1.0000
  O   O1        1.0  0.11920  0.25161  0.02323  1.0000
  O   O2        1.0  0.88081  0.74839  0.97677  1.0000
  O   O3        1.0  0.32486  0.20971  0.12652  1.0000
  O   O4        1.0  0.67516  0.79028  0.87348  1.0000
  O   O5        1.0  0.14325  0.98678  0.40473  1.0000
  O   O6        1.0  0.85675  0.01322  0.59527  1.0000
  O   O7        1.0  0.11656  0.14670  0.29541  1.0000
  O   O8        1.0  0.88343  0.85331  0.70460  1.0000
  O   O9        1.0  0.98214  0.24500  0.47757  1.0000
  O   O10       1.0  0.01785  0.75500  0.52243  1.0000
  O   O11       1.0  0.22194  0.29353  0.37545  1.0000
  O   O12       1.0  0.77805  0.70647  0.62455  1.0000
  O   O13       1.0  0.08631  0.51352  0.09451  1.0000
  O   O14       1.0  0.91370  0.48648  0.90548  1.0000
  O   O15       1.0  0.08405  0.35404  0.20379  1.0000
  O   O16       1.0  0.91597  0.64596  0.79621  1.0000
  O   O17       1.0  0.56769  0.33984  0.44205  1.0000
  O   O18       1.0  0.43229  0.66016  0.55796  1.0000
  O   O19       1.0  0.57238  0.30782  0.30800  1.0000
  O   O20       1.0  0.42762  0.69217  0.69200  1.0000
  O   O21       1.0  0.70464  0.44491  0.09145  1.0000
  O   O22       1.0  0.29535  0.55509  0.90855  1.0000
  O   O23       1.0  0.43597  0.39564  0.12812  1.0000
  O   O24       1.0  0.56403  0.60436  0.87189  1.0000
  O   O25       1.0  0.72357  0.05821  0.41188  1.0000
  O   O26       1.0  0.27642  0.94179  0.58812  1.0000
  O   O27       1.0  0.44724  0.10704  0.37733  1.0000
  O   O28       1.0  0.55276  0.89296  0.62267  1.0000
  O   O29       1.0  0.63651  0.19702  0.19820  1.0000
  O   O30       1.0  0.36349  0.80298  0.80180  1.0000
  O   O31       1.0  0.73474  0.16556  0.06486  1.0000
  O   O32       1.0  0.26526  0.83444  0.93514  1.0000
