data_image0
_chemical_formula_structural       Ho2Ag10H32C64O32
_chemical_formula_sum              "Ho2 Ag10 H32 C64 O32"
_cell_length_a       7.87419
_cell_length_b       14.8326
_cell_length_c       14.9785
_cell_angle_alpha    64.4367
_cell_angle_beta     81.3939
_cell_angle_gamma    81.5115

_space_group_name_H-M_alt    "P 1"
_space_group_IT_number       1

loop_
  _space_group_symop_operation_xyz
  'x, y, z'

loop_
  _atom_site_type_symbol
  _atom_site_label
  _atom_site_symmetry_multiplicity
  _atom_site_fract_x
  _atom_site_fract_y
  _atom_site_fract_z
  _atom_site_occupancy
  Ho  Ho1       1.0  0.35277  0.25111  0.25206  1.0000
  Ho  Ho2       1.0  0.64723  0.74889  0.74794  1.0000
  Ag  Ag1       1.0  0.12733  0.09215  0.49722  1.0000
  Ag  Ag2       1.0  0.87268  0.90785  0.50277  1.0000
  Ag  Ag3       1.0  0.17774  0.40643  0.00281  1.0000
  Ag  Ag4       1.0  0.82226  0.59358  0.99719  1.0000
  Ag  Ag5       1.0  0.79842  0.32909  0.01705  1.0000
  Ag  Ag6       1.0  0.20158  0.67091  0.98295  1.0000
  Ag  Ag7       1.0  0.29229  0.82563  0.51550  1.0000
  Ag  Ag8       1.0  0.70771  0.17437  0.48450  1.0000
  Ag  Ag9       1.0  0.85455  0.25215  0.25111  1.0000
  Ag  Ag10      1.0  0.14545  0.74785  0.74889  1.0000
  H   H1        1.0  0.18171  0.09192  0.98520  1.0000
  H   H2        1.0  0.81828  0.90808  0.01479  1.0000
  H   H3        1.0  0.13518  0.91317  0.03692  1.0000
  H   H4        1.0  0.86481  0.08683  0.96307  1.0000
  H   H5        1.0  0.07497  0.80237  0.21759  1.0000
  H   H6        1.0  0.92502  0.19763  0.78241  1.0000
  H   H7        1.0  0.07696  0.86932  0.34328  1.0000
  H   H8        1.0  0.92304  0.13068  0.65672  1.0000
  H   H9        1.0  0.88845  0.40149  0.51336  1.0000
  H   H10       1.0  0.11156  0.59851  0.48664  1.0000
  H   H11       1.0  0.77275  0.58068  0.46024  1.0000
  H   H12       1.0  0.22725  0.41932  0.53976  1.0000
  H   H13       1.0  0.80453  0.69809  0.28044  1.0000
  H   H14       1.0  0.19547  0.30191  0.71956  1.0000
  H   H15       1.0  0.93508  0.63393  0.15564  1.0000
  H   H16       1.0  0.06492  0.36607  0.84437  1.0000
  H   H17       1.0  0.42518  0.51126  0.41572  1.0000
  H   H18       1.0  0.57481  0.48873  0.58428  1.0000
  H   H19       1.0  0.33609  0.69202  0.31440  1.0000
  H   H20       1.0  0.66391  0.30798  0.68560  1.0000
  H   H21       1.0  0.37022  0.75900  0.12836  1.0000
  H   H22       1.0  0.62977  0.24100  0.87164  1.0000
  H   H23       1.0  0.48346  0.64533  0.04699  1.0000
  H   H24       1.0  0.51653  0.35467  0.95301  1.0000
  H   H25       1.0  0.63637  0.00051  0.08510  1.0000
  H   H26       1.0  0.36363  0.99949  0.91490  1.0000
  H   H27       1.0  0.58799  0.81951  0.18400  1.0000
  H   H28       1.0  0.41201  0.18049  0.81600  1.0000
  H   H29       1.0  0.57006  0.74746  0.37035  1.0000
  H   H30       1.0  0.42994  0.25255  0.62965  1.0000
  H   H31       1.0  0.58919  0.85674  0.45440  1.0000
  H   H32       1.0  0.41081  0.14326  0.54560  1.0000
  C   C1        1.0  0.20502  0.18744  0.09365  1.0000
  C   C2        1.0  0.79499  0.81256  0.90635  1.0000
  C   C3        1.0  0.16556  0.08027  0.13371  1.0000
  C   C4        1.0  0.83444  0.91973  0.86628  1.0000
  C   C5        1.0  0.16193  0.04171  0.06377  1.0000
  C   C6        1.0  0.83806  0.95829  0.93623  1.0000
  C   C7        1.0  0.13316  0.94197  0.09291  1.0000
  C   C8        1.0  0.86683  0.05803  0.90708  1.0000
  C   C9        1.0  0.10183  0.87986  0.19388  1.0000
  C   C10       1.0  0.89816  0.12014  0.80612  1.0000
  C   C11       1.0  0.10359  0.91722  0.26443  1.0000
  C   C12       1.0  0.89640  0.08278  0.73557  1.0000
  C   C13       1.0  0.13684  0.01697  0.23604  1.0000
  C   C14       1.0  0.86316  0.98303  0.76396  1.0000
  C   C15       1.0  0.13349  0.05133  0.31646  1.0000
  C   C16       1.0  0.86651  0.94867  0.68354  1.0000
  C   C17       1.0  0.06777  0.31192  0.40725  1.0000
  C   C18       1.0  0.93223  0.68808  0.59276  1.0000
  C   C19       1.0  0.98462  0.41760  0.36609  1.0000
  C   C20       1.0  0.01538  0.58240  0.63391  1.0000
  C   C21       1.0  0.90006  0.45343  0.43513  1.0000
  C   C22       1.0  0.09994  0.54657  0.56487  1.0000
  C   C23       1.0  0.83575  0.55377  0.40514  1.0000
  C   C24       1.0  0.16426  0.44623  0.59486  1.0000
  C   C25       1.0  0.85312  0.61944  0.30464  1.0000
  C   C26       1.0  0.14688  0.38056  0.69536  1.0000
  C   C27       1.0  0.92910  0.58382  0.23461  1.0000
  C   C28       1.0  0.07089  0.41617  0.76539  1.0000
  C   C29       1.0  0.99518  0.48310  0.26358  1.0000
  C   C30       1.0  0.00482  0.51690  0.73642  1.0000
  C   C31       1.0  0.06070  0.44941  0.18305  1.0000
  C   C32       1.0  0.93930  0.55059  0.81695  1.0000
  C   C33       1.0  0.54570  0.36754  0.35225  1.0000
  C   C34       1.0  0.45430  0.63246  0.64775  1.0000
  C   C35       1.0  0.48816  0.47493  0.29000  1.0000
  C   C36       1.0  0.51183  0.52507  0.71000  1.0000
  C   C37       1.0  0.43045  0.54091  0.33505  1.0000
  C   C38       1.0  0.56955  0.45909  0.66495  1.0000
  C   C39       1.0  0.38364  0.64205  0.27811  1.0000
  C   C40       1.0  0.61636  0.35795  0.72189  1.0000
  C   C41       1.0  0.40239  0.67965  0.17436  1.0000
  C   C42       1.0  0.59761  0.32035  0.82564  1.0000
  C   C43       1.0  0.46283  0.61530  0.12832  1.0000
  C   C44       1.0  0.53717  0.38470  0.87168  1.0000
  C   C45       1.0  0.50068  0.51241  0.18545  1.0000
  C   C46       1.0  0.49931  0.48759  0.81456  1.0000
  C   C47       1.0  0.55156  0.44545  0.13188  1.0000
  C   C48       1.0  0.44844  0.55455  0.86812  1.0000
  C   C49       1.0  0.66911  0.13748  0.15306  1.0000
  C   C50       1.0  0.33090  0.86252  0.84695  1.0000
  C   C51       1.0  0.62858  0.03119  0.21296  1.0000
  C   C52       1.0  0.37142  0.96881  0.78704  1.0000
  C   C53       1.0  0.62193  0.96821  0.16601  1.0000
  C   C54       1.0  0.37807  0.03179  0.83399  1.0000
  C   C55       1.0  0.59677  0.86723  0.22147  1.0000
  C   C56       1.0  0.40323  0.13277  0.77853  1.0000
  C   C57       1.0  0.58546  0.82685  0.32535  1.0000
  C   C58       1.0  0.41454  0.17315  0.67465  1.0000
  C   C59       1.0  0.59211  0.88868  0.37314  1.0000
  C   C60       1.0  0.40789  0.11132  0.62686  1.0000
  C   C61       1.0  0.60669  0.99168  0.31760  1.0000
  C   C62       1.0  0.39331  0.00832  0.68240  1.0000
  C   C63       1.0  0.59307  0.05753  0.37207  1.0000
  C   C64       1.0  0.40692  0.94247  0.62793  1.0000
  O   O1        1.0  0.11938  0.25261  0.02425  1.0000
  O   O2        1.0  0.88063  0.74739  0.97575  1.0000
  O   O3        1.0  0.32695  0.20884  0.12632  1.0000
  O   O4        1.0  0.67305  0.79116  0.87368  1.0000
  O   O5        1.0  0.14404  0.98621  0.40501  1.0000
  O   O6        1.0  0.85597  0.01379  0.59498  1.0000
  O   O7        1.0  0.11704  0.14646  0.29528  1.0000
  O   O8        1.0  0.88296  0.85354  0.70472  1.0000
  O   O9        1.0  0.98342  0.24404  0.47668  1.0000
  O   O10       1.0  0.01659  0.75596  0.52332  1.0000
  O   O11       1.0  0.22311  0.29437  0.37562  1.0000
  O   O12       1.0  0.77690  0.70563  0.62439  1.0000
  O   O13       1.0  0.08639  0.51424  0.09441  1.0000
  O   O14       1.0  0.91361  0.48576  0.90559  1.0000
  O   O15       1.0  0.08396  0.35433  0.20398  1.0000
  O   O16       1.0  0.91604  0.64567  0.79602  1.0000
  O   O17       1.0  0.57028  0.33970  0.44174  1.0000
  O   O18       1.0  0.42972  0.66030  0.55826  1.0000
  O   O19       1.0  0.57395  0.30742  0.30788  1.0000
  O   O20       1.0  0.42605  0.69258  0.69212  1.0000
  O   O21       1.0  0.70438  0.44444  0.09020  1.0000
  O   O22       1.0  0.29562  0.55556  0.90979  1.0000
  O   O23       1.0  0.43580  0.39670  0.12675  1.0000
  O   O24       1.0  0.56419  0.60330  0.87325  1.0000
  O   O25       1.0  0.72319  0.05846  0.41240  1.0000
  O   O26       1.0  0.27681  0.94154  0.58760  1.0000
  O   O27       1.0  0.44741  0.10611  0.37852  1.0000
  O   O28       1.0  0.55259  0.89389  0.62149  1.0000
  O   O29       1.0  0.63801  0.19691  0.19796  1.0000
  O   O30       1.0  0.36199  0.80309  0.80205  1.0000
  O   O31       1.0  0.73650  0.16503  0.06477  1.0000
  O   O32       1.0  0.26352  0.83497  0.93524  1.0000
