data_image0
_chemical_formula_structural       Cu4H8C12N4O14
_chemical_formula_sum              "Cu4 H8 C12 N4 O14"
_cell_length_a       5.92235
_cell_length_b       9.11763
_cell_length_c       9.7828
_cell_angle_alpha    114.39
_cell_angle_beta     90.0009
_cell_angle_gamma    90.0873

_space_group_name_H-M_alt    "P 1"
_space_group_IT_number       1

loop_
  _space_group_symop_operation_xyz
  'x, y, z'

loop_
  _atom_site_type_symbol
  _atom_site_label
  _atom_site_symmetry_multiplicity
  _atom_site_fract_x
  _atom_site_fract_y
  _atom_site_fract_z
  _atom_site_occupancy
  Cu  Cu1       1.0  0.31393  0.82179  0.36701  1.0000
  Cu  Cu2       1.0  0.81690  0.17638  0.63216  1.0000
  Cu  Cu3       1.0  0.11586  0.48080  0.24493  1.0000
  Cu  Cu4       1.0  0.61445  0.52201  0.75807  1.0000
  H   H1        1.0  0.15454  0.31634  0.99708  1.0000
  H   H2        1.0  0.65187  0.68404  0.00484  1.0000
  H   H3        1.0  0.89352  0.28490  0.03525  1.0000
  H   H4        1.0  0.39158  0.71615  0.96661  1.0000
  H   H5        1.0  0.04936  0.69243  0.14413  1.0000
  H   H6        1.0  0.55562  0.30637  0.85579  1.0000
  H   H7        1.0  0.05617  0.03818  0.84593  1.0000
  H   H8        1.0  0.55771  0.96338  0.15385  1.0000
  C   C1        1.0  0.41194  0.62860  0.54579  1.0000
  C   C2        1.0  0.91191  0.36950  0.45309  1.0000
  C   C3        1.0  0.58369  0.75270  0.63279  1.0000
  C   C4        1.0  0.08414  0.24639  0.36608  1.0000
  C   C5        1.0  0.87201  0.82075  0.81076  1.0000
  C   C6        1.0  0.37233  0.17976  0.18849  1.0000
  C   C7        1.0  0.91694  0.95928  0.78725  1.0000
  C   C8        1.0  0.41825  0.04163  0.21252  1.0000
  C   C9        1.0  0.62745  0.89467  0.60937  1.0000
  C   C10       1.0  0.12905  0.10500  0.38980  1.0000
  C   C11       1.0  0.01572  0.78836  0.92244  1.0000
  C   C12       1.0  0.51567  0.21150  0.07625  1.0000
  N   N1        1.0  0.79245  0.99754  0.69409  1.0000
  N   N2        1.0  0.29459  0.00304  0.30573  1.0000
  N   N3        1.0  0.70241  0.72209  0.73500  1.0000
  N   N4        1.0  0.20245  0.27747  0.26399  1.0000
  O   O1        1.0  0.32068  0.63994  0.42908  1.0000
  O   O2        1.0  0.81985  0.35761  0.56944  1.0000
  O   O3        1.0  0.36398  0.51897  0.58577  1.0000
  O   O4        1.0  0.86397  0.47968  0.41389  1.0000
  O   O5        1.0  0.92313  0.72499  0.00228  1.0000
  O   O6        1.0  0.42308  0.27254  0.99457  1.0000
  O   O7        1.0  0.22023  0.83099  0.92813  1.0000
  O   O8        1.0  0.72028  0.17008  0.07168  1.0000
  O   O9        1.0  0.52906  0.94001  0.51655  1.0000
  O   O10       1.0  0.03081  0.05944  0.48270  1.0000
  O   O11       1.0  0.00395  0.36926  0.03374  1.0000
  O   O12       1.0  0.50050  0.63178  0.96946  1.0000
  O   O13       1.0  0.09605  0.68448  0.23882  1.0000
  O   O14       1.0  0.61121  0.31919  0.76482  1.0000
