data_image0
_chemical_formula_structural       K2H52PdC44S4N4O12
_chemical_formula_sum              "K2 H52 Pd1 C44 S4 N4 O12"
_cell_length_a       8.96396
_cell_length_b       12.5395
_cell_length_c       12.8831
_cell_angle_alpha    115.278
_cell_angle_beta     103.48
_cell_angle_gamma    96.3919

_space_group_name_H-M_alt    "P 1"
_space_group_IT_number       1

loop_
  _space_group_symop_operation_xyz
  'x, y, z'

loop_
  _atom_site_type_symbol
  _atom_site_label
  _atom_site_symmetry_multiplicity
  _atom_site_fract_x
  _atom_site_fract_y
  _atom_site_fract_z
  _atom_site_occupancy
  K   K1        1.0  0.99203  0.17861  0.11798  1.0000
  K   K2        1.0  0.00798  0.82139  0.88201  1.0000
  H   H1        1.0  0.58765  0.44450  0.33897  1.0000
  H   H2        1.0  0.41235  0.55551  0.66104  1.0000
  H   H3        1.0  0.85763  0.47302  0.46413  1.0000
  H   H4        1.0  0.14236  0.52697  0.53587  1.0000
  H   H5        1.0  0.04060  0.42622  0.60806  1.0000
  H   H6        1.0  0.95940  0.57378  0.39193  1.0000
  H   H7        1.0  0.93678  0.28946  0.68070  1.0000
  H   H8        1.0  0.06323  0.71054  0.31930  1.0000
  H   H9        1.0  0.64469  0.21218  0.62473  1.0000
  H   H10       1.0  0.35533  0.78782  0.37528  1.0000
  H   H11       1.0  0.37322  0.20768  0.52278  1.0000
  H   H12       1.0  0.62678  0.79232  0.47722  1.0000
  H   H13       1.0  0.11002  0.22733  0.50701  1.0000
  H   H14       1.0  0.88998  0.77266  0.49299  1.0000
  H   H15       1.0  0.14312  0.09463  0.39728  1.0000
  H   H16       1.0  0.85688  0.90536  0.60272  1.0000
  H   H17       1.0  0.85832  0.08055  0.38706  1.0000
  H   H18       1.0  0.14168  0.91945  0.61294  1.0000
  H   H19       1.0  0.85897  0.20202  0.34856  1.0000
  H   H20       1.0  0.14103  0.79798  0.65144  1.0000
  H   H21       1.0  0.68010  0.07609  0.14590  1.0000
  H   H22       1.0  0.31990  0.92391  0.85410  1.0000
  H   H23       1.0  0.65780  0.96268  0.19437  1.0000
  H   H24       1.0  0.34219  0.03732  0.80562  1.0000
  H   H25       1.0  0.77173  0.83207  0.03440  1.0000
  H   H26       1.0  0.22827  0.16793  0.96559  1.0000
  H   H27       1.0  0.58141  0.85114  0.97838  1.0000
  H   H28       1.0  0.41858  0.14886  0.02162  1.0000
  H   H29       1.0  0.60043  0.04085  0.93985  1.0000
  H   H30       1.0  0.39957  0.95916  0.06015  1.0000
  H   H31       1.0  0.55751  0.88989  0.81677  1.0000
  H   H32       1.0  0.44248  0.11011  0.18323  1.0000
  H   H33       1.0  0.78950  0.96117  0.76186  1.0000
  H   H34       1.0  0.21050  0.03883  0.23813  1.0000
  H   H35       1.0  0.62899  0.03216  0.74731  1.0000
  H   H36       1.0  0.37101  0.96785  0.25269  1.0000
  H   H37       1.0  0.80072  0.20345  0.77104  1.0000
  H   H38       1.0  0.19927  0.79655  0.22896  1.0000
  H   H39       1.0  0.97698  0.15021  0.79640  1.0000
  H   H40       1.0  0.02302  0.84979  0.20360  1.0000
  H   H41       1.0  0.02784  0.37820  0.89400  1.0000
  H   H42       1.0  0.97216  0.62180  0.10600  1.0000
  H   H43       1.0  0.89753  0.37321  0.97964  1.0000
  H   H44       1.0  0.10247  0.62679  0.02036  1.0000
  H   H45       1.0  0.10445  0.48015  0.17166  1.0000
  H   H46       1.0  0.89555  0.51985  0.82834  1.0000
  H   H47       1.0  0.23236  0.50103  0.09006  1.0000
  H   H48       1.0  0.76764  0.49897  0.90994  1.0000
  H   H49       1.0  0.40044  0.37994  0.15505  1.0000
  H   H50       1.0  0.59956  0.62006  0.84495  1.0000
  H   H51       1.0  0.39634  0.52035  0.27479  1.0000
  H   H52       1.0  0.60366  0.47966  0.72521  1.0000
  Pd  Pd1       1.0  0.50000  0.50000  0.00000  1.0000
  C   C1        1.0  0.37910  0.34808  0.34511  1.0000
  C   C2        1.0  0.62091  0.65192  0.65490  1.0000
  C   C3        1.0  0.53983  0.39157  0.37735  1.0000
  C   C4        1.0  0.46017  0.60843  0.62266  1.0000
  C   C5        1.0  0.64653  0.36888  0.46168  1.0000
  C   C6        1.0  0.35347  0.63111  0.53832  1.0000
  C   C7        1.0  0.81199  0.41572  0.49926  1.0000
  C   C8        1.0  0.18801  0.58427  0.50074  1.0000
  C   C9        1.0  0.91343  0.38938  0.57872  1.0000
  C   C10       1.0  0.08658  0.61062  0.42128  1.0000
  C   C11       1.0  0.85388  0.31311  0.62213  1.0000
  C   C12       1.0  0.14613  0.68689  0.37787  1.0000
  C   C13       1.0  0.69275  0.26912  0.58989  1.0000
  C   C14       1.0  0.30726  0.73088  0.41012  1.0000
  C   C15       1.0  0.58533  0.29741  0.51117  1.0000
  C   C16       1.0  0.41468  0.70259  0.48884  1.0000
  C   C17       1.0  0.41897  0.25692  0.48020  1.0000
  C   C18       1.0  0.58103  0.74308  0.51980  1.0000
  C   C19       1.0  0.31742  0.28090  0.39893  1.0000
  C   C20       1.0  0.68258  0.71910  0.60107  1.0000
  C   C21       1.0  0.08790  0.17157  0.40961  1.0000
  C   C22       1.0  0.91210  0.82843  0.59039  1.0000
  C   C23       1.0  0.91332  0.12594  0.34361  1.0000
  C   C24       1.0  0.08668  0.87406  0.65639  1.0000
  C   C25       1.0  0.72546  0.99917  0.15034  1.0000
  C   C26       1.0  0.27454  0.00082  0.84965  1.0000
  C   C27       1.0  0.70699  0.89875  0.02594  1.0000
  C   C28       1.0  0.29301  0.10125  0.97405  1.0000
  C   C29       1.0  0.65197  0.97228  0.88135  1.0000
  C   C30       1.0  0.34803  0.02772  0.11865  1.0000
  C   C31       1.0  0.72473  0.02311  0.81272  1.0000
  C   C32       1.0  0.27527  0.97689  0.18727  1.0000
  C   C33       1.0  0.89568  0.19918  0.84016  1.0000
  C   C34       1.0  0.10432  0.80082  0.15984  1.0000
  C   C35       1.0  0.98066  0.32710  0.93580  1.0000
  C   C36       1.0  0.01934  0.67290  0.06420  1.0000
  C   C37       1.0  0.18657  0.43992  0.12283  1.0000
  C   C38       1.0  0.81342  0.56008  0.87717  1.0000
  C   C39       1.0  0.32557  0.42894  0.20607  1.0000
  C   C40       1.0  0.67442  0.57106  0.79393  1.0000
  C   C41       1.0  0.72305  0.38742  0.15121  1.0000
  C   C42       1.0  0.27696  0.61258  0.84880  1.0000
  C   C43       1.0  0.35716  0.22978  0.76510  1.0000
  C   C44       1.0  0.64285  0.77022  0.23491  1.0000
  S   S1        1.0  0.70757  0.52286  0.16428  1.0000
  S   S2        1.0  0.29244  0.47714  0.83573  1.0000
  S   S3        1.0  0.51270  0.29780  0.88917  1.0000
  S   S4        1.0  0.48731  0.70220  0.11084  1.0000
  N   N1        1.0  0.74071  0.29518  0.15046  1.0000
  N   N2        1.0  0.25930  0.70482  0.84955  1.0000
  N   N3        1.0  0.24809  0.17542  0.67612  1.0000
  N   N4        1.0  0.75191  0.82459  0.32389  1.0000
  O   O1        1.0  0.26798  0.36364  0.26332  1.0000
  O   O2        1.0  0.73202  0.63636  0.73668  1.0000
  O   O3        1.0  0.15608  0.24266  0.36099  1.0000
  O   O4        1.0  0.84392  0.75734  0.63901  1.0000
  O   O5        1.0  0.88964  0.04101  0.21984  1.0000
  O   O6        1.0  0.11036  0.95899  0.78015  1.0000
  O   O7        1.0  0.77012  0.94209  0.95366  1.0000
  O   O8        1.0  0.22988  0.05791  0.04634  1.0000
  O   O9        1.0  0.82855  0.13852  0.89637  1.0000
  O   O10       1.0  0.17145  0.86148  0.10363  1.0000
  O   O11       1.0  0.10726  0.32240  0.02368  1.0000
  O   O12       1.0  0.89273  0.67760  0.97632  1.0000
