data_image0
_chemical_formula_structural       K2H52PtC44S4N4O12
_chemical_formula_sum              "K2 H52 Pt1 C44 S4 N4 O12"
_cell_length_a       8.983
_cell_length_b       12.5197
_cell_length_c       12.9476
_cell_angle_alpha    115.395
_cell_angle_beta     104.094
_cell_angle_gamma    96.1002

_space_group_name_H-M_alt    "P 1"
_space_group_IT_number       1

loop_
  _space_group_symop_operation_xyz
  'x, y, z'

loop_
  _atom_site_type_symbol
  _atom_site_label
  _atom_site_symmetry_multiplicity
  _atom_site_fract_x
  _atom_site_fract_y
  _atom_site_fract_z
  _atom_site_occupancy
  K   K1        1.0  0.50810  0.32136  0.88275  1.0000
  K   K2        1.0  0.49189  0.67864  0.11725  1.0000
  H   H1        1.0  0.91129  0.05540  0.66124  1.0000
  H   H2        1.0  0.08872  0.94459  0.33876  1.0000
  H   H3        1.0  0.64031  0.02757  0.53595  1.0000
  H   H4        1.0  0.35970  0.97243  0.46405  1.0000
  H   H5        1.0  0.45640  0.07420  0.39173  1.0000
  H   H6        1.0  0.54360  0.92580  0.60828  1.0000
  H   H7        1.0  0.55966  0.20975  0.31853  1.0000
  H   H8        1.0  0.44035  0.79025  0.68147  1.0000
  H   H9        1.0  0.85190  0.28571  0.37457  1.0000
  H   H10       1.0  0.14810  0.71428  0.62543  1.0000
  H   H11       1.0  0.12357  0.29006  0.47707  1.0000
  H   H12       1.0  0.87644  0.70994  0.52292  1.0000
  H   H13       1.0  0.35395  0.40334  0.60292  1.0000
  H   H14       1.0  0.64605  0.59666  0.39708  1.0000
  H   H15       1.0  0.38671  0.27006  0.49390  1.0000
  H   H16       1.0  0.61329  0.72993  0.50610  1.0000
  H   H17       1.0  0.63876  0.29634  0.65371  1.0000
  H   H18       1.0  0.36124  0.70366  0.34629  1.0000
  H   H19       1.0  0.63884  0.41717  0.61426  1.0000
  H   H20       1.0  0.36116  0.58283  0.38574  1.0000
  H   H21       1.0  0.83944  0.53763  0.80677  1.0000
  H   H22       1.0  0.16056  0.46237  0.19323  1.0000
  H   H23       1.0  0.81943  0.42421  0.85524  1.0000
  H   H24       1.0  0.18056  0.57579  0.14476  1.0000
  H   H25       1.0  0.91855  0.64976  0.02262  1.0000
  H   H26       1.0  0.08144  0.35024  0.97738  1.0000
  H   H27       1.0  0.72773  0.66880  0.96648  1.0000
  H   H28       1.0  0.27227  0.33120  0.03352  1.0000
  H   H29       1.0  0.94468  0.61181  0.18443  1.0000
  H   H30       1.0  0.05531  0.38820  0.81557  1.0000
  H   H31       1.0  0.90115  0.46027  0.06148  1.0000
  H   H32       1.0  0.09884  0.53974  0.93853  1.0000
  H   H33       1.0  0.87502  0.47034  0.25413  1.0000
  H   H34       1.0  0.12498  0.52967  0.74587  1.0000
  H   H35       1.0  0.71352  0.54051  0.23834  1.0000
  H   H36       1.0  0.28647  0.45949  0.76166  1.0000
  H   H37       1.0  0.52584  0.35270  0.20315  1.0000
  H   H38       1.0  0.47416  0.64730  0.79685  1.0000
  H   H39       1.0  0.70153  0.29899  0.23078  1.0000
  H   H40       1.0  0.29846  0.70101  0.76922  1.0000
  H   H41       1.0  0.60454  0.12740  0.02269  1.0000
  H   H42       1.0  0.39545  0.87260  0.97731  1.0000
  H   H43       1.0  0.47384  0.12392  0.10702  1.0000
  H   H44       1.0  0.52616  0.87609  0.89298  1.0000
  H   H45       1.0  0.26956  0.00017  0.91134  1.0000
  H   H46       1.0  0.73043  0.99983  0.08867  1.0000
  H   H47       1.0  0.39597  0.01921  0.82914  1.0000
  H   H48       1.0  0.60403  0.98079  0.17086  1.0000
  H   H49       1.0  0.10323  0.97917  0.72615  1.0000
  H   H50       1.0  0.89677  0.02083  0.27385  1.0000
  H   H51       1.0  0.10085  0.12049  0.84562  1.0000
  H   H52       1.0  0.89915  0.87951  0.15438  1.0000
  Pt  Pt1       1.0  0.00000  0.00000  0.00000  1.0000
  C   C1        1.0  0.11941  0.15088  0.65506  1.0000
  C   C2        1.0  0.88060  0.84911  0.34494  1.0000
  C   C3        1.0  0.95859  0.10777  0.62268  1.0000
  C   C4        1.0  0.04141  0.89222  0.37732  1.0000
  C   C5        1.0  0.85126  0.13040  0.53816  1.0000
  C   C6        1.0  0.14875  0.86959  0.46184  1.0000
  C   C7        1.0  0.68567  0.08423  0.50055  1.0000
  C   C8        1.0  0.31433  0.91577  0.49944  1.0000
  C   C9        1.0  0.58370  0.11047  0.42086  1.0000
  C   C10       1.0  0.41630  0.88953  0.57915  1.0000
  C   C11       1.0  0.64286  0.18607  0.37726  1.0000
  C   C12       1.0  0.35715  0.81393  0.62274  1.0000
  C   C13       1.0  0.80409  0.22937  0.40957  1.0000
  C   C14       1.0  0.19592  0.77063  0.59043  1.0000
  C   C15       1.0  0.91197  0.20119  0.48853  1.0000
  C   C16       1.0  0.08804  0.79880  0.51147  1.0000
  C   C17       1.0  0.07833  0.24115  0.51960  1.0000
  C   C18       1.0  0.92167  0.75884  0.48040  1.0000
  C   C19       1.0  0.18045  0.21748  0.60120  1.0000
  C   C20       1.0  0.81956  0.78252  0.39880  1.0000
  C   C21       1.0  0.40939  0.32638  0.59113  1.0000
  C   C22       1.0  0.59062  0.67362  0.40887  1.0000
  C   C23       1.0  0.58422  0.37238  0.65774  1.0000
  C   C24       1.0  0.41578  0.62762  0.34226  1.0000
  C   C25       1.0  0.77313  0.50101  0.85074  1.0000
  C   C26       1.0  0.22687  0.49899  0.14926  1.0000
  C   C27       1.0  0.79275  0.60201  0.97499  1.0000
  C   C28       1.0  0.20725  0.39799  0.02501  1.0000
  C   C29       1.0  0.84999  0.52910  0.11972  1.0000
  C   C30       1.0  0.15001  0.47090  0.88029  1.0000
  C   C31       1.0  0.77845  0.47851  0.18814  1.0000
  C   C32       1.0  0.22154  0.52149  0.81186  1.0000
  C   C33       1.0  0.60701  0.30282  0.16066  1.0000
  C   C34       1.0  0.39299  0.69718  0.83934  1.0000
  C   C35       1.0  0.52148  0.17431  0.06533  1.0000
  C   C36       1.0  0.47852  0.82569  0.93468  1.0000
  C   C37       1.0  0.31478  0.06025  0.87785  1.0000
  C   C38       1.0  0.68522  0.93974  0.12215  1.0000
  C   C39       1.0  0.17473  0.07091  0.79458  1.0000
  C   C40       1.0  0.82527  0.92909  0.20542  1.0000
  C   C41       1.0  0.77856  0.11406  0.84973  1.0000
  C   C42       1.0  0.22145  0.88595  0.15028  1.0000
  C   C43       1.0  0.14248  0.27055  0.23672  1.0000
  C   C44       1.0  0.85752  0.72946  0.76328  1.0000
  S   S1        1.0  0.79172  0.97796  0.83759  1.0000
  S   S2        1.0  0.20828  0.02205  0.16243  1.0000
  S   S3        1.0  0.98621  0.20111  0.11182  1.0000
  S   S4        1.0  0.01380  0.79890  0.88819  1.0000
  N   N1        1.0  0.76109  0.20590  0.84901  1.0000
  N   N2        1.0  0.23891  0.79411  0.15100  1.0000
  N   N3        1.0  0.25090  0.32665  0.32644  1.0000
  N   N4        1.0  0.74911  0.67336  0.67357  1.0000
  O   O1        1.0  0.23122  0.13548  0.73699  1.0000
  O   O2        1.0  0.76879  0.86451  0.26301  1.0000
  O   O3        1.0  0.34186  0.25560  0.63950  1.0000
  O   O4        1.0  0.65814  0.74440  0.36050  1.0000
  O   O5        1.0  0.60851  0.45842  0.78106  1.0000
  O   O6        1.0  0.39149  0.54158  0.21893  1.0000
  O   O7        1.0  0.73094  0.55902  0.04719  1.0000
  O   O8        1.0  0.26906  0.44098  0.95281  1.0000
  O   O9        1.0  0.67495  0.36233  0.10457  1.0000
  O   O10       1.0  0.32505  0.63767  0.89543  1.0000
  O   O11       1.0  0.39524  0.17855  0.97638  1.0000
  O   O12       1.0  0.60475  0.82145  0.02362  1.0000
