data_image0
_chemical_formula_structural       Zn4H48C68N8O20
_chemical_formula_sum              "Zn4 H48 C68 N8 O20"
_cell_length_a       9.84228
_cell_length_b       11.2959
_cell_length_c       15.6178
_cell_angle_alpha    90.0001
_cell_angle_beta     90.0007
_cell_angle_gamma    116.538

_space_group_name_H-M_alt    "P 1"
_space_group_IT_number       1

loop_
  _space_group_symop_operation_xyz
  'x, y, z'

loop_
  _atom_site_type_symbol
  _atom_site_label
  _atom_site_symmetry_multiplicity
  _atom_site_fract_x
  _atom_site_fract_y
  _atom_site_fract_z
  _atom_site_occupancy
  Zn  Zn1       1.0  0.74930  0.72881  0.32442  1.0000
  Zn  Zn2       1.0  0.24930  0.22881  0.17558  1.0000
  Zn  Zn3       1.0  0.25069  0.27118  0.67558  1.0000
  Zn  Zn4       1.0  0.75069  0.77120  0.82442  1.0000
  H   H1        1.0  0.43965  0.74505  0.29876  1.0000
  H   H2        1.0  0.93966  0.24504  0.20123  1.0000
  H   H3        1.0  0.56033  0.25494  0.70124  1.0000
  H   H4        1.0  0.06034  0.75495  0.79876  1.0000
  H   H5        1.0  0.24404  0.75751  0.39586  1.0000
  H   H6        1.0  0.74403  0.25749  0.10413  1.0000
  H   H7        1.0  0.75596  0.24249  0.60415  1.0000
  H   H8        1.0  0.25596  0.74250  0.89586  1.0000
  H   H9        1.0  0.26270  0.72391  0.55481  1.0000
  H   H10       1.0  0.76270  0.22388  0.94518  1.0000
  H   H11       1.0  0.73730  0.27610  0.44519  1.0000
  H   H12       1.0  0.23730  0.77612  0.05482  1.0000
  H   H13       1.0  0.46265  0.66498  0.60719  1.0000
  H   H14       1.0  0.96265  0.16494  0.89281  1.0000
  H   H15       1.0  0.53735  0.33504  0.39282  1.0000
  H   H16       1.0  0.03736  0.83506  0.10719  1.0000
  H   H17       1.0  0.37348  0.39447  0.36006  1.0000
  H   H18       1.0  0.87349  0.89447  0.13995  1.0000
  H   H19       1.0  0.62651  0.60553  0.63995  1.0000
  H   H20       1.0  0.12652  0.10553  0.86005  1.0000
  H   H21       1.0  0.15723  0.43666  0.32680  1.0000
  H   H22       1.0  0.65721  0.93665  0.17321  1.0000
  H   H23       1.0  0.84277  0.56335  0.67321  1.0000
  H   H24       1.0  0.34279  0.06335  0.82680  1.0000
  H   H25       1.0  0.96684  0.40914  0.44396  1.0000
  H   H26       1.0  0.46683  0.90913  0.05604  1.0000
  H   H27       1.0  0.03317  0.59088  0.55605  1.0000
  H   H28       1.0  0.53317  0.09087  0.94396  1.0000
  H   H29       1.0  0.01158  0.33992  0.59082  1.0000
  H   H30       1.0  0.51157  0.83992  0.90918  1.0000
  H   H31       1.0  0.98843  0.66009  0.40919  1.0000
  H   H32       1.0  0.48843  0.16008  0.09082  1.0000
  H   H33       1.0  0.80634  0.47937  0.11476  1.0000
  H   H34       1.0  0.30634  0.97938  0.38524  1.0000
  H   H35       1.0  0.19366  0.52063  0.88525  1.0000
  H   H36       1.0  0.69366  0.02063  0.61475  1.0000
  H   H37       1.0  0.83676  0.45953  0.95768  1.0000
  H   H38       1.0  0.33676  0.95953  0.54232  1.0000
  H   H39       1.0  0.16324  0.54046  0.04232  1.0000
  H   H40       1.0  0.66324  0.04047  0.45768  1.0000
  H   H41       1.0  0.95982  0.18468  0.73528  1.0000
  H   H42       1.0  0.45981  0.68468  0.76472  1.0000
  H   H43       1.0  0.04018  0.81532  0.26472  1.0000
  H   H44       1.0  0.54018  0.31532  0.23528  1.0000
  H   H45       1.0  0.04455  0.33977  0.76425  1.0000
  H   H46       1.0  0.54453  0.83977  0.73575  1.0000
  H   H47       1.0  0.95545  0.66022  0.23575  1.0000
  H   H48       1.0  0.45545  0.16022  0.26425  1.0000
  C   C1        1.0  0.44355  0.73277  0.36778  1.0000
  C   C2        1.0  0.94355  0.23275  0.13221  1.0000
  C   C3        1.0  0.55645  0.26723  0.63222  1.0000
  C   C4        1.0  0.05645  0.76725  0.86778  1.0000
  C   C5        1.0  0.33419  0.73779  0.42222  1.0000
  C   C6        1.0  0.83419  0.23776  0.07777  1.0000
  C   C7        1.0  0.66581  0.26222  0.57779  1.0000
  C   C8        1.0  0.16581  0.76223  0.92223  1.0000
  C   C9        1.0  0.34319  0.71669  0.50969  1.0000
  C   C10       1.0  0.84319  0.21666  0.99029  1.0000
  C   C11       1.0  0.65681  0.28332  0.49031  1.0000
  C   C12       1.0  0.15681  0.78334  0.00970  1.0000
  C   C13       1.0  0.45739  0.68682  0.53974  1.0000
  C   C14       1.0  0.95739  0.18679  0.96025  1.0000
  C   C15       1.0  0.54262  0.31319  0.46026  1.0000
  C   C16       1.0  0.04262  0.81321  0.03975  1.0000
  C   C17       1.0  0.56413  0.68463  0.48141  1.0000
  C   C18       1.0  0.06413  0.18462  0.01858  1.0000
  C   C19       1.0  0.43587  0.31537  0.51859  1.0000
  C   C20       1.0  0.93587  0.81538  0.98142  1.0000
  C   C21       1.0  0.69188  0.65706  0.50683  1.0000
  C   C22       1.0  0.19190  0.15706  0.99317  1.0000
  C   C23       1.0  0.30811  0.34294  0.49318  1.0000
  C   C24       1.0  0.80811  0.84295  0.00683  1.0000
  C   C25       1.0  0.29204  0.38188  0.41049  1.0000
  C   C26       1.0  0.79202  0.88188  0.08951  1.0000
  C   C27       1.0  0.70796  0.61812  0.58951  1.0000
  C   C28       1.0  0.20798  0.11813  0.91048  1.0000
  C   C29       1.0  0.16831  0.40566  0.39145  1.0000
  C   C30       1.0  0.66829  0.90565  0.10855  1.0000
  C   C31       1.0  0.83169  0.59435  0.60855  1.0000
  C   C32       1.0  0.33171  0.09435  0.89145  1.0000
  C   C33       1.0  0.06436  0.39049  0.45595  1.0000
  C   C34       1.0  0.56435  0.89050  0.04405  1.0000
  C   C35       1.0  0.93564  0.60952  0.54406  1.0000
  C   C36       1.0  0.43565  0.10951  0.95595  1.0000
  C   C37       1.0  0.08754  0.35251  0.53728  1.0000
  C   C38       1.0  0.58754  0.85252  0.96272  1.0000
  C   C39       1.0  0.91246  0.64750  0.46272  1.0000
  C   C40       1.0  0.41246  0.14748  0.03728  1.0000
  C   C41       1.0  0.62254  0.53842  0.19652  1.0000
  C   C42       1.0  0.12253  0.03843  0.30348  1.0000
  C   C43       1.0  0.37746  0.46157  0.80348  1.0000
  C   C44       1.0  0.87746  0.96157  0.69652  1.0000
  C   C45       1.0  0.60364  0.50275  0.10273  1.0000
  C   C46       1.0  0.10364  0.00276  0.39726  1.0000
  C   C47       1.0  0.39637  0.49725  0.89727  1.0000
  C   C48       1.0  0.89636  0.99725  0.60273  1.0000
  C   C49       1.0  0.72202  0.48162  0.07036  1.0000
  C   C50       1.0  0.22202  0.98163  0.42964  1.0000
  C   C51       1.0  0.27799  0.51838  0.92964  1.0000
  C   C52       1.0  0.77799  0.01838  0.57035  1.0000
  C   C53       1.0  0.73927  0.47033  0.98226  1.0000
  C   C54       1.0  0.23927  0.97033  0.51774  1.0000
  C   C55       1.0  0.26074  0.52967  0.01774  1.0000
  C   C56       1.0  0.76073  0.02967  0.48226  1.0000
  C   C57       1.0  0.63827  0.47945  0.92429  1.0000
  C   C58       1.0  0.13828  0.97944  0.57571  1.0000
  C   C59       1.0  0.36173  0.52055  0.07571  1.0000
  C   C60       1.0  0.86172  0.02055  0.42429  1.0000
  C   C61       1.0  0.68418  0.48703  0.83155  1.0000
  C   C62       1.0  0.18418  0.98701  0.66845  1.0000
  C   C63       1.0  0.31582  0.51297  0.16846  1.0000
  C   C64       1.0  0.81582  0.01298  0.33154  1.0000
  C   C65       1.0  0.50881  0.49375  0.95424  1.0000
  C   C66       1.0  0.00881  0.99375  0.54576  1.0000
  C   C67       1.0  0.49120  0.50625  0.04576  1.0000
  C   C68       1.0  0.99119  0.00625  0.45424  1.0000
  N   N1        1.0  0.55674  0.70915  0.39746  1.0000
  N   N2        1.0  0.05674  0.20913  0.10254  1.0000
  N   N3        1.0  0.44326  0.29085  0.60255  1.0000
  N   N4        1.0  0.94326  0.79087  0.89746  1.0000
  N   N5        1.0  0.79363  0.67102  0.44439  1.0000
  N   N6        1.0  0.29364  0.17101  0.05562  1.0000
  N   N7        1.0  0.20637  0.32898  0.55561  1.0000
  N   N8        1.0  0.70636  0.82899  0.94439  1.0000
  O   O1        1.0  0.63626  0.65342  0.21485  1.0000
  O   O2        1.0  0.13624  0.15342  0.28514  1.0000
  O   O3        1.0  0.36375  0.34658  0.78515  1.0000
  O   O4        1.0  0.86374  0.84658  0.71485  1.0000
  O   O5        1.0  0.64547  0.46428  0.24986  1.0000
  O   O6        1.0  0.14546  0.96429  0.25014  1.0000
  O   O7        1.0  0.35453  0.53572  0.75015  1.0000
  O   O8        1.0  0.85453  0.03572  0.74985  1.0000
  O   O9        1.0  0.72996  0.40800  0.80332  1.0000
  O   O10       1.0  0.22994  0.90797  0.69667  1.0000
  O   O11       1.0  0.27005  0.59201  0.19668  1.0000
  O   O12       1.0  0.77007  0.09202  0.30332  1.0000
  O   O13       1.0  0.68002  0.58319  0.78762  1.0000
  O   O14       1.0  0.18003  0.08316  0.71238  1.0000
  O   O15       1.0  0.31998  0.41681  0.21238  1.0000
  O   O16       1.0  0.81997  0.91682  0.28762  1.0000
  O   O17       1.0  0.04281  0.27737  0.72103  1.0000
  O   O18       1.0  0.54280  0.77738  0.77897  1.0000
  O   O19       1.0  0.95719  0.72262  0.27897  1.0000
  O   O20       1.0  0.45719  0.22262  0.22103  1.0000
