data_image0
_chemical_formula_structural       Cd4H48C56N40
_chemical_formula_sum              "Cd4 H48 C56 N40"
_cell_length_a       7.6931
_cell_length_b       7.6931
_cell_length_c       25.6074
_cell_angle_alpha    92.8984
_cell_angle_beta     92.8987
_cell_angle_gamma    93.2568

_space_group_name_H-M_alt    "P 1"
_space_group_IT_number       1

loop_
  _space_group_symop_operation_xyz
  'x, y, z'

loop_
  _atom_site_type_symbol
  _atom_site_label
  _atom_site_symmetry_multiplicity
  _atom_site_fract_x
  _atom_site_fract_y
  _atom_site_fract_z
  _atom_site_occupancy
  Cd  Cd1       1.0  0.76077  0.56972  0.03144  1.0000
  Cd  Cd2       1.0  0.56972  0.76077  0.53144  1.0000
  Cd  Cd3       1.0  0.23923  0.43028  0.96856  1.0000
  Cd  Cd4       1.0  0.43028  0.23923  0.46856  1.0000
  H   H1        1.0  0.81545  0.90989  0.01222  1.0000
  H   H2        1.0  0.90989  0.81545  0.51222  1.0000
  H   H3        1.0  0.18456  0.09011  0.98778  1.0000
  H   H4        1.0  0.09011  0.18455  0.48778  1.0000
  H   H5        1.0  0.00289  0.87437  0.04429  1.0000
  H   H6        1.0  0.87437  0.00289  0.54429  1.0000
  H   H7        1.0  0.99711  0.12563  0.95571  1.0000
  H   H8        1.0  0.12563  0.99711  0.45571  1.0000
  H   H9        1.0  0.71611  0.34696  0.10687  1.0000
  H   H10       1.0  0.34696  0.71611  0.60688  1.0000
  H   H11       1.0  0.28389  0.65304  0.89312  1.0000
  H   H12       1.0  0.65304  0.28389  0.39312  1.0000
  H   H13       1.0  0.53847  0.45548  0.11369  1.0000
  H   H14       1.0  0.45548  0.53848  0.61369  1.0000
  H   H15       1.0  0.46152  0.54452  0.88631  1.0000
  H   H16       1.0  0.54452  0.46152  0.38631  1.0000
  H   H17       1.0  0.98029  0.77873  0.28737  1.0000
  H   H18       1.0  0.77873  0.98030  0.78737  1.0000
  H   H19       1.0  0.01970  0.22128  0.71263  1.0000
  H   H20       1.0  0.22127  0.01970  0.21263  1.0000
  H   H21       1.0  0.43226  0.06113  0.14627  1.0000
  H   H22       1.0  0.06113  0.43226  0.64627  1.0000
  H   H23       1.0  0.56774  0.93887  0.85373  1.0000
  H   H24       1.0  0.93887  0.56774  0.35373  1.0000
  H   H25       1.0  0.51239  0.61100  0.19348  1.0000
  H   H26       1.0  0.61100  0.51240  0.69348  1.0000
  H   H27       1.0  0.48760  0.38900  0.80652  1.0000
  H   H28       1.0  0.38900  0.48760  0.30652  1.0000
  H   H29       1.0  0.06716  0.02539  0.12475  1.0000
  H   H30       1.0  0.02539  0.06716  0.62475  1.0000
  H   H31       1.0  0.93285  0.97461  0.87525  1.0000
  H   H32       1.0  0.97461  0.93285  0.37525  1.0000
  H   H33       1.0  0.96225  0.16899  0.20593  1.0000
  H   H34       1.0  0.16900  0.96225  0.70593  1.0000
  H   H35       1.0  0.03775  0.83101  0.79407  1.0000
  H   H36       1.0  0.83101  0.03775  0.29407  1.0000
  H   H37       1.0  0.15806  0.65400  0.21797  1.0000
  H   H38       1.0  0.65400  0.15806  0.71797  1.0000
  H   H39       1.0  0.84193  0.34600  0.78203  1.0000
  H   H40       1.0  0.34600  0.84193  0.28202  1.0000
  H   H41       1.0  0.65471  0.75449  0.27549  1.0000
  H   H42       1.0  0.75450  0.65471  0.77549  1.0000
  H   H43       1.0  0.34529  0.24551  0.72451  1.0000
  H   H44       1.0  0.24551  0.34529  0.22451  1.0000
  H   H45       1.0  0.64253  0.18761  0.21664  1.0000
  H   H46       1.0  0.18761  0.64253  0.71664  1.0000
  H   H47       1.0  0.35747  0.81239  0.78336  1.0000
  H   H48       1.0  0.81239  0.35748  0.28336  1.0000
  C   C1        1.0  0.05238  0.49809  0.12770  1.0000
  C   C2        1.0  0.49809  0.05239  0.62770  1.0000
  C   C3        1.0  0.94761  0.50191  0.87230  1.0000
  C   C4        1.0  0.50191  0.94761  0.37230  1.0000
  C   C5        1.0  0.75417  0.55162  0.16012  1.0000
  C   C6        1.0  0.55162  0.75417  0.66012  1.0000
  C   C7        1.0  0.24583  0.44838  0.83988  1.0000
  C   C8        1.0  0.44838  0.24582  0.33988  1.0000
  C   C9        1.0  0.49533  0.88488  0.05965  1.0000
  C   C10       1.0  0.88488  0.49533  0.55965  1.0000
  C   C11       1.0  0.50467  0.11512  0.94035  1.0000
  C   C12       1.0  0.11512  0.50467  0.44035  1.0000
  C   C13       1.0  0.80935  0.95700  0.09110  1.0000
  C   C14       1.0  0.95701  0.80935  0.59110  1.0000
  C   C15       1.0  0.19065  0.04300  0.90890  1.0000
  C   C16       1.0  0.04300  0.19065  0.40890  1.0000
  C   C17       1.0  0.93805  0.56407  0.16699  1.0000
  C   C18       1.0  0.56407  0.93805  0.66699  1.0000
  C   C19       1.0  0.06194  0.43593  0.83301  1.0000
  C   C20       1.0  0.43593  0.06195  0.33301  1.0000
  C   C21       1.0  0.62840  0.96700  0.09720  1.0000
  C   C22       1.0  0.96701  0.62839  0.59720  1.0000
  C   C23       1.0  0.37160  0.03300  0.90280  1.0000
  C   C24       1.0  0.03300  0.37160  0.40280  1.0000
  C   C25       1.0  0.91600  0.71486  0.25204  1.0000
  C   C26       1.0  0.71486  0.91600  0.75204  1.0000
  C   C27       1.0  0.08399  0.28514  0.74796  1.0000
  C   C28       1.0  0.28514  0.08400  0.24796  1.0000
  C   C29       1.0  0.57188  0.05289  0.14243  1.0000
  C   C30       1.0  0.05289  0.57189  0.64244  1.0000
  C   C31       1.0  0.42812  0.94711  0.85757  1.0000
  C   C32       1.0  0.94711  0.42812  0.35757  1.0000
  C   C33       1.0  0.65425  0.62287  0.19916  1.0000
  C   C34       1.0  0.62287  0.65425  0.69916  1.0000
  C   C35       1.0  0.34575  0.37713  0.80084  1.0000
  C   C36       1.0  0.37713  0.34575  0.30084  1.0000
  C   C37       1.0  0.92779  0.03141  0.13043  1.0000
  C   C38       1.0  0.03142  0.92779  0.63042  1.0000
  C   C39       1.0  0.07221  0.96859  0.86958  1.0000
  C   C40       1.0  0.96859  0.07221  0.36958  1.0000
  C   C41       1.0  0.86869  0.11271  0.17553  1.0000
  C   C42       1.0  0.11272  0.86870  0.67553  1.0000
  C   C43       1.0  0.13131  0.88728  0.82447  1.0000
  C   C44       1.0  0.88728  0.13131  0.32447  1.0000
  C   C45       1.0  0.01610  0.64536  0.21341  1.0000
  C   C46       1.0  0.64536  0.01611  0.71341  1.0000
  C   C47       1.0  0.98389  0.35464  0.78659  1.0000
  C   C48       1.0  0.35464  0.98389  0.28659  1.0000
  C   C49       1.0  0.73424  0.70376  0.24482  1.0000
  C   C50       1.0  0.70377  0.73424  0.74482  1.0000
  C   C51       1.0  0.26576  0.29624  0.75518  1.0000
  C   C52       1.0  0.29623  0.26576  0.25518  1.0000
  C   C53       1.0  0.69017  0.12373  0.18169  1.0000
  C   C54       1.0  0.12373  0.69017  0.68169  1.0000
  C   C55       1.0  0.30983  0.87627  0.81831  1.0000
  C   C56       1.0  0.87627  0.30983  0.31831  1.0000
  N   N1        1.0  0.86979  0.86790  0.04638  1.0000
  N   N2        1.0  0.86790  0.86979  0.54638  1.0000
  N   N3        1.0  0.13021  0.13210  0.95362  1.0000
  N   N4        1.0  0.13210  0.13021  0.45362  1.0000
  N   N5        1.0  0.24603  0.82073  0.02002  1.0000
  N   N6        1.0  0.82073  0.24603  0.52002  1.0000
  N   N7        1.0  0.75397  0.17927  0.97998  1.0000
  N   N8        1.0  0.17927  0.75397  0.47998  1.0000
  N   N9        1.0  0.01342  0.46758  0.07578  1.0000
  N   N10       1.0  0.46758  0.01343  0.57578  1.0000
  N   N11       1.0  0.98657  0.53242  0.92422  1.0000
  N   N12       1.0  0.53242  0.98658  0.42422  1.0000
  N   N13       1.0  0.51309  0.74265  0.02746  1.0000
  N   N14       1.0  0.74265  0.51309  0.52746  1.0000
  N   N15       1.0  0.48691  0.25735  0.97254  1.0000
  N   N16       1.0  0.25735  0.48691  0.47254  1.0000
  N   N17       1.0  0.35545  0.70620  0.00339  1.0000
  N   N18       1.0  0.70621  0.35545  0.50339  1.0000
  N   N19       1.0  0.64455  0.29379  0.99661  1.0000
  N   N20       1.0  0.29380  0.64455  0.49661  1.0000
  N   N21       1.0  0.67252  0.46882  0.11386  1.0000
  N   N22       1.0  0.46882  0.67252  0.61386  1.0000
  N   N23       1.0  0.32748  0.53118  0.88614  1.0000
  N   N24       1.0  0.53118  0.32748  0.38614  1.0000
  N   N25       1.0  0.32972  0.93501  0.05508  1.0000
  N   N26       1.0  0.93501  0.32971  0.55508  1.0000
  N   N27       1.0  0.67029  0.06499  0.94492  1.0000
  N   N28       1.0  0.06498  0.67029  0.44492  1.0000
  N   N29       1.0  0.22051  0.46506  0.13912  1.0000
  N   N30       1.0  0.46506  0.22051  0.63912  1.0000
  N   N31       1.0  0.77949  0.53494  0.86088  1.0000
  N   N32       1.0  0.53494  0.77949  0.36088  1.0000
  N   N33       1.0  0.28481  0.41498  0.09372  1.0000
  N   N34       1.0  0.41498  0.28482  0.59372  1.0000
  N   N35       1.0  0.71518  0.58502  0.90628  1.0000
  N   N36       1.0  0.58502  0.71518  0.40628  1.0000
  N   N37       1.0  0.16169  0.41619  0.05584  1.0000
  N   N38       1.0  0.41618  0.16170  0.55584  1.0000
  N   N39       1.0  0.83830  0.58381  0.94416  1.0000
  N   N40       1.0  0.58381  0.83830  0.44416  1.0000
