data_image0
_chemical_formula_structural       CdH22C26N4O4
_chemical_formula_sum              "Cd1 H22 C26 N4 O4"
_cell_length_a       5.03567
_cell_length_b       8.99172
_cell_length_c       12.8083
_cell_angle_alpha    102.578
_cell_angle_beta     91.1255
_cell_angle_gamma    100.784

_space_group_name_H-M_alt    "P 1"
_space_group_IT_number       1

loop_
  _space_group_symop_operation_xyz
  'x, y, z'

loop_
  _atom_site_type_symbol
  _atom_site_label
  _atom_site_symmetry_multiplicity
  _atom_site_fract_x
  _atom_site_fract_y
  _atom_site_fract_z
  _atom_site_occupancy
  Cd  Cd1       1.0  0.00000  0.00000  0.50000  1.0000
  H   H1        1.0  0.32648  0.23776  0.37847  1.0000
  H   H2        1.0  0.67352  0.76225  0.62153  1.0000
  H   H3        1.0  0.01758  0.17554  0.05188  1.0000
  H   H4        1.0  0.98243  0.82445  0.94812  1.0000
  H   H5        1.0  0.60923  0.99502  0.09536  1.0000
  H   H6        1.0  0.39077  0.00497  0.90464  1.0000
  H   H7        1.0  0.58495  0.94821  0.28232  1.0000
  H   H8        1.0  0.41505  0.05180  0.71769  1.0000
  H   H9        1.0  0.58802  0.37878  0.26833  1.0000
  H   H10       1.0  0.41197  0.62122  0.73167  1.0000
  H   H11       1.0  0.70658  0.62664  0.25085  1.0000
  H   H12       1.0  0.29341  0.37335  0.74915  1.0000
  H   H13       1.0  0.12756  0.80889  0.23780  1.0000
  H   H14       1.0  0.87244  0.19111  0.76220  1.0000
  H   H15       1.0  0.39780  0.76283  0.07574  1.0000
  H   H16       1.0  0.60220  0.23716  0.92426  1.0000
  H   H17       1.0  0.80499  0.44556  0.66303  1.0000
  H   H18       1.0  0.19505  0.55448  0.33697  1.0000
  H   H19       1.0  0.68095  0.46083  0.53546  1.0000
  H   H20       1.0  0.31904  0.53919  0.46453  1.0000
  H   H21       1.0  0.96339  0.36667  0.54844  1.0000
  H   H22       1.0  0.03664  0.63335  0.45154  1.0000
  C   C1        1.0  0.17230  0.18628  0.31306  1.0000
  C   C2        1.0  0.82770  0.81372  0.68694  1.0000
  C   C3        1.0  0.20368  0.22153  0.21215  1.0000
  C   C4        1.0  0.79632  0.77847  0.78785  1.0000
  C   C5        1.0  0.99872  0.15012  0.13114  1.0000
  C   C6        1.0  0.00128  0.84988  0.86886  1.0000
  C   C7        1.0  0.77426  0.05087  0.15547  1.0000
  C   C8        1.0  0.22572  0.94912  0.84453  1.0000
  C   C9        1.0  0.75865  0.02338  0.25869  1.0000
  C   C10       1.0  0.24136  0.97662  0.74131  1.0000
  C   C11       1.0  0.44744  0.32882  0.19666  1.0000
  C   C12       1.0  0.55256  0.67118  0.80335  1.0000
  C   C13       1.0  0.73321  0.47097  0.09911  1.0000
  C   C14       1.0  0.26678  0.52902  0.90088  1.0000
  C   C15       1.0  0.82181  0.60352  0.17997  1.0000
  C   C16       1.0  0.17818  0.39648  0.82003  1.0000
  C   C17       1.0  0.05962  0.70946  0.17127  1.0000
  C   C18       1.0  0.94038  0.29054  0.82873  1.0000
  C   C19       1.0  0.20862  0.68479  0.08197  1.0000
  C   C20       1.0  0.79138  0.31520  0.91803  1.0000
  C   C21       1.0  0.87874  0.44573  0.00364  1.0000
  C   C22       1.0  0.12125  0.55426  0.99636  1.0000
  C   C23       1.0  0.57356  0.23263  0.57236  1.0000
  C   C24       1.0  0.42645  0.76739  0.42764  1.0000
  C   C25       1.0  0.76688  0.38561  0.57792  1.0000
  C   C26       1.0  0.23308  0.61437  0.42206  1.0000
  N   N1        1.0  0.95635  0.08951  0.33618  1.0000
  N   N2        1.0  0.04364  0.91048  0.66382  1.0000
  N   N3        1.0  0.50076  0.36153  0.10549  1.0000
  N   N4        1.0  0.49924  0.63846  0.89451  1.0000
  O   O1        1.0  0.66691  0.11723  0.58879  1.0000
  O   O2        1.0  0.33310  0.88280  0.41122  1.0000
  O   O3        1.0  0.32097  0.23001  0.55631  1.0000
  O   O4        1.0  0.67906  0.77000  0.44369  1.0000
