data_image0
_chemical_formula_structural       Co2H40C52S4N4O8
_chemical_formula_sum              "Co2 H40 C52 S4 N4 O8"
_cell_length_a       11.0125
_cell_length_b       11.1027
_cell_length_c       11.6911
_cell_angle_alpha    62.9413
_cell_angle_beta     79.1694
_cell_angle_gamma    77.3934

_space_group_name_H-M_alt    "P 1"
_space_group_IT_number       1

loop_
  _space_group_symop_operation_xyz
  'x, y, z'

loop_
  _atom_site_type_symbol
  _atom_site_label
  _atom_site_symmetry_multiplicity
  _atom_site_fract_x
  _atom_site_fract_y
  _atom_site_fract_z
  _atom_site_occupancy
  Co  Co1       1.0  0.80889  0.21878  0.33832  1.0000
  Co  Co2       1.0  0.19112  0.78122  0.66167  1.0000
  H   H1        1.0  0.75040  0.42985  0.43158  1.0000
  H   H2        1.0  0.24960  0.57015  0.56843  1.0000
  H   H3        1.0  0.59210  0.63252  0.41382  1.0000
  H   H4        1.0  0.40790  0.36747  0.58619  1.0000
  H   H5        1.0  0.41640  0.55728  0.15450  1.0000
  H   H6        1.0  0.58360  0.44272  0.84550  1.0000
  H   H7        1.0  0.58072  0.35729  0.18632  1.0000
  H   H8        1.0  0.41928  0.64271  0.81367  1.0000
  H   H9        1.0  0.22422  0.88127  0.13832  1.0000
  H   H10       1.0  0.77578  0.11872  0.86167  1.0000
  H   H11       1.0  0.34275  0.79856  0.06326  1.0000
  H   H12       1.0  0.65726  0.20144  0.93674  1.0000
  H   H13       1.0  0.15580  0.63294  0.38812  1.0000
  H   H14       1.0  0.84420  0.36707  0.61188  1.0000
  H   H15       1.0  0.03046  0.44956  0.43633  1.0000
  H   H16       1.0  0.96955  0.55045  0.56368  1.0000
  H   H17       1.0  0.09604  0.52215  0.03745  1.0000
  H   H18       1.0  0.90396  0.47784  0.96255  1.0000
  H   H19       1.0  0.23394  0.68954  0.99288  1.0000
  H   H20       1.0  0.76605  0.31045  0.00712  1.0000
  H   H21       1.0  0.58232  0.08212  0.47442  1.0000
  H   H22       1.0  0.41768  0.91790  0.52557  1.0000
  H   H23       1.0  0.52275  0.89719  0.68893  1.0000
  H   H24       1.0  0.47724  0.10282  0.31106  1.0000
  H   H25       1.0  0.88541  0.88197  0.79649  1.0000
  H   H26       1.0  0.11458  0.11803  0.20351  1.0000
  H   H27       1.0  0.92521  0.06720  0.58169  1.0000
  H   H28       1.0  0.07479  0.93281  0.41831  1.0000
  H   H29       1.0  0.76692  0.60421  0.08651  1.0000
  H   H30       1.0  0.23307  0.39579  0.91348  1.0000
  H   H31       1.0  0.87071  0.68722  0.95277  1.0000
  H   H32       1.0  0.12928  0.31279  0.04722  1.0000
  H   H33       1.0  0.97880  0.78327  0.04120  1.0000
  H   H34       1.0  0.02119  0.21672  0.95881  1.0000
  H   H35       1.0  0.98064  0.93605  0.14402  1.0000
  H   H36       1.0  0.01935  0.06394  0.85599  1.0000
  H   H37       1.0  0.57889  0.01381  0.17706  1.0000
  H   H38       1.0  0.42111  0.98619  0.82294  1.0000
  H   H39       1.0  0.57659  0.86129  0.07573  1.0000
  H   H40       1.0  0.42341  0.13871  0.92427  1.0000
  C   C1        1.0  0.67401  0.46165  0.37196  1.0000
  C   C2        1.0  0.32599  0.53834  0.62805  1.0000
  C   C3        1.0  0.58531  0.57467  0.36152  1.0000
  C   C4        1.0  0.41469  0.42532  0.63849  1.0000
  C   C5        1.0  0.48830  0.61389  0.28256  1.0000
  C   C6        1.0  0.51170  0.38611  0.71745  1.0000
  C   C7        1.0  0.48811  0.53488  0.21672  1.0000
  C   C8        1.0  0.51190  0.46512  0.78328  1.0000
  C   C9        1.0  0.58012  0.42216  0.23379  1.0000
  C   C10       1.0  0.41988  0.57784  0.76621  1.0000
  C   C11       1.0  0.28267  0.78201  0.15388  1.0000
  C   C12       1.0  0.71733  0.21798  0.84612  1.0000
  C   C13       1.0  0.20404  0.67276  0.18761  1.0000
  C   C14       1.0  0.79596  0.32724  0.81239  1.0000
  C   C15       1.0  0.14523  0.60566  0.31222  1.0000
  C   C16       1.0  0.85477  0.39434  0.68778  1.0000
  C   C17       1.0  0.07419  0.50463  0.33921  1.0000
  C   C18       1.0  0.92582  0.49536  0.66079  1.0000
  C   C19       1.0  0.05632  0.47307  0.24088  1.0000
  C   C20       1.0  0.94368  0.52692  0.75912  1.0000
  C   C21       1.0  0.11320  0.54152  0.11584  1.0000
  C   C22       1.0  0.88681  0.45847  0.88416  1.0000
  C   C23       1.0  0.18854  0.63829  0.09036  1.0000
  C   C24       1.0  0.81147  0.36170  0.90964  1.0000
  C   C25       1.0  0.97233  0.37332  0.26676  1.0000
  C   C26       1.0  0.02768  0.62667  0.73325  1.0000
  C   C27       1.0  0.64581  0.03382  0.54950  1.0000
  C   C28       1.0  0.35419  0.96619  0.45050  1.0000
  C   C29       1.0  0.61404  0.93033  0.66820  1.0000
  C   C30       1.0  0.38596  0.06968  0.33179  1.0000
  C   C31       1.0  0.69969  0.87076  0.76204  1.0000
  C   C32       1.0  0.30031  0.12925  0.23795  1.0000
  C   C33       1.0  0.81350  0.92188  0.73059  1.0000
  C   C34       1.0  0.18650  0.07814  0.26940  1.0000
  C   C35       1.0  0.83742  0.02592  0.60867  1.0000
  C   C36       1.0  0.16258  0.97409  0.39132  1.0000
  C   C37       1.0  0.77973  0.70419  0.00531  1.0000
  C   C38       1.0  0.22026  0.29581  0.99469  1.0000
  C   C39       1.0  0.77755  0.80852  0.05500  1.0000
  C   C40       1.0  0.22244  0.19147  0.94500  1.0000
  C   C41       1.0  0.89104  0.83289  0.07209  1.0000
  C   C42       1.0  0.10895  0.16710  0.92792  1.0000
  C   C43       1.0  0.89248  0.91806  0.12974  1.0000
  C   C44       1.0  0.10752  0.08192  0.87027  1.0000
  C   C45       1.0  0.78010  0.98281  0.16935  1.0000
  C   C46       1.0  0.21990  0.01718  0.83066  1.0000
  C   C47       1.0  0.66649  0.96189  0.14857  1.0000
  C   C48       1.0  0.33351  0.03810  0.85143  1.0000
  C   C49       1.0  0.66544  0.87614  0.09174  1.0000
  C   C50       1.0  0.33456  0.12387  0.90826  1.0000
  C   C51       1.0  0.78021  0.07497  0.22986  1.0000
  C   C52       1.0  0.21979  0.92502  0.77014  1.0000
  S   S1        1.0  0.37872  0.75555  0.27551  1.0000
  S   S2        1.0  0.62128  0.24445  0.72449  1.0000
  S   S3        1.0  0.65581  0.73773  0.90788  1.0000
  S   S4        1.0  0.34418  0.26229  0.09211  1.0000
  N   N1        1.0  0.67256  0.38446  0.30996  1.0000
  N   N2        1.0  0.32744  0.61554  0.69004  1.0000
  N   N3        1.0  0.75636  0.08119  0.51801  1.0000
  N   N4        1.0  0.24364  0.91882  0.48199  1.0000
  O   O1        1.0  0.93893  0.29207  0.38478  1.0000
  O   O2        1.0  0.06108  0.70792  0.61522  1.0000
  O   O3        1.0  0.92990  0.37129  0.17409  1.0000
  O   O4        1.0  0.07010  0.62871  0.82592  1.0000
  O   O5        1.0  0.88416  0.08903  0.25418  1.0000
  O   O6        1.0  0.11584  0.91097  0.74582  1.0000
  O   O7        1.0  0.67797  0.14139  0.25667  1.0000
  O   O8        1.0  0.32203  0.85862  0.74332  1.0000
