data_image0
_chemical_formula_structural       Zn4H32C56N8O16
_chemical_formula_sum              "Zn4 H32 C56 N8 O16"
_cell_length_a       9.50955
_cell_length_b       10.5129
_cell_length_c       14.5697
_cell_angle_alpha    83.3825
_cell_angle_beta     75.2209
_cell_angle_gamma    63.108

_space_group_name_H-M_alt    "P 1"
_space_group_IT_number       1

loop_
  _space_group_symop_operation_xyz
  'x, y, z'

loop_
  _atom_site_type_symbol
  _atom_site_label
  _atom_site_symmetry_multiplicity
  _atom_site_fract_x
  _atom_site_fract_y
  _atom_site_fract_z
  _atom_site_occupancy
  Zn  Zn1       1.0  0.95728  0.08545  0.75006  1.0000
  Zn  Zn2       1.0  0.04272  0.91455  0.24994  1.0000
  Zn  Zn3       1.0  0.49955  0.00067  0.75000  1.0000
  Zn  Zn4       1.0  0.50045  0.99933  0.25000  1.0000
  H   H1        1.0  0.22901  0.85298  0.96630  1.0000
  H   H2        1.0  0.91786  0.85308  0.53350  1.0000
  H   H3        1.0  0.77099  0.14702  0.03370  1.0000
  H   H4        1.0  0.08214  0.14692  0.46650  1.0000
  H   H5        1.0  0.98004  0.59282  0.01217  1.0000
  H   H6        1.0  0.42703  0.59286  0.48779  1.0000
  H   H7        1.0  0.01996  0.40718  0.98783  1.0000
  H   H8        1.0  0.57297  0.40714  0.51221  1.0000
  H   H9        1.0  0.02344  0.57056  0.83666  1.0000
  H   H10       1.0  0.40562  0.57055  0.66332  1.0000
  H   H11       1.0  0.97656  0.42944  0.16334  1.0000
  H   H12       1.0  0.59438  0.42944  0.33668  1.0000
  H   H13       1.0  0.29526  0.04808  0.97257  1.0000
  H   H14       1.0  0.65688  0.04820  0.52741  1.0000
  H   H15       1.0  0.70474  0.95192  0.02743  1.0000
  H   H16       1.0  0.34312  0.95180  0.47259  1.0000
  H   H17       1.0  0.29199  0.24818  0.08036  1.0000
  H   H18       1.0  0.46005  0.24836  0.41970  1.0000
  H   H19       1.0  0.70801  0.75182  0.91964  1.0000
  H   H20       1.0  0.53995  0.75164  0.58030  1.0000
  H   H21       1.0  0.56560  0.25060  0.79910  1.0000
  H   H22       1.0  0.18378  0.25039  0.70080  1.0000
  H   H23       1.0  0.43440  0.74940  0.20090  1.0000
  H   H24       1.0  0.81622  0.74961  0.29920  1.0000
  H   H25       1.0  0.39191  0.36570  0.12531  1.0000
  H   H26       1.0  0.24245  0.36567  0.37467  1.0000
  H   H27       1.0  0.60809  0.63430  0.87469  1.0000
  H   H28       1.0  0.75755  0.63433  0.62533  1.0000
  H   H29       1.0  0.55687  0.44608  0.82879  1.0000
  H   H30       1.0  0.99699  0.44604  0.67119  1.0000
  H   H31       1.0  0.44313  0.55392  0.17121  1.0000
  H   H32       1.0  0.00301  0.55396  0.32880  1.0000
  C   C1        1.0  0.13836  0.71204  0.80184  1.0000
  C   C2        1.0  0.14930  0.71205  0.69809  1.0000
  C   C3        1.0  0.86164  0.28796  0.19816  1.0000
  C   C4        1.0  0.85070  0.28795  0.30191  1.0000
  C   C5        1.0  0.20079  0.78806  0.83967  1.0000
  C   C6        1.0  0.01092  0.78811  0.66021  1.0000
  C   C7        1.0  0.79921  0.21194  0.16033  1.0000
  C   C8        1.0  0.98908  0.21189  0.33979  1.0000
  C   C9        1.0  0.18329  0.79202  0.93750  1.0000
  C   C10       1.0  0.02453  0.79214  0.56235  1.0000
  C   C11       1.0  0.81671  0.20798  0.06250  1.0000
  C   C12       1.0  0.97547  0.20786  0.43765  1.0000
  C   C13       1.0  0.10062  0.72431  0.99992  1.0000
  C   C14       1.0  0.17496  0.72425  0.49998  1.0000
  C   C15       1.0  0.89938  0.27569  0.00008  1.0000
  C   C16       1.0  0.82504  0.27575  0.50002  1.0000
  C   C17       1.0  0.04466  0.64435  0.96247  1.0000
  C   C18       1.0  0.31085  0.64430  0.53747  1.0000
  C   C19       1.0  0.95535  0.35565  0.03753  1.0000
  C   C20       1.0  0.68916  0.35570  0.46253  1.0000
  C   C21       1.0  0.06522  0.63606  0.86473  1.0000
  C   C22       1.0  0.29842  0.63600  0.63521  1.0000
  C   C23       1.0  0.93478  0.36394  0.13527  1.0000
  C   C24       1.0  0.70158  0.36399  0.36479  1.0000
  C   C25       1.0  0.27498  0.87786  0.78089  1.0000
  C   C26       1.0  0.84696  0.87795  0.71907  1.0000
  C   C27       1.0  0.72502  0.12214  0.21911  1.0000
  C   C28       1.0  0.15304  0.12205  0.28093  1.0000
  C   C29       1.0  0.06557  0.74477  0.10509  1.0000
  C   C30       1.0  0.18978  0.74469  0.39479  1.0000
  C   C31       1.0  0.93443  0.25523  0.89491  1.0000
  C   C32       1.0  0.81022  0.25531  0.60521  1.0000
  C   C33       1.0  0.35127  0.11995  0.95238  1.0000
  C   C34       1.0  0.52896  0.11997  0.54761  1.0000
  C   C35       1.0  0.64873  0.88005  0.04762  1.0000
  C   C36       1.0  0.47104  0.88003  0.45239  1.0000
  C   C37       1.0  0.34930  0.21860  0.00680  1.0000
  C   C38       1.0  0.43231  0.21868  0.49321  1.0000
  C   C39       1.0  0.65070  0.78140  0.99320  1.0000
  C   C40       1.0  0.56769  0.78132  0.50679  1.0000
  C   C41       1.0  0.49082  0.22314  0.86028  1.0000
  C   C42       1.0  0.28608  0.22299  0.63965  1.0000
  C   C43       1.0  0.50918  0.77686  0.13972  1.0000
  C   C44       1.0  0.71392  0.77701  0.36035  1.0000
  C   C45       1.0  0.46814  0.39393  0.97392  1.0000
  C   C46       1.0  0.13798  0.39391  0.52604  1.0000
  C   C47       1.0  0.53186  0.60607  0.02607  1.0000
  C   C48       1.0  0.86202  0.60609  0.47396  1.0000
  C   C49       1.0  0.43623  0.42592  0.06979  1.0000
  C   C50       1.0  0.13786  0.42588  0.43018  1.0000
  C   C51       1.0  0.56378  0.57408  0.93021  1.0000
  C   C52       1.0  0.86214  0.57412  0.56982  1.0000
  C   C53       1.0  0.53204  0.46842  0.90396  1.0000
  C   C54       1.0  0.99956  0.46838  0.59602  1.0000
  C   C55       1.0  0.46797  0.53158  0.09604  1.0000
  C   C56       1.0  0.00044  0.53162  0.40398  1.0000
  N   N1        1.0  0.44020  0.12344  0.86159  1.0000
  N   N2        1.0  0.43642  0.12333  0.63835  1.0000
  N   N3        1.0  0.55980  0.87656  0.13842  1.0000
  N   N4        1.0  0.56358  0.87667  0.36164  1.0000
  N   N5        1.0  0.43763  0.28395  0.94781  1.0000
  N   N6        1.0  0.27851  0.28392  0.55216  1.0000
  N   N7        1.0  0.56237  0.71605  0.05219  1.0000
  N   N8        1.0  0.72149  0.71608  0.44784  1.0000
  O   O1        1.0  0.20066  0.97071  0.72443  1.0000
  O   O2        1.0  0.82844  0.97095  0.77540  1.0000
  O   O3        1.0  0.79934  0.02929  0.27557  1.0000
  O   O4        1.0  0.17156  0.02905  0.22460  1.0000
  O   O5        1.0  0.41091  0.85989  0.79408  1.0000
  O   O6        1.0  0.72897  0.85976  0.70613  1.0000
  O   O7        1.0  0.58909  0.14011  0.20592  1.0000
  O   O8        1.0  0.27103  0.14024  0.29387  1.0000
  O   O9        1.0  0.11411  0.83303  0.12621  1.0000
  O   O10       1.0  0.05299  0.83278  0.37361  1.0000
  O   O11       1.0  0.88589  0.16697  0.87379  1.0000
  O   O12       1.0  0.94701  0.16722  0.62639  1.0000
  O   O13       1.0  0.99295  0.68455  0.16290  1.0000
  O   O14       1.0  0.32275  0.68456  0.33706  1.0000
  O   O15       1.0  0.00705  0.31546  0.83710  1.0000
  O   O16       1.0  0.67725  0.31544  0.66294  1.0000
