data_image0
_chemical_formula_structural       Ba2H16C12Cl12O14
_chemical_formula_sum              "Ba2 H16 C12 Cl12 O14"
_cell_length_a       8.70748
_cell_length_b       10.8095
_cell_length_c       12.1238
_cell_angle_alpha    100.087
_cell_angle_beta     98.7758
_cell_angle_gamma    105.753

_space_group_name_H-M_alt    "P 1"
_space_group_IT_number       1

loop_
  _space_group_symop_operation_xyz
  'x, y, z'

loop_
  _atom_site_type_symbol
  _atom_site_label
  _atom_site_symmetry_multiplicity
  _atom_site_fract_x
  _atom_site_fract_y
  _atom_site_fract_z
  _atom_site_occupancy
  Ba  Ba1       1.0  0.27874  0.60478  0.00650  1.0000
  Ba  Ba2       1.0  0.72125  0.39522  0.99350  1.0000
  H   H1        1.0  0.48312  0.03532  0.16089  1.0000
  H   H2        1.0  0.51689  0.96467  0.83912  1.0000
  H   H3        1.0  0.27280  0.95173  0.09373  1.0000
  H   H4        1.0  0.72721  0.04826  0.90626  1.0000
  H   H5        1.0  0.61722  0.82470  0.95515  1.0000
  H   H6        1.0  0.38280  0.17529  0.04485  1.0000
  H   H7        1.0  0.68698  0.95863  0.07939  1.0000
  H   H8        1.0  0.31303  0.04137  0.92061  1.0000
  H   H9        1.0  0.52254  0.60112  0.81104  1.0000
  H   H10       1.0  0.47746  0.39888  0.18895  1.0000
  H   H11       1.0  0.34653  0.55716  0.73618  1.0000
  H   H12       1.0  0.65347  0.44285  0.26382  1.0000
  H   H13       1.0  0.05342  0.71443  0.17318  1.0000
  H   H14       1.0  0.94658  0.28557  0.82681  1.0000
  H   H15       1.0  0.22252  0.79088  0.25539  1.0000
  H   H16       1.0  0.77748  0.20912  0.74460  1.0000
  C   C1        1.0  0.26791  0.31986  0.83769  1.0000
  C   C2        1.0  0.73208  0.68015  0.16231  1.0000
  C   C3        1.0  0.24610  0.22609  0.71677  1.0000
  C   C4        1.0  0.75391  0.77391  0.28323  1.0000
  C   C5        1.0  0.14630  0.38993  0.15285  1.0000
  C   C6        1.0  0.85371  0.61007  0.84715  1.0000
  C   C7        1.0  0.08800  0.27025  0.21035  1.0000
  C   C8        1.0  0.91201  0.72975  0.78964  1.0000
  C   C9        1.0  0.39602  0.98827  0.07806  1.0000
  C   C10       1.0  0.60399  0.01173  0.92194  1.0000
  C   C11       1.0  0.59556  0.91435  0.99831  1.0000
  C   C12       1.0  0.40446  0.08565  0.00170  1.0000
  Cl  Cl1       1.0  0.07654  0.08281  0.69749  1.0000
  Cl  Cl2       1.0  0.92347  0.91718  0.30253  1.0000
  Cl  Cl3       1.0  0.42199  0.17702  0.70170  1.0000
  Cl  Cl4       1.0  0.57802  0.82298  0.29832  1.0000
  Cl  Cl5       1.0  0.20819  0.31534  0.60938  1.0000
  Cl  Cl6       1.0  0.79181  0.68464  0.39063  1.0000
  Cl  Cl7       1.0  0.23915  0.26759  0.32430  1.0000
  Cl  Cl8       1.0  0.76085  0.73243  0.67571  1.0000
  Cl  Cl9       1.0  0.90560  0.26996  0.25931  1.0000
  Cl  Cl10      1.0  0.09438  0.73004  0.74068  1.0000
  Cl  Cl11      1.0  0.04682  0.12609  0.09764  1.0000
  Cl  Cl12      1.0  0.95318  0.87392  0.90237  1.0000
  O   O1        1.0  0.43541  0.87446  0.02385  1.0000
  O   O2        1.0  0.56461  0.12555  0.97616  1.0000
  O   O3        1.0  0.14634  0.35847  0.85168  1.0000
  O   O4        1.0  0.85366  0.64152  0.14833  1.0000
  O   O5        1.0  0.40165  0.35158  0.90675  1.0000
  O   O6        1.0  0.59835  0.64843  0.09326  1.0000
  O   O7        1.0  0.29769  0.44088  0.16398  1.0000
  O   O8        1.0  0.70228  0.55911  0.83601  1.0000
  O   O9        1.0  0.03515  0.42104  0.09590  1.0000
  O   O10       1.0  0.96482  0.57896  0.90409  1.0000
  O   O11       1.0  0.41414  0.61577  0.80768  1.0000
  O   O12       1.0  0.58586  0.38423  0.19231  1.0000
  O   O13       1.0  0.17289  0.74909  0.17555  1.0000
  O   O14       1.0  0.82710  0.25091  0.82444  1.0000
