data_image0
_chemical_formula_structural       Zn2H18C30N12O8
_chemical_formula_sum              "Zn2 H18 C30 N12 O8"
_cell_length_a       7.38786
_cell_length_b       9.60822
_cell_length_c       10.7598
_cell_angle_alpha    106.178
_cell_angle_beta     92.196
_cell_angle_gamma    98.7138

_space_group_name_H-M_alt    "P 1"
_space_group_IT_number       1

loop_
  _space_group_symop_operation_xyz
  'x, y, z'

loop_
  _atom_site_type_symbol
  _atom_site_label
  _atom_site_symmetry_multiplicity
  _atom_site_fract_x
  _atom_site_fract_y
  _atom_site_fract_z
  _atom_site_occupancy
  Zn  Zn1       1.0  0.63397  0.22223  0.29986  1.0000
  Zn  Zn2       1.0  0.36602  0.77777  0.70014  1.0000
  H   H1        1.0  0.70307  0.29272  0.81587  1.0000
  H   H2        1.0  0.29693  0.70728  0.18413  1.0000
  H   H3        1.0  0.82409  0.75829  0.84995  1.0000
  H   H4        1.0  0.17592  0.24171  0.15005  1.0000
  H   H5        1.0  0.75513  0.60998  0.19165  1.0000
  H   H6        1.0  0.24487  0.39002  0.80835  1.0000
  H   H7        1.0  0.63392  0.25885  0.61000  1.0000
  H   H8        1.0  0.36609  0.74114  0.39001  1.0000
  H   H9        1.0  0.88293  0.70140  0.65385  1.0000
  H   H10       1.0  0.11707  0.29859  0.34615  1.0000
  H   H11       1.0  0.11874  0.92086  0.09439  1.0000
  H   H12       1.0  0.88126  0.07914  0.90561  1.0000
  H   H13       1.0  0.55435  0.87611  0.16329  1.0000
  H   H14       1.0  0.44565  0.12388  0.83671  1.0000
  H   H15       1.0  0.21245  0.24015  0.55831  1.0000
  H   H16       1.0  0.78755  0.75985  0.44169  1.0000
  H   H17       1.0  0.07312  0.78702  0.33049  1.0000
  H   H18       1.0  0.92688  0.21299  0.66952  1.0000
  C   C1        1.0  0.72531  0.43996  0.00889  1.0000
  C   C2        1.0  0.27469  0.56004  0.99111  1.0000
  C   C3        1.0  0.72932  0.40773  0.87407  1.0000
  C   C4        1.0  0.27068  0.59228  0.12593  1.0000
  C   C5        1.0  0.76308  0.52195  0.81690  1.0000
  C   C6        1.0  0.23692  0.47805  0.18310  1.0000
  C   C7        1.0  0.79778  0.66824  0.89320  1.0000
  C   C8        1.0  0.20223  0.33176  0.10680  1.0000
  C   C9        1.0  0.79700  0.69772  0.02737  1.0000
  C   C10       1.0  0.20301  0.30229  0.97263  1.0000
  C   C11       1.0  0.75915  0.58609  0.08679  1.0000
  C   C12       1.0  0.24085  0.41391  0.91320  1.0000
  C   C13       1.0  0.69313  0.36037  0.58872  1.0000
  C   C14       1.0  0.30687  0.63963  0.41128  1.0000
  C   C15       1.0  0.82231  0.58689  0.60948  1.0000
  C   C16       1.0  0.17769  0.41311  0.39052  1.0000
  C   C17       1.0  0.98850  0.94937  0.12934  1.0000
  C   C18       1.0  0.01150  0.05063  0.87066  1.0000
  C   C19       1.0  0.69819  0.92168  0.16567  1.0000
  C   C20       1.0  0.30180  0.07832  0.83433  1.0000
  C   C21       1.0  0.68201  0.31474  0.06855  1.0000
  C   C22       1.0  0.31799  0.68526  0.93145  1.0000
  C   C23       1.0  0.33469  0.02720  0.36955  1.0000
  C   C24       1.0  0.66530  0.97280  0.63045  1.0000
  C   C25       1.0  0.16266  0.01446  0.43799  1.0000
  C   C26       1.0  0.83734  0.98555  0.56202  1.0000
  C   C27       1.0  0.12007  0.13483  0.53315  1.0000
  C   C28       1.0  0.87993  0.86517  0.46685  1.0000
  C   C29       1.0  0.04145  0.88005  0.40597  1.0000
  C   C30       1.0  0.95855  0.11995  0.59403  1.0000
  N   N1        1.0  0.75983  0.49116  0.67943  1.0000
  N   N2        1.0  0.24017  0.50884  0.32057  1.0000
  N   N3        1.0  0.71672  0.37669  0.47224  1.0000
  N   N4        1.0  0.28328  0.62330  0.52776  1.0000
  N   N5        1.0  0.79707  0.51998  0.48439  1.0000
  N   N6        1.0  0.20293  0.48002  0.51561  1.0000
  N   N7        1.0  0.82809  0.84870  0.10441  1.0000
  N   N8        1.0  0.17191  0.15130  0.89559  1.0000
  N   N9        1.0  0.95835  0.07738  0.20207  1.0000
  N   N10       1.0  0.04165  0.92262  0.79793  1.0000
  N   N11       1.0  0.77526  0.05882  0.22505  1.0000
  N   N12       1.0  0.22474  0.94118  0.77495  1.0000
  O   O1        1.0  0.64802  0.35506  0.18933  1.0000
  O   O2        1.0  0.35198  0.64494  0.81067  1.0000
  O   O3        1.0  0.67979  0.18577  0.00001  1.0000
  O   O4        1.0  0.32021  0.81423  0.99999  1.0000
  O   O5        1.0  0.38974  0.15408  0.35138  1.0000
  O   O6        1.0  0.61026  0.84592  0.64861  1.0000
  O   O7        1.0  0.41245  0.91703  0.33370  1.0000
  O   O8        1.0  0.58754  0.08297  0.66630  1.0000
