data_image0
_chemical_formula_structural       Zn4H28C44N28O20
_chemical_formula_sum              "Zn4 H28 C44 N28 O20"
_cell_length_a       7.15637
_cell_length_b       11.778
_cell_length_c       16.9784
_cell_angle_alpha    90.0001
_cell_angle_beta     92.7606
_cell_angle_gamma    89.9997

_space_group_name_H-M_alt    "P 1"
_space_group_IT_number       1

loop_
  _space_group_symop_operation_xyz
  'x, y, z'

loop_
  _atom_site_type_symbol
  _atom_site_label
  _atom_site_symmetry_multiplicity
  _atom_site_fract_x
  _atom_site_fract_y
  _atom_site_fract_z
  _atom_site_occupancy
  Zn  Zn1       1.0  0.18667  0.07860  0.27267  1.0000
  Zn  Zn2       1.0  0.81333  0.57860  0.22733  1.0000
  Zn  Zn3       1.0  0.81332  0.92140  0.72733  1.0000
  Zn  Zn4       1.0  0.18668  0.42140  0.77267  1.0000
  H   H1        1.0  0.25532  0.37860  0.51922  1.0000
  H   H2        1.0  0.74469  0.87860  0.98078  1.0000
  H   H3        1.0  0.74469  0.62140  0.48078  1.0000
  H   H4        1.0  0.25532  0.12140  0.01922  1.0000
  H   H5        1.0  0.22032  0.73627  0.56325  1.0000
  H   H6        1.0  0.77969  0.23627  0.93676  1.0000
  H   H7        1.0  0.77969  0.26373  0.43675  1.0000
  H   H8        1.0  0.22032  0.76373  0.06325  1.0000
  H   H9        1.0  0.34389  0.61866  0.33089  1.0000
  H   H10       1.0  0.65610  0.11866  0.16911  1.0000
  H   H11       1.0  0.65610  0.38135  0.66911  1.0000
  H   H12       1.0  0.34389  0.88134  0.83089  1.0000
  H   H13       1.0  0.43769  0.47903  0.26315  1.0000
  H   H14       1.0  0.56232  0.97903  0.23685  1.0000
  H   H15       1.0  0.56231  0.52097  0.73685  1.0000
  H   H16       1.0  0.43769  0.02097  0.76315  1.0000
  H   H17       1.0  0.17533  0.25595  0.41996  1.0000
  H   H18       1.0  0.82467  0.75594  0.08004  1.0000
  H   H19       1.0  0.82467  0.74406  0.58004  1.0000
  H   H20       1.0  0.17533  0.24405  0.91996  1.0000
  H   H21       1.0  0.18836  0.79863  0.29649  1.0000
  H   H22       1.0  0.81164  0.29863  0.20351  1.0000
  H   H23       1.0  0.81164  0.20137  0.70351  1.0000
  H   H24       1.0  0.18836  0.70137  0.79649  1.0000
  H   H25       1.0  0.40893  0.88912  0.52520  1.0000
  H   H26       1.0  0.59107  0.38912  0.97480  1.0000
  H   H27       1.0  0.59106  0.11088  0.47480  1.0000
  H   H28       1.0  0.40893  0.61088  0.02520  1.0000
  C   C1        1.0  0.29450  0.48845  0.41793  1.0000
  C   C2        1.0  0.70551  0.98845  0.08207  1.0000
  C   C3        1.0  0.70551  0.51155  0.58207  1.0000
  C   C4        1.0  0.29449  0.01155  0.91793  1.0000
  C   C5        1.0  0.26105  0.46499  0.49666  1.0000
  C   C6        1.0  0.73896  0.96499  0.00334  1.0000
  C   C7        1.0  0.73895  0.53501  0.50334  1.0000
  C   C8        1.0  0.26104  0.03501  0.99666  1.0000
  C   C9        1.0  0.23616  0.55501  0.54880  1.0000
  C   C10       1.0  0.76385  0.05501  0.95120  1.0000
  C   C11       1.0  0.76385  0.44499  0.45120  1.0000
  C   C12       1.0  0.23615  0.94499  0.04880  1.0000
  C   C13       1.0  0.24607  0.66708  0.52272  1.0000
  C   C14       1.0  0.75394  0.16708  0.97728  1.0000
  C   C15       1.0  0.75393  0.33292  0.47728  1.0000
  C   C16       1.0  0.24607  0.83292  0.02272  1.0000
  C   C17       1.0  0.28687  0.68826  0.44467  1.0000
  C   C18       1.0  0.71314  0.18826  0.05533  1.0000
  C   C19       1.0  0.71314  0.31174  0.55532  1.0000
  C   C20       1.0  0.28686  0.81174  0.94468  1.0000
  C   C21       1.0  0.31310  0.60016  0.39156  1.0000
  C   C22       1.0  0.68690  0.10016  0.10844  1.0000
  C   C23       1.0  0.68690  0.39984  0.60844  1.0000
  C   C24       1.0  0.31310  0.89984  0.89156  1.0000
  C   C25       1.0  0.37899  0.40319  0.28833  1.0000
  C   C26       1.0  0.62101  0.90319  0.21167  1.0000
  C   C27       1.0  0.62100  0.59681  0.71167  1.0000
  C   C28       1.0  0.37900  0.09680  0.78833  1.0000
  C   C29       1.0  0.24588  0.28986  0.37015  1.0000
  C   C30       1.0  0.75412  0.78986  0.12985  1.0000
  C   C31       1.0  0.75412  0.71014  0.62985  1.0000
  C   C32       1.0  0.24588  0.21014  0.87015  1.0000
  C   C33       1.0  0.24377  0.84659  0.34693  1.0000
  C   C34       1.0  0.75623  0.34659  0.15307  1.0000
  C   C35       1.0  0.75623  0.15341  0.65307  1.0000
  C   C36       1.0  0.24377  0.65341  0.84693  1.0000
  C   C37       1.0  0.35526  0.89493  0.46436  1.0000
  C   C38       1.0  0.64474  0.39493  0.03564  1.0000
  C   C39       1.0  0.64473  0.10507  0.53564  1.0000
  C   C40       1.0  0.35526  0.60507  0.96436  1.0000
  C   C41       1.0  0.19808  0.53444  0.63396  1.0000
  C   C42       1.0  0.80192  0.03443  0.86604  1.0000
  C   C43       1.0  0.80192  0.46556  0.36604  1.0000
  C   C44       1.0  0.19808  0.96557  0.13396  1.0000
  N   N1        1.0  0.31049  0.39812  0.36292  1.0000
  N   N2        1.0  0.68951  0.89812  0.13708  1.0000
  N   N3        1.0  0.68951  0.60188  0.63708  1.0000
  N   N4        1.0  0.31049  0.10188  0.86292  1.0000
  N   N5        1.0  0.27543  0.23391  0.30464  1.0000
  N   N6        1.0  0.72456  0.73390  0.19536  1.0000
  N   N7        1.0  0.72456  0.76610  0.69536  1.0000
  N   N8        1.0  0.27545  0.26609  0.80464  1.0000
  N   N9        1.0  0.36036  0.30498  0.25241  1.0000
  N   N10       1.0  0.63963  0.80498  0.24759  1.0000
  N   N11       1.0  0.63963  0.69502  0.74759  1.0000
  N   N12       1.0  0.36038  0.19502  0.75241  1.0000
  N   N13       1.0  0.29740  0.80316  0.41898  1.0000
  N   N14       1.0  0.70260  0.30316  0.08102  1.0000
  N   N15       1.0  0.70260  0.19684  0.58102  1.0000
  N   N16       1.0  0.29740  0.69684  0.91898  1.0000
  N   N17       1.0  0.26801  0.95783  0.34934  1.0000
  N   N18       1.0  0.73199  0.45783  0.15066  1.0000
  N   N19       1.0  0.73198  0.04217  0.65066  1.0000
  N   N20       1.0  0.26802  0.54217  0.84934  1.0000
  N   N21       1.0  0.33905  0.98896  0.42321  1.0000
  N   N22       1.0  0.66094  0.48896  0.07679  1.0000
  N   N23       1.0  0.66093  0.01104  0.57679  1.0000
  N   N24       1.0  0.33906  0.51104  0.92321  1.0000
  N   N25       1.0  0.82943  0.10897  0.33247  1.0000
  N   N26       1.0  0.17056  0.60897  0.16754  1.0000
  N   N27       1.0  0.17056  0.89103  0.66753  1.0000
  N   N28       1.0  0.82944  0.39103  0.83246  1.0000
  O   O1        1.0  0.24491  0.43462  0.66075  1.0000
  O   O2        1.0  0.75510  0.93462  0.83925  1.0000
  O   O3        1.0  0.75510  0.56538  0.33925  1.0000
  O   O4        1.0  0.24490  0.06538  0.16075  1.0000
  O   O5        1.0  0.12899  0.61173  0.67379  1.0000
  O   O6        1.0  0.87101  0.11173  0.82621  1.0000
  O   O7        1.0  0.87101  0.38828  0.32621  1.0000
  O   O8        1.0  0.12898  0.88827  0.17379  1.0000
  O   O9        1.0  0.90367  0.09321  0.26418  1.0000
  O   O10       1.0  0.09633  0.59321  0.23582  1.0000
  O   O11       1.0  0.09633  0.90679  0.73582  1.0000
  O   O12       1.0  0.90368  0.40679  0.76417  1.0000
  O   O13       1.0  0.93483  0.11198  0.39350  1.0000
  O   O14       1.0  0.06516  0.61198  0.10650  1.0000
  O   O15       1.0  0.06516  0.88802  0.60650  1.0000
  O   O16       1.0  0.93484  0.38802  0.89350  1.0000
  O   O17       1.0  0.65620  0.12028  0.33292  1.0000
  O   O18       1.0  0.34379  0.62028  0.16708  1.0000
  O   O19       1.0  0.34379  0.87973  0.66708  1.0000
  O   O20       1.0  0.65621  0.37973  0.83292  1.0000
