data_image0
_chemical_formula_structural       Cd4H32C16N16Cl8
_chemical_formula_sum              "Cd4 H32 C16 N16 Cl8"
_cell_length_a       9.13992
_cell_length_b       9.14034
_cell_length_c       10.5676
_cell_angle_alpha    90.403
_cell_angle_beta     90.4032
_cell_angle_gamma    91.9269

_space_group_name_H-M_alt    "P 1"
_space_group_IT_number       1

loop_
  _space_group_symop_operation_xyz
  'x, y, z'

loop_
  _atom_site_type_symbol
  _atom_site_label
  _atom_site_symmetry_multiplicity
  _atom_site_fract_x
  _atom_site_fract_y
  _atom_site_fract_z
  _atom_site_occupancy
  Cd  Cd1       1.0  0.69467  0.30536  0.74998  1.0000
  Cd  Cd2       1.0  0.30536  0.69466  0.24997  1.0000
  Cd  Cd3       1.0  0.50000  0.50000  0.49999  1.0000
  Cd  Cd4       1.0  0.49998  0.49998  0.99998  1.0000
  H   H1        1.0  0.59146  0.96239  0.77190  1.0000
  H   H2        1.0  0.03771  0.40859  0.72814  1.0000
  H   H3        1.0  0.40860  0.03768  0.22810  1.0000
  H   H4        1.0  0.96237  0.59143  0.27191  1.0000
  H   H5        1.0  0.47821  0.82832  0.69145  1.0000
  H   H6        1.0  0.17173  0.52181  0.80857  1.0000
  H   H7        1.0  0.52185  0.17173  0.30856  1.0000
  H   H8        1.0  0.82827  0.47823  0.19151  1.0000
  H   H9        1.0  0.40763  0.92854  0.81956  1.0000
  H   H10       1.0  0.07151  0.59237  0.68048  1.0000
  H   H11       1.0  0.59241  0.07150  0.18044  1.0000
  H   H12       1.0  0.92853  0.40765  0.31957  1.0000
  H   H13       1.0  0.26065  0.83316  0.57336  1.0000
  H   H14       1.0  0.16678  0.73942  0.92634  1.0000
  H   H15       1.0  0.73944  0.16680  0.42632  1.0000
  H   H16       1.0  0.83315  0.26068  0.07338  1.0000
  H   H17       1.0  0.16435  0.93025  0.47637  1.0000
  H   H18       1.0  0.06996  0.83538  0.02379  1.0000
  H   H19       1.0  0.83540  0.06996  0.52380  1.0000
  H   H20       1.0  0.93022  0.16431  0.97642  1.0000
  H   H21       1.0  0.21899  0.31574  0.37434  1.0000
  H   H22       1.0  0.68420  0.78099  0.12564  1.0000
  H   H23       1.0  0.78101  0.68424  0.62565  1.0000
  H   H24       1.0  0.31570  0.21893  0.87437  1.0000
  H   H25       1.0  0.08713  0.23774  0.47904  1.0000
  H   H26       1.0  0.76224  0.91283  0.02094  1.0000
  H   H27       1.0  0.91285  0.76226  0.52097  1.0000
  H   H28       1.0  0.23769  0.08712  0.97907  1.0000
  H   H29       1.0  0.15996  0.12711  0.35667  1.0000
  H   H30       1.0  0.87283  0.84003  0.14332  1.0000
  H   H31       1.0  0.84003  0.87284  0.64332  1.0000
  H   H32       1.0  0.12711  0.15993  0.85675  1.0000
  C   C1        1.0  0.43466  0.05252  0.65023  1.0000
  C   C2        1.0  0.94749  0.56533  0.84974  1.0000
  C   C3        1.0  0.56535  0.94748  0.34974  1.0000
  C   C4        1.0  0.05251  0.43467  0.15027  1.0000
  C   C5        1.0  0.30599  0.17612  0.51166  1.0000
  C   C6        1.0  0.82392  0.69401  0.98830  1.0000
  C   C7        1.0  0.69402  0.82392  0.48832  1.0000
  C   C8        1.0  0.17607  0.30595  0.01173  1.0000
  C   C9        1.0  0.48017  0.93662  0.73720  1.0000
  C   C10       1.0  0.06342  0.51986  0.76282  1.0000
  C   C11       1.0  0.51989  0.06342  0.26279  1.0000
  C   C12       1.0  0.93660  0.48016  0.23722  1.0000
  C   C13       1.0  0.18660  0.21580  0.42478  1.0000
  C   C14       1.0  0.78418  0.81336  0.07520  1.0000
  C   C15       1.0  0.81336  0.78420  0.57521  1.0000
  C   C16       1.0  0.21575  0.18661  0.92485  1.0000
  N   N1        1.0  0.50102  0.18265  0.63365  1.0000
  N   N2        1.0  0.81736  0.49896  0.86634  1.0000
  N   N3        1.0  0.49899  0.81734  0.36632  1.0000
  N   N4        1.0  0.18264  0.50103  0.13366  1.0000
  N   N5        1.0  0.31314  0.04538  0.57354  1.0000
  N   N6        1.0  0.95466  0.68681  0.92646  1.0000
  N   N7        1.0  0.68685  0.95466  0.42645  1.0000
  N   N8        1.0  0.04531  0.31316  0.07358  1.0000
  N   N9        1.0  0.42167  0.25872  0.54737  1.0000
  N   N10       1.0  0.74132  0.57833  0.95263  1.0000
  N   N11       1.0  0.57836  0.74130  0.45261  1.0000
  N   N12       1.0  0.25868  0.42164  0.04739  1.0000
  N   N13       1.0  0.20797  0.93051  0.56673  1.0000
  N   N14       1.0  0.06945  0.79203  0.93332  1.0000
  N   N15       1.0  0.79208  0.06948  0.43332  1.0000
  N   N16       1.0  0.93048  0.20796  0.06677  1.0000
  Cl  Cl1       1.0  0.76858  0.41043  0.52851  1.0000
  Cl  Cl2       1.0  0.58958  0.23142  0.97145  1.0000
  Cl  Cl3       1.0  0.23144  0.58962  0.47146  1.0000
  Cl  Cl4       1.0  0.41042  0.76855  0.02849  1.0000
  Cl  Cl5       1.0  0.47286  0.52716  0.74999  1.0000
  Cl  Cl6       1.0  0.52715  0.47285  0.24999  1.0000
  Cl  Cl7       1.0  0.88730  0.11273  0.74998  1.0000
  Cl  Cl8       1.0  0.11274  0.88731  0.24996  1.0000
