data_image0
_chemical_formula_structural       Ni2H46C38S2N12O12
_chemical_formula_sum              "Ni2 H46 C38 S2 N12 O12"
_cell_length_a       8.59213
_cell_length_b       11.6109
_cell_length_c       12.877
_cell_angle_alpha    85.7991
_cell_angle_beta     79
_cell_angle_gamma    73.7372

_space_group_name_H-M_alt    "P 1"
_space_group_IT_number       1

loop_
  _space_group_symop_operation_xyz
  'x, y, z'

loop_
  _atom_site_type_symbol
  _atom_site_label
  _atom_site_symmetry_multiplicity
  _atom_site_fract_x
  _atom_site_fract_y
  _atom_site_fract_z
  _atom_site_occupancy
  Ni  Ni1       1.0  0.04828  0.26304  0.69863  1.0000
  Ni  Ni2       1.0  0.95171  0.73695  0.30137  1.0000
  H   H1        1.0  0.85173  0.27599  0.55655  1.0000
  H   H2        1.0  0.14827  0.72401  0.44345  1.0000
  H   H3        1.0  0.72641  0.26465  0.66348  1.0000
  H   H4        1.0  0.27359  0.73535  0.33651  1.0000
  H   H5        1.0  0.20838  0.41405  0.62120  1.0000
  H   H6        1.0  0.79161  0.58595  0.37880  1.0000
  H   H7        1.0  0.37147  0.96293  0.21672  1.0000
  H   H8        1.0  0.62855  0.03707  0.78328  1.0000
  H   H9        1.0  0.32814  0.24800  0.97919  1.0000
  H   H10       1.0  0.67186  0.75200  0.02081  1.0000
  H   H11       1.0  0.52652  0.27621  0.25606  1.0000
  H   H12       1.0  0.47348  0.72379  0.74394  1.0000
  H   H13       1.0  0.55523  0.96358  0.34204  1.0000
  H   H14       1.0  0.44477  0.03642  0.65797  1.0000
  H   H15       1.0  0.58771  0.10065  0.37464  1.0000
  H   H16       1.0  0.41229  0.89936  0.62538  1.0000
  H   H17       1.0  0.21465  0.08558  0.96375  1.0000
  H   H18       1.0  0.78536  0.91442  0.03626  1.0000
  H   H19       1.0  0.35472  0.95077  0.99610  1.0000
  H   H20       1.0  0.64529  0.04923  0.00390  1.0000
  H   H21       1.0  0.53843  0.42082  0.11100  1.0000
  H   H22       1.0  0.46157  0.57918  0.88901  1.0000
  H   H23       1.0  0.48792  0.39357  0.98794  1.0000
  H   H24       1.0  0.51208  0.60643  0.01206  1.0000
  H   H25       1.0  0.27335  0.92540  0.41380  1.0000
  H   H26       1.0  0.72664  0.07460  0.58620  1.0000
  H   H27       1.0  0.03394  0.02484  0.58928  1.0000
  H   H28       1.0  0.96606  0.97515  0.41072  1.0000
  H   H29       1.0  0.36910  0.23544  0.51159  1.0000
  H   H30       1.0  0.63090  0.76456  0.48843  1.0000
  H   H31       1.0  0.92545  0.14939  0.09231  1.0000
  H   H32       1.0  0.07456  0.85061  0.90769  1.0000
  H   H33       1.0  0.76042  0.00659  0.22856  1.0000
  H   H34       1.0  0.23957  0.99341  0.77144  1.0000
  H   H35       1.0  0.25714  0.81213  0.14215  1.0000
  H   H36       1.0  0.74286  0.18786  0.85785  1.0000
  H   H37       1.0  0.20126  0.49454  0.95125  1.0000
  H   H38       1.0  0.79875  0.50546  0.04874  1.0000
  H   H39       1.0  0.93358  0.66498  0.06584  1.0000
  H   H40       1.0  0.06643  0.33502  0.93415  1.0000
  H   H41       1.0  0.29698  0.53474  0.25539  1.0000
  H   H42       1.0  0.70302  0.46526  0.74460  1.0000
  H   H43       1.0  0.06818  0.37067  0.46087  1.0000
  H   H44       1.0  0.93181  0.62933  0.53913  1.0000
  H   H45       1.0  0.18633  0.47466  0.45982  1.0000
  H   H46       1.0  0.81367  0.52534  0.54017  1.0000
  C   C1        1.0  0.45046  0.11496  0.24762  1.0000
  C   C2        1.0  0.54955  0.88503  0.75239  1.0000
  C   C3        1.0  0.38245  0.05193  0.18850  1.0000
  C   C4        1.0  0.61755  0.94807  0.81150  1.0000
  C   C5        1.0  0.33462  0.10029  0.09317  1.0000
  C   C6        1.0  0.66539  0.89971  0.90683  1.0000
  C   C7        1.0  0.35888  0.21094  0.05562  1.0000
  C   C8        1.0  0.64113  0.78906  0.94438  1.0000
  C   C9        1.0  0.42793  0.27445  0.11422  1.0000
  C   C10       1.0  0.57207  0.72555  0.88578  1.0000
  C   C11       1.0  0.47282  0.22647  0.21036  1.0000
  C   C12       1.0  0.52719  0.77353  0.78964  1.0000
  C   C13       1.0  0.49894  0.06059  0.35067  1.0000
  C   C14       1.0  0.50106  0.93942  0.64933  1.0000
  C   C15       1.0  0.26158  0.03091  0.03001  1.0000
  C   C16       1.0  0.73842  0.96909  0.97000  1.0000
  C   C17       1.0  0.44814  0.39543  0.07405  1.0000
  C   C18       1.0  0.55187  0.60457  0.92595  1.0000
  C   C19       1.0  0.25181  0.00496  0.45972  1.0000
  C   C20       1.0  0.74818  0.99504  0.54027  1.0000
  C   C21       1.0  0.13635  0.05526  0.54544  1.0000
  C   C22       1.0  0.86365  0.94474  0.45456  1.0000
  C   C23       1.0  0.30630  0.16686  0.50837  1.0000
  C   C24       1.0  0.69369  0.83314  0.49163  1.0000
  C   C25       1.0  0.96767  0.05933  0.12429  1.0000
  C   C26       1.0  0.03233  0.94067  0.87571  1.0000
  C   C27       1.0  0.88851  0.98845  0.19233  1.0000
  C   C28       1.0  0.11149  0.01155  0.80767  1.0000
  C   C29       1.0  0.14208  0.88231  0.14691  1.0000
  C   C30       1.0  0.85791  0.11769  0.85309  1.0000
  C   C31       1.0  0.17821  0.52961  0.03033  1.0000
  C   C32       1.0  0.82179  0.47039  0.96967  1.0000
  C   C33       1.0  0.04937  0.61312  0.08715  1.0000
  C   C34       1.0  0.95064  0.38688  0.91285  1.0000
  C   C35       1.0  0.23165  0.54732  0.18951  1.0000
  C   C36       1.0  0.76835  0.45268  0.81048  1.0000
  C   C37       1.0  0.07690  0.44822  0.50199  1.0000
  C   C38       1.0  0.92310  0.55177  0.49800  1.0000
  S   S1        1.0  0.40739  0.30435  0.73588  1.0000
  S   S2        1.0  0.59261  0.69565  0.26413  1.0000
  N   N1        1.0  0.17185  0.15571  0.57493  1.0000
  N   N2        1.0  0.82815  0.84429  0.42508  1.0000
  N   N3        1.0  0.35819  0.07684  0.43773  1.0000
  N   N4        1.0  0.64180  0.92316  0.56227  1.0000
  N   N5        1.0  0.99830  0.87882  0.20638  1.0000
  N   N6        1.0  0.00169  0.12118  0.79362  1.0000
  N   N7        1.0  0.12789  0.99032  0.09557  1.0000
  N   N8        1.0  0.87211  0.00968  0.90443  1.0000
  N   N9        1.0  0.08442  0.62306  0.18579  1.0000
  N   N10       1.0  0.91558  0.37694  0.81420  1.0000
  N   N11       1.0  0.29264  0.48959  0.09647  1.0000
  N   N12       1.0  0.70737  0.51042  0.90352  1.0000
  O   O1        1.0  0.28119  0.23332  0.75454  1.0000
  O   O2        1.0  0.71881  0.76667  0.24547  1.0000
  O   O3        1.0  0.82832  0.29308  0.63147  1.0000
  O   O4        1.0  0.17168  0.70692  0.36853  1.0000
  O   O5        1.0  0.57500  0.21544  0.71047  1.0000
  O   O6        1.0  0.42500  0.78456  0.28953  1.0000
  O   O7        1.0  0.39704  0.37075  0.83153  1.0000
  O   O8        1.0  0.60296  0.62925  0.16847  1.0000
  O   O9        1.0  0.38288  0.38732  0.64209  1.0000
  O   O10       1.0  0.61710  0.61268  0.35792  1.0000
  O   O11       1.0  0.09194  0.41789  0.60985  1.0000
  O   O12       1.0  0.90805  0.58210  0.39015  1.0000
