data_image0
_chemical_formula_structural       Sb2H22C18N2O4F6
_chemical_formula_sum              "Sb2 H22 C18 N2 O4 F6"
_cell_length_a       5.86724
_cell_length_b       6.08343
_cell_length_c       15.4826
_cell_angle_alpha    90.0004
_cell_angle_beta     90.9425
_cell_angle_gamma    90.0006

_space_group_name_H-M_alt    "P 1"
_space_group_IT_number       1

loop_
  _space_group_symop_operation_xyz
  'x, y, z'

loop_
  _atom_site_type_symbol
  _atom_site_label
  _atom_site_symmetry_multiplicity
  _atom_site_fract_x
  _atom_site_fract_y
  _atom_site_fract_z
  _atom_site_occupancy
  Sb  Sb1       1.0  0.92555  0.98453  0.91132  1.0000
  Sb  Sb2       1.0  0.07446  0.48452  0.08868  1.0000
  H   H1        1.0  0.49171  0.29254  0.83237  1.0000
  H   H2        1.0  0.50830  0.79254  0.16763  1.0000
  H   H3        1.0  0.45817  0.41392  0.92664  1.0000
  H   H4        1.0  0.54186  0.91391  0.07336  1.0000
  H   H5        1.0  0.66217  0.50666  0.85772  1.0000
  H   H6        1.0  0.33785  0.00666  0.14227  1.0000
  H   H7        1.0  0.04932  0.57067  0.61679  1.0000
  H   H8        1.0  0.95067  0.07067  0.38322  1.0000
  H   H9        1.0  0.02152  0.26356  0.51220  1.0000
  H   H10       1.0  0.97846  0.76355  0.48781  1.0000
  H   H11       1.0  0.33959  0.99018  0.50257  1.0000
  H   H12       1.0  0.66036  0.49019  0.49743  1.0000
  H   H13       1.0  0.67997  0.02954  0.59850  1.0000
  H   H14       1.0  0.32001  0.52956  0.40149  1.0000
  H   H15       1.0  0.71133  0.33938  0.70092  1.0000
  H   H16       1.0  0.28867  0.83939  0.29908  1.0000
  H   H17       1.0  0.27840  0.79705  0.71032  1.0000
  H   H18       1.0  0.72160  0.29705  0.28968  1.0000
  H   H19       1.0  0.56549  0.73376  0.73379  1.0000
  H   H20       1.0  0.43453  0.23377  0.26621  1.0000
  H   H21       1.0  0.33462  0.74822  0.86352  1.0000
  H   H22       1.0  0.66540  0.24821  0.13648  1.0000
  C   C1        1.0  0.18839  0.45203  0.61254  1.0000
  C   C2        1.0  0.81159  0.95203  0.38746  1.0000
  C   C3        1.0  0.17239  0.27848  0.55387  1.0000
  C   C4        1.0  0.82759  0.77848  0.44614  1.0000
  C   C5        1.0  0.34915  0.12542  0.54863  1.0000
  C   C6        1.0  0.65082  0.62543  0.45136  1.0000
  C   C7        1.0  0.54125  0.14800  0.60242  1.0000
  C   C8        1.0  0.45872  0.64802  0.39758  1.0000
  C   C9        1.0  0.55812  0.32316  0.66043  1.0000
  C   C10       1.0  0.44187  0.82317  0.33957  1.0000
  C   C11       1.0  0.38089  0.47709  0.66642  1.0000
  C   C12       1.0  0.61910  0.97710  0.33358  1.0000
  C   C13       1.0  0.39338  0.66327  0.73040  1.0000
  C   C14       1.0  0.60663  0.16328  0.26960  1.0000
  C   C15       1.0  0.32818  0.59992  0.82336  1.0000
  C   C16       1.0  0.67184  0.09991  0.17664  1.0000
  C   C17       1.0  0.09107  0.49597  0.82592  1.0000
  C   C18       1.0  0.90895  0.99596  0.17408  1.0000
  N   N1        1.0  0.49540  0.44428  0.86248  1.0000
  N   N2        1.0  0.50462  0.94427  0.13752  1.0000
  O   O1        1.0  0.92031  0.62603  0.83288  1.0000
  O   O2        1.0  0.07970  0.12603  0.16712  1.0000
  O   O3        1.0  0.07778  0.29027  0.81790  1.0000
  O   O4        1.0  0.92224  0.79027  0.18210  1.0000
  F   F1        1.0  0.65657  0.01972  0.83425  1.0000
  F   F2        1.0  0.34345  0.51971  0.16575  1.0000
  F   F3        1.0  0.72086  0.80147  0.98546  1.0000
  F   F4        1.0  0.27914  0.30146  0.01454  1.0000
  F   F5        1.0  0.80023  0.23565  0.98210  1.0000
  F   F6        1.0  0.19978  0.73565  0.01790  1.0000
