data_image0
_chemical_formula_structural       Ag4H32C40S4O14
_chemical_formula_sum              "Ag4 H32 C40 S4 O14"
_cell_length_a       5.18408
_cell_length_b       11.4905
_cell_length_c       16.0438
_cell_angle_alpha    97.4613
_cell_angle_beta     90.0001
_cell_angle_gamma    90.0002

_space_group_name_H-M_alt    "P 1"
_space_group_IT_number       1

loop_
  _space_group_symop_operation_xyz
  'x, y, z'

loop_
  _atom_site_type_symbol
  _atom_site_label
  _atom_site_symmetry_multiplicity
  _atom_site_fract_x
  _atom_site_fract_y
  _atom_site_fract_z
  _atom_site_occupancy
  Ag  Ag1       1.0  0.12517  0.37418  0.14479  1.0000
  Ag  Ag2       1.0  0.87482  0.87418  0.14479  1.0000
  Ag  Ag3       1.0  0.56670  0.53784  0.15213  1.0000
  Ag  Ag4       1.0  0.43329  0.03784  0.15211  1.0000
  H   H1        1.0  0.61502  0.28378  0.19567  1.0000
  H   H2        1.0  0.38497  0.78379  0.19568  1.0000
  H   H3        1.0  0.61301  0.26611  0.09779  1.0000
  H   H4        1.0  0.38700  0.76610  0.09780  1.0000
  H   H5        1.0  0.74976  0.79774  0.39268  1.0000
  H   H6        1.0  0.25022  0.29773  0.39268  1.0000
  H   H7        1.0  0.74586  0.84161  0.54819  1.0000
  H   H8        1.0  0.25413  0.34161  0.54819  1.0000
  H   H9        1.0  0.06049  0.74314  0.63390  1.0000
  H   H10       1.0  0.93949  0.24314  0.63389  1.0000
  H   H11       1.0  0.41861  0.60797  0.64220  1.0000
  H   H12       1.0  0.58137  0.10797  0.64219  1.0000
  H   H13       1.0  0.73619  0.46439  0.57297  1.0000
  H   H14       1.0  0.26376  0.96440  0.57296  1.0000
  H   H15       1.0  0.74027  0.41770  0.41698  1.0000
  H   H16       1.0  0.25970  0.91771  0.41696  1.0000
  H   H17       1.0  0.43269  0.51096  0.33065  1.0000
  H   H18       1.0  0.56729  0.01096  0.33063  1.0000
  H   H19       1.0  0.76093  0.67165  0.88347  1.0000
  H   H20       1.0  0.23911  0.17165  0.88346  1.0000
  H   H21       1.0  0.75788  0.61088  0.72882  1.0000
  H   H22       1.0  0.24215  0.11087  0.72882  1.0000
  H   H23       1.0  0.07065  0.46155  0.66431  1.0000
  H   H24       1.0  0.92936  0.96156  0.66430  1.0000
  H   H25       1.0  0.42886  0.32797  0.67748  1.0000
  H   H26       1.0  0.57113  0.82798  0.67747  1.0000
  H   H27       1.0  0.74900  0.23863  0.76608  1.0000
  H   H28       1.0  0.25101  0.73864  0.76607  1.0000
  H   H29       1.0  0.75301  0.29687  0.92079  1.0000
  H   H30       1.0  0.24703  0.79686  0.92078  1.0000
  H   H31       1.0  0.44141  0.43868  0.98801  1.0000
  H   H32       1.0  0.55863  0.93867  0.98800  1.0000
  C   C1        1.0  0.06099  0.67531  0.39007  1.0000
  C   C2        1.0  0.93899  0.17531  0.39006  1.0000
  C   C3        1.0  0.88676  0.75460  0.42994  1.0000
  C   C4        1.0  0.11320  0.25460  0.42994  1.0000
  C   C5        1.0  0.88650  0.77917  0.51840  1.0000
  C   C6        1.0  0.11349  0.27917  0.51840  1.0000
  C   C7        1.0  0.06051  0.72476  0.56539  1.0000
  C   C8        1.0  0.93947  0.22475  0.56538  1.0000
  C   C9        1.0  0.24213  0.64284  0.52608  1.0000
  C   C10       1.0  0.75784  0.14285  0.52607  1.0000
  C   C11       1.0  0.42256  0.58669  0.57401  1.0000
  C   C12       1.0  0.57741  0.08669  0.57400  1.0000
  C   C13       1.0  0.59805  0.50698  0.53565  1.0000
  C   C14       1.0  0.40191  0.00697  0.53563  1.0000
  C   C15       1.0  0.59977  0.47994  0.44724  1.0000
  C   C16       1.0  0.40019  0.97994  0.44723  1.0000
  C   C17       1.0  0.42666  0.53259  0.39862  1.0000
  C   C18       1.0  0.57330  0.03260  0.39860  1.0000
  C   C19       1.0  0.24419  0.61564  0.43594  1.0000
  C   C20       1.0  0.75579  0.11563  0.43593  1.0000
  C   C21       1.0  0.06896  0.55594  0.90579  1.0000
  C   C22       1.0  0.93107  0.05594  0.90579  1.0000
  C   C23       1.0  0.89594  0.60543  0.85519  1.0000
  C   C24       1.0  0.10408  0.10543  0.85519  1.0000
  C   C25       1.0  0.89555  0.57066  0.76760  1.0000
  C   C26       1.0  0.10447  0.07066  0.76759  1.0000
  C   C27       1.0  0.06853  0.48779  0.73209  1.0000
  C   C28       1.0  0.93150  0.98779  0.73209  1.0000
  C   C29       1.0  0.24942  0.43561  0.78229  1.0000
  C   C30       1.0  0.75059  0.93562  0.78228  1.0000
  C   C31       1.0  0.43055  0.35152  0.74560  1.0000
  C   C32       1.0  0.56946  0.85152  0.74559  1.0000
  C   C33       1.0  0.60799  0.30215  0.79449  1.0000
  C   C34       1.0  0.39203  0.80214  0.79448  1.0000
  C   C35       1.0  0.60984  0.33445  0.88243  1.0000
  C   C36       1.0  0.39018  0.83446  0.88242  1.0000
  C   C37       1.0  0.43461  0.41482  0.92026  1.0000
  C   C38       1.0  0.56542  0.91483  0.92025  1.0000
  C   C39       1.0  0.25124  0.46887  0.87203  1.0000
  C   C40       1.0  0.74877  0.96887  0.87202  1.0000
  S   S1        1.0  0.04677  0.64771  0.27855  1.0000
  S   S2        1.0  0.95323  0.14771  0.27854  1.0000
  S   S3        1.0  0.05273  0.60552  0.01565  1.0000
  S   S4        1.0  0.94731  0.10552  0.01564  1.0000
  O   O1        1.0  0.96310  0.52415  0.25838  1.0000
  O   O2        1.0  0.03689  0.02416  0.25837  1.0000
  O   O3        1.0  0.86388  0.73151  0.25028  1.0000
  O   O4        1.0  0.13611  0.23152  0.25027  1.0000
  O   O5        1.0  0.31489  0.66628  0.24950  1.0000
  O   O6        1.0  0.68511  0.16628  0.24948  1.0000
  O   O7        1.0  0.32276  0.63058  0.04345  1.0000
  O   O8        1.0  0.67727  0.13058  0.04344  1.0000
  O   O9        1.0  0.94065  0.50669  0.05493  1.0000
  O   O10       1.0  0.05937  0.00668  0.05492  1.0000
  O   O11       1.0  0.89033  0.71047  0.02561  1.0000
  O   O12       1.0  0.10973  0.21046  0.02560  1.0000
  O   O13       1.0  0.59277  0.32819  0.14687  1.0000
  O   O14       1.0  0.40723  0.82818  0.14687  1.0000
