data_image0
_chemical_formula_structural       Pr4H24C24N8O32
_chemical_formula_sum              "Pr4 H24 C24 N8 O32"
_cell_length_a       7.65331
_cell_length_b       8.11592
_cell_length_c       17.2838
_cell_angle_alpha    89.9999
_cell_angle_beta     90.0002
_cell_angle_gamma    108.425

_space_group_name_H-M_alt    "P 1"
_space_group_IT_number       1

loop_
  _space_group_symop_operation_xyz
  'x, y, z'

loop_
  _atom_site_type_symbol
  _atom_site_label
  _atom_site_symmetry_multiplicity
  _atom_site_fract_x
  _atom_site_fract_y
  _atom_site_fract_z
  _atom_site_occupancy
  Pr  Pr1       1.0  0.31499  0.76712  0.58276  1.0000
  Pr  Pr2       1.0  0.68502  0.73288  0.08276  1.0000
  Pr  Pr3       1.0  0.68501  0.23288  0.41724  1.0000
  Pr  Pr4       1.0  0.31499  0.26712  0.91724  1.0000
  H   H1        1.0  0.16729  0.03313  0.60115  1.0000
  H   H2        1.0  0.83271  0.46687  0.10116  1.0000
  H   H3        1.0  0.83270  0.96687  0.39884  1.0000
  H   H4        1.0  0.16729  0.53313  0.89884  1.0000
  H   H5        1.0  0.24459  0.09546  0.51903  1.0000
  H   H6        1.0  0.75541  0.40454  0.01903  1.0000
  H   H7        1.0  0.75540  0.90454  0.48097  1.0000
  H   H8        1.0  0.24459  0.59546  0.98097  1.0000
  H   H9        1.0  0.82687  0.88366  0.64500  1.0000
  H   H10       1.0  0.17313  0.61634  0.14500  1.0000
  H   H11       1.0  0.17312  0.11633  0.35501  1.0000
  H   H12       1.0  0.82687  0.38366  0.85501  1.0000
  H   H13       1.0  0.95192  0.89676  0.78219  1.0000
  H   H14       1.0  0.04809  0.60324  0.28219  1.0000
  H   H15       1.0  0.04808  0.10325  0.21781  1.0000
  H   H16       1.0  0.95191  0.39675  0.71781  1.0000
  H   H17       1.0  0.90701  0.50618  0.58178  1.0000
  H   H18       1.0  0.09299  0.99382  0.08178  1.0000
  H   H19       1.0  0.09298  0.49382  0.41822  1.0000
  H   H20       1.0  0.90702  0.00619  0.91822  1.0000
  H   H21       1.0  0.92509  0.65915  0.52537  1.0000
  H   H22       1.0  0.07491  0.84084  0.02537  1.0000
  H   H23       1.0  0.07491  0.34085  0.47464  1.0000
  H   H24       1.0  0.92509  0.15916  0.97464  1.0000
  C   C1        1.0  0.81085  0.82565  0.76538  1.0000
  C   C2        1.0  0.18915  0.67435  0.26538  1.0000
  C   C3        1.0  0.18915  0.17434  0.23462  1.0000
  C   C4        1.0  0.81085  0.32565  0.73462  1.0000
  C   C5        1.0  0.66142  0.71930  0.80729  1.0000
  C   C6        1.0  0.33859  0.78069  0.30729  1.0000
  C   C7        1.0  0.33858  0.28069  0.19271  1.0000
  C   C8        1.0  0.66141  0.21930  0.69271  1.0000
  C   C9        1.0  0.66723  0.68302  0.89118  1.0000
  C   C10       1.0  0.33278  0.81697  0.39118  1.0000
  C   C11       1.0  0.33277  0.31697  0.10882  1.0000
  C   C12       1.0  0.66723  0.18303  0.60882  1.0000
  C   C13       1.0  0.51503  0.66529  0.75222  1.0000
  C   C14       1.0  0.48497  0.83471  0.25222  1.0000
  C   C15       1.0  0.48497  0.33471  0.24778  1.0000
  C   C16       1.0  0.51503  0.16529  0.74778  1.0000
  C   C17       1.0  0.31591  0.55733  0.75450  1.0000
  C   C18       1.0  0.68410  0.94268  0.25450  1.0000
  C   C19       1.0  0.68409  0.44268  0.24550  1.0000
  C   C20       1.0  0.31590  0.05733  0.74550  1.0000
  C   C21       1.0  0.41297  0.42270  0.50991  1.0000
  C   C22       1.0  0.58703  0.07730  0.00991  1.0000
  C   C23       1.0  0.58703  0.57730  0.49009  1.0000
  C   C24       1.0  0.41297  0.92271  0.99009  1.0000
  N   N1        1.0  0.75134  0.82942  0.69224  1.0000
  N   N2        1.0  0.24866  0.67058  0.19224  1.0000
  N   N3        1.0  0.24866  0.17057  0.30776  1.0000
  N   N4        1.0  0.75134  0.32942  0.80776  1.0000
  N   N5        1.0  0.57319  0.73718  0.68297  1.0000
  N   N6        1.0  0.42682  0.76282  0.18297  1.0000
  N   N7        1.0  0.42682  0.26282  0.31704  1.0000
  N   N8        1.0  0.57318  0.23718  0.81704  1.0000
  O   O1        1.0  0.21719  0.57751  0.69844  1.0000
  O   O2        1.0  0.78281  0.92249  0.19844  1.0000
  O   O3        1.0  0.78281  0.42249  0.30156  1.0000
  O   O4        1.0  0.21718  0.07751  0.80156  1.0000
  O   O5        1.0  0.25446  0.45218  0.80987  1.0000
  O   O6        1.0  0.74555  0.04784  0.30987  1.0000
  O   O7        1.0  0.74555  0.54782  0.19013  1.0000
  O   O8        1.0  0.25444  0.95219  0.69012  1.0000
  O   O9        1.0  0.56559  0.54041  0.91902  1.0000
  O   O10       1.0  0.43441  0.95959  0.41902  1.0000
  O   O11       1.0  0.43441  0.45959  0.08098  1.0000
  O   O12       1.0  0.56559  0.04041  0.58098  1.0000
  O   O13       1.0  0.77714  0.79799  0.93440  1.0000
  O   O14       1.0  0.22287  0.70200  0.43440  1.0000
  O   O15       1.0  0.22287  0.20201  0.06560  1.0000
  O   O16       1.0  0.77712  0.29800  0.56560  1.0000
  O   O17       1.0  0.16207  0.99300  0.54739  1.0000
  O   O18       1.0  0.83792  0.50700  0.04740  1.0000
  O   O19       1.0  0.83793  0.00700  0.45260  1.0000
  O   O20       1.0  0.16207  0.49300  0.95260  1.0000
  O   O21       1.0  0.28573  0.45354  0.54763  1.0000
  O   O22       1.0  0.71427  0.04646  0.04762  1.0000
  O   O23       1.0  0.71426  0.54647  0.45237  1.0000
  O   O24       1.0  0.28575  0.95354  0.95237  1.0000
  O   O25       1.0  0.41110  0.27431  0.48571  1.0000
  O   O26       1.0  0.58889  0.22569  0.98571  1.0000
  O   O27       1.0  0.58889  0.72569  0.51429  1.0000
  O   O28       1.0  0.41112  0.77431  0.01429  1.0000
  O   O29       1.0  0.97272  0.63334  0.57509  1.0000
  O   O30       1.0  0.02728  0.86666  0.07508  1.0000
  O   O31       1.0  0.02727  0.36666  0.42492  1.0000
  O   O32       1.0  0.97273  0.13334  0.92492  1.0000
