data_image0
_chemical_formula_structural       Sm4H24C24N8O32
_chemical_formula_sum              "Sm4 H24 C24 N8 O32"
_cell_length_a       7.59537
_cell_length_b       7.99096
_cell_length_c       17.2326
_cell_angle_alpha    90
_cell_angle_beta     89.9998
_cell_angle_gamma    108.248

_space_group_name_H-M_alt    "P 1"
_space_group_IT_number       1

loop_
  _space_group_symop_operation_xyz
  'x, y, z'

loop_
  _atom_site_type_symbol
  _atom_site_label
  _atom_site_symmetry_multiplicity
  _atom_site_fract_x
  _atom_site_fract_y
  _atom_site_fract_z
  _atom_site_occupancy
  Sm  Sm1       1.0  0.31440  0.26063  0.91499  1.0000
  Sm  Sm2       1.0  0.68560  0.23937  0.41499  1.0000
  Sm  Sm3       1.0  0.68560  0.73936  0.08501  1.0000
  Sm  Sm4       1.0  0.31440  0.76064  0.58501  1.0000
  H   H1        1.0  0.94771  0.40047  0.71626  1.0000
  H   H2        1.0  0.05230  0.09954  0.21627  1.0000
  H   H3        1.0  0.05229  0.59953  0.28374  1.0000
  H   H4        1.0  0.94771  0.90048  0.78373  1.0000
  H   H5        1.0  0.82204  0.38590  0.85394  1.0000
  H   H6        1.0  0.17797  0.11410  0.35395  1.0000
  H   H7        1.0  0.17796  0.61410  0.14606  1.0000
  H   H8        1.0  0.82204  0.88589  0.64605  1.0000
  H   H9        1.0  0.93228  0.16386  0.97408  1.0000
  H   H10       1.0  0.06771  0.33613  0.47408  1.0000
  H   H11       1.0  0.06770  0.83614  0.02592  1.0000
  H   H12       1.0  0.93228  0.66386  0.52592  1.0000
  H   H13       1.0  0.90697  0.00225  0.92020  1.0000
  H   H14       1.0  0.09303  0.49775  0.42020  1.0000
  H   H15       1.0  0.09303  0.99774  0.07980  1.0000
  H   H16       1.0  0.90697  0.50225  0.57980  1.0000
  H   H17       1.0  0.25040  0.58709  0.98343  1.0000
  H   H18       1.0  0.74959  0.91291  0.48343  1.0000
  H   H19       1.0  0.74958  0.41291  0.01657  1.0000
  H   H20       1.0  0.25041  0.08709  0.51657  1.0000
  H   H21       1.0  0.16287  0.52730  0.90226  1.0000
  H   H22       1.0  0.83713  0.97269  0.40226  1.0000
  H   H23       1.0  0.83713  0.47270  0.09774  1.0000
  H   H24       1.0  0.16287  0.02731  0.59774  1.0000
  C   C1        1.0  0.80592  0.32753  0.73313  1.0000
  C   C2        1.0  0.19408  0.17246  0.23313  1.0000
  C   C3        1.0  0.19409  0.67246  0.26687  1.0000
  C   C4        1.0  0.80593  0.82754  0.76687  1.0000
  C   C5        1.0  0.65614  0.21864  0.69128  1.0000
  C   C6        1.0  0.34386  0.28136  0.19128  1.0000
  C   C7        1.0  0.34387  0.78137  0.30872  1.0000
  C   C8        1.0  0.65615  0.71865  0.80872  1.0000
  C   C9        1.0  0.50975  0.16165  0.74673  1.0000
  C   C10       1.0  0.49026  0.33835  0.24674  1.0000
  C   C11       1.0  0.49022  0.83832  0.25327  1.0000
  C   C12       1.0  0.50976  0.66167  0.75327  1.0000
  C   C13       1.0  0.31031  0.05025  0.74515  1.0000
  C   C14       1.0  0.68970  0.44976  0.24514  1.0000
  C   C15       1.0  0.68970  0.94974  0.25485  1.0000
  C   C16       1.0  0.31030  0.55027  0.75485  1.0000
  C   C17       1.0  0.65932  0.17880  0.60740  1.0000
  C   C18       1.0  0.34068  0.32120  0.10740  1.0000
  C   C19       1.0  0.34068  0.82120  0.39261  1.0000
  C   C20       1.0  0.65932  0.67880  0.89261  1.0000
  C   C21       1.0  0.41310  0.92132  0.99044  1.0000
  C   C22       1.0  0.58689  0.57867  0.49044  1.0000
  C   C23       1.0  0.58690  0.07866  0.00957  1.0000
  C   C24       1.0  0.41309  0.42133  0.50957  1.0000
  N   N1        1.0  0.74641  0.32996  0.80668  1.0000
  N   N2        1.0  0.25361  0.17004  0.30669  1.0000
  N   N3        1.0  0.25358  0.67004  0.19332  1.0000
  N   N4        1.0  0.74641  0.82995  0.69332  1.0000
  N   N5        1.0  0.56787  0.23463  0.81616  1.0000
  N   N6        1.0  0.43213  0.26538  0.31616  1.0000
  N   N7        1.0  0.43213  0.76536  0.18382  1.0000
  N   N8        1.0  0.56787  0.73462  0.68383  1.0000
  O   O1        1.0  0.21266  0.06985  0.80229  1.0000
  O   O2        1.0  0.78734  0.43015  0.30229  1.0000
  O   O3        1.0  0.78734  0.93013  0.19770  1.0000
  O   O4        1.0  0.21266  0.56987  0.69771  1.0000
  O   O5        1.0  0.28581  0.95059  0.95108  1.0000
  O   O6        1.0  0.71420  0.54940  0.45108  1.0000
  O   O7        1.0  0.71418  0.04941  0.04892  1.0000
  O   O8        1.0  0.28581  0.45059  0.54892  1.0000
  O   O9        1.0  0.97776  0.13068  0.92502  1.0000
  O   O10       1.0  0.02224  0.36932  0.42502  1.0000
  O   O11       1.0  0.02224  0.86932  0.07498  1.0000
  O   O12       1.0  0.97775  0.63068  0.57498  1.0000
  O   O13       1.0  0.16640  0.48362  0.95518  1.0000
  O   O14       1.0  0.83359  0.01638  0.45518  1.0000
  O   O15       1.0  0.83359  0.51639  0.04482  1.0000
  O   O16       1.0  0.16639  0.98362  0.54483  1.0000
  O   O17       1.0  0.24730  0.94357  0.68978  1.0000
  O   O18       1.0  0.75271  0.55643  0.18978  1.0000
  O   O19       1.0  0.75270  0.05642  0.31022  1.0000
  O   O20       1.0  0.24731  0.44358  0.81021  1.0000
  O   O21       1.0  0.55726  0.03188  0.58203  1.0000
  O   O22       1.0  0.44273  0.46812  0.08203  1.0000
  O   O23       1.0  0.44272  0.96812  0.41798  1.0000
  O   O24       1.0  0.55728  0.53188  0.91798  1.0000
  O   O25       1.0  0.76627  0.29404  0.56233  1.0000
  O   O26       1.0  0.23373  0.20596  0.06233  1.0000
  O   O27       1.0  0.23373  0.70598  0.43768  1.0000
  O   O28       1.0  0.76627  0.79404  0.93767  1.0000
  O   O29       1.0  0.41170  0.77253  0.01688  1.0000
  O   O30       1.0  0.58830  0.72746  0.51688  1.0000
  O   O31       1.0  0.58830  0.22745  0.98313  1.0000
  O   O32       1.0  0.41170  0.27254  0.48312  1.0000
