data_image0
_chemical_formula_structural       Nd4H24C24N8O32
_chemical_formula_sum              "Nd4 H24 C24 N8 O32"
_cell_length_a       7.68013
_cell_length_b       8.09943
_cell_length_c       17.2369
_cell_angle_alpha    89.9999
_cell_angle_beta     90
_cell_angle_gamma    108.893

_space_group_name_H-M_alt    "P 1"
_space_group_IT_number       1

loop_
  _space_group_symop_operation_xyz
  'x, y, z'

loop_
  _atom_site_type_symbol
  _atom_site_label
  _atom_site_symmetry_multiplicity
  _atom_site_fract_x
  _atom_site_fract_y
  _atom_site_fract_z
  _atom_site_occupancy
  Nd  Nd1       1.0  0.18521  0.23732  0.91671  1.0000
  Nd  Nd2       1.0  0.81480  0.26269  0.41671  1.0000
  Nd  Nd3       1.0  0.81479  0.76268  0.08329  1.0000
  Nd  Nd4       1.0  0.18521  0.73732  0.58329  1.0000
  H   H1        1.0  0.55229  0.09555  0.71702  1.0000
  H   H2        1.0  0.44771  0.40446  0.21702  1.0000
  H   H3        1.0  0.44771  0.90445  0.28297  1.0000
  H   H4        1.0  0.55228  0.59555  0.78297  1.0000
  H   H5        1.0  0.67935  0.10542  0.85415  1.0000
  H   H6        1.0  0.32064  0.39459  0.35415  1.0000
  H   H7        1.0  0.32064  0.89459  0.14584  1.0000
  H   H8        1.0  0.67936  0.60541  0.64584  1.0000
  H   H9        1.0  0.57240  0.33847  0.97238  1.0000
  H   H10       1.0  0.42760  0.16152  0.47238  1.0000
  H   H11       1.0  0.42760  0.66153  0.02762  1.0000
  H   H12       1.0  0.57240  0.83847  0.52762  1.0000
  H   H13       1.0  0.59298  0.49736  0.91867  1.0000
  H   H14       1.0  0.40702  0.00264  0.41866  1.0000
  H   H15       1.0  0.40702  0.50264  0.08133  1.0000
  H   H16       1.0  0.59299  0.99736  0.58133  1.0000
  H   H17       1.0  0.33482  0.97471  0.89931  1.0000
  H   H18       1.0  0.66517  0.52529  0.39931  1.0000
  H   H19       1.0  0.66517  0.02529  0.10069  1.0000
  H   H20       1.0  0.33483  0.47471  0.60069  1.0000
  H   H21       1.0  0.25241  0.90916  0.98080  1.0000
  H   H22       1.0  0.74760  0.59084  0.48080  1.0000
  H   H23       1.0  0.74758  0.09084  0.01920  1.0000
  H   H24       1.0  0.25242  0.40916  0.51920  1.0000
  C   C1        1.0  0.69312  0.16875  0.73392  1.0000
  C   C2        1.0  0.30687  0.33125  0.23392  1.0000
  C   C3        1.0  0.30688  0.83125  0.26608  1.0000
  C   C4        1.0  0.69312  0.66875  0.76608  1.0000
  C   C5        1.0  0.84116  0.27986  0.69233  1.0000
  C   C6        1.0  0.15884  0.22014  0.19233  1.0000
  C   C7        1.0  0.15885  0.72014  0.30767  1.0000
  C   C8        1.0  0.84115  0.77985  0.80767  1.0000
  C   C9        1.0  0.83596  0.31895  0.60854  1.0000
  C   C10       1.0  0.16404  0.18105  0.10854  1.0000
  C   C11       1.0  0.16404  0.68105  0.39146  1.0000
  C   C12       1.0  0.83595  0.81895  0.89146  1.0000
  C   C13       1.0  0.98699  0.33652  0.74767  1.0000
  C   C14       1.0  0.01301  0.16348  0.24767  1.0000
  C   C15       1.0  0.01301  0.66348  0.25233  1.0000
  C   C16       1.0  0.98699  0.83652  0.75233  1.0000
  C   C17       1.0  0.18521  0.44872  0.74588  1.0000
  C   C18       1.0  0.81479  0.05128  0.24588  1.0000
  C   C19       1.0  0.81479  0.55129  0.25412  1.0000
  C   C20       1.0  0.18520  0.94871  0.75412  1.0000
  C   C21       1.0  0.08691  0.57818  0.99029  1.0000
  C   C22       1.0  0.91309  0.92182  0.49029  1.0000
  C   C23       1.0  0.91308  0.42182  0.00971  1.0000
  C   C24       1.0  0.08692  0.07818  0.50971  1.0000
  N   N1        1.0  0.93006  0.26153  0.81675  1.0000
  N   N2        1.0  0.06994  0.23847  0.31675  1.0000
  N   N3        1.0  0.06994  0.73848  0.18325  1.0000
  N   N4        1.0  0.93006  0.76152  0.68325  1.0000
  N   N5        1.0  0.75309  0.16489  0.80715  1.0000
  N   N6        1.0  0.24691  0.33511  0.30715  1.0000
  N   N7        1.0  0.24691  0.83511  0.19285  1.0000
  N   N8        1.0  0.75309  0.66489  0.69285  1.0000
  O   O1        1.0  0.28333  0.43009  0.80248  1.0000
  O   O2        1.0  0.71666  0.06991  0.30248  1.0000
  O   O3        1.0  0.71667  0.56990  0.19752  1.0000
  O   O4        1.0  0.28333  0.93009  0.69752  1.0000
  O   O5        1.0  0.24676  0.55479  0.69046  1.0000
  O   O6        1.0  0.75324  0.94521  0.19046  1.0000
  O   O7        1.0  0.75325  0.44522  0.30954  1.0000
  O   O8        1.0  0.24675  0.05478  0.80954  1.0000
  O   O9        1.0  0.93682  0.46424  0.58197  1.0000
  O   O10       1.0  0.06317  0.03576  0.08197  1.0000
  O   O11       1.0  0.06318  0.53576  0.41803  1.0000
  O   O12       1.0  0.93682  0.96424  0.91803  1.0000
  O   O13       1.0  0.72758  0.20381  0.56433  1.0000
  O   O14       1.0  0.27244  0.29619  0.06433  1.0000
  O   O15       1.0  0.27243  0.79619  0.43567  1.0000
  O   O16       1.0  0.72757  0.70381  0.93567  1.0000
  O   O17       1.0  0.21476  0.54827  0.95300  1.0000
  O   O18       1.0  0.78524  0.95173  0.45300  1.0000
  O   O19       1.0  0.78524  0.45173  0.04701  1.0000
  O   O20       1.0  0.21476  0.04827  0.54701  1.0000
  O   O21       1.0  0.08773  0.72675  0.01434  1.0000
  O   O22       1.0  0.91227  0.77325  0.51435  1.0000
  O   O23       1.0  0.91227  0.27325  0.98566  1.0000
  O   O24       1.0  0.08773  0.22675  0.48565  1.0000
  O   O25       1.0  0.52455  0.36943  0.92369  1.0000
  O   O26       1.0  0.47545  0.13057  0.42369  1.0000
  O   O27       1.0  0.47545  0.63057  0.07631  1.0000
  O   O28       1.0  0.52455  0.86943  0.57631  1.0000
  O   O29       1.0  0.33603  0.01327  0.95329  1.0000
  O   O30       1.0  0.66397  0.48673  0.45329  1.0000
  O   O31       1.0  0.66396  0.98673  0.04671  1.0000
  O   O32       1.0  0.33604  0.51327  0.54671  1.0000
