data_image0
_chemical_formula_structural       CuH18C22S4N10O14
_chemical_formula_sum              "Cu1 H18 C22 S4 N10 O14"
_cell_length_a       8.35818
_cell_length_b       9.96256
_cell_length_c       10.3797
_cell_angle_alpha    109.548
_cell_angle_beta     98.2861
_cell_angle_gamma    102.351

_space_group_name_H-M_alt    "P 1"
_space_group_IT_number       1

loop_
  _space_group_symop_operation_xyz
  'x, y, z'

loop_
  _atom_site_type_symbol
  _atom_site_label
  _atom_site_symmetry_multiplicity
  _atom_site_fract_x
  _atom_site_fract_y
  _atom_site_fract_z
  _atom_site_occupancy
  Cu  Cu1       1.0  1.00000  1.00000  1.00000  1.0000
  H   H1        1.0  0.70362  0.40402  0.08892  1.0000
  H   H2        1.0  0.29638  0.59598  0.91108  1.0000
  H   H3        1.0  0.20013  0.68979  0.31549  1.0000
  H   H4        1.0  0.79987  0.31021  0.68451  1.0000
  H   H5        1.0  0.67199  0.91235  0.06018  1.0000
  H   H6        1.0  0.32801  0.08765  0.93982  1.0000
  H   H7        1.0  0.60605  0.05396  0.17869  1.0000
  H   H8        1.0  0.39395  0.94604  0.82131  1.0000
  H   H9        1.0  0.61071  0.89166  0.21193  1.0000
  H   H10       1.0  0.38929  0.10834  0.78807  1.0000
  H   H11       1.0  0.56654  0.31733  0.58040  1.0000
  H   H12       1.0  0.43346  0.68267  0.41960  1.0000
  H   H13       1.0  0.44748  0.19002  0.41010  1.0000
  H   H14       1.0  0.55253  0.80999  0.58990  1.0000
  H   H15       1.0  0.36814  0.40266  0.36134  1.0000
  H   H16       1.0  0.63187  0.59735  0.63866  1.0000
  H   H17       1.0  0.58586  0.41895  0.38855  1.0000
  H   H18       1.0  0.41414  0.58106  0.61145  1.0000
  C   C1        1.0  0.79691  0.58742  0.02870  1.0000
  C   C2        1.0  0.20309  0.41258  0.97130  1.0000
  C   C3        1.0  0.80732  0.50020  0.10662  1.0000
  C   C4        1.0  0.19268  0.49980  0.89338  1.0000
  C   C5        1.0  0.95185  0.54083  0.21292  1.0000
  C   C6        1.0  0.04815  0.45917  0.78708  1.0000
  C   C7        1.0  0.08593  0.66228  0.23591  1.0000
  C   C8        1.0  0.91408  0.33772  0.76409  1.0000
  C   C9        1.0  0.07739  0.74657  0.15365  1.0000
  C   C10       1.0  0.92261  0.25342  0.84634  1.0000
  C   C11       1.0  0.92917  0.71687  0.04588  1.0000
  C   C12       1.0  0.07083  0.28313  0.95412  1.0000
  C   C13       1.0  0.67567  0.97076  0.17108  1.0000
  C   C14       1.0  0.32433  0.02924  0.82892  1.0000
  C   C15       1.0  0.85203  0.04332  0.25304  1.0000
  C   C16       1.0  0.14797  0.95668  0.74696  1.0000
  C   C17       1.0  0.11788  0.17631  0.42369  1.0000
  C   C18       1.0  0.88212  0.82369  0.57632  1.0000
  C   C19       1.0  0.45984  0.29645  0.49414  1.0000
  C   C20       1.0  0.54016  0.70356  0.50586  1.0000
  C   C21       1.0  0.48119  0.42361  0.44194  1.0000
  C   C22       1.0  0.51882  0.57639  0.55806  1.0000
  S   S1        1.0  0.90963  0.11677  0.43424  1.0000
  S   S2        1.0  0.09037  0.88323  0.56576  1.0000
  S   S3        1.0  0.27977  0.26766  0.57318  1.0000
  S   S4        1.0  0.72023  0.73234  0.42682  1.0000
  N   N1        1.0  0.64288  0.54253  0.91989  1.0000
  N   N2        1.0  0.35712  0.45747  0.08011  1.0000
  N   N3        1.0  0.96309  0.45249  0.29864  1.0000
  N   N4        1.0  0.03691  0.54751  0.70136  1.0000
  N   N5        1.0  0.23028  0.86203  0.17658  1.0000
  N   N6        1.0  0.76972  0.13797  0.82342  1.0000
  N   N7        1.0  0.98468  0.06445  0.19944  1.0000
  N   N8        1.0  0.01532  0.93555  0.80056  1.0000
  N   N9        1.0  0.13518  0.14019  0.29360  1.0000
  N   N10       1.0  0.86482  0.85981  0.70640  1.0000
  O   O1        1.0  0.90839  0.78878  0.96664  1.0000
  O   O2        1.0  0.09161  0.21122  0.03336  1.0000
  O   O3        1.0  0.58148  0.63946  0.90270  1.0000
  O   O4        1.0  0.41852  0.36053  0.09730  1.0000
  O   O5        1.0  0.58048  0.40650  0.85103  1.0000
  O   O6        1.0  0.41952  0.59350  0.14897  1.0000
  O   O7        1.0  0.83624  0.35072  0.28071  1.0000
  O   O8        1.0  0.16376  0.64928  0.71929  1.0000
  O   O9        1.0  0.09873  0.48405  0.38443  1.0000
  O   O10       1.0  0.90127  0.51595  0.61557  1.0000
  O   O11       1.0  0.33500  0.90811  0.29061  1.0000
  O   O12       1.0  0.66500  0.09189  0.70938  1.0000
  O   O13       1.0  0.25054  0.90680  0.07955  1.0000
  O   O14       1.0  0.74946  0.09320  0.92045  1.0000
