data_image0
_chemical_formula_structural       CuH14C20S4N10O14
_chemical_formula_sum              "Cu1 H14 C20 S4 N10 O14"
_cell_length_a       8.8314
_cell_length_b       9.19832
_cell_length_c       10.6034
_cell_angle_alpha    67.4112
_cell_angle_beta     86.294
_cell_angle_gamma    71.104

_space_group_name_H-M_alt    "P 1"
_space_group_IT_number       1

loop_
  _space_group_symop_operation_xyz
  'x, y, z'

loop_
  _atom_site_type_symbol
  _atom_site_label
  _atom_site_symmetry_multiplicity
  _atom_site_fract_x
  _atom_site_fract_y
  _atom_site_fract_z
  _atom_site_occupancy
  Cu  Cu1       1.0  0.00000  1.00000  0.00000  1.0000
  H   H1        1.0  0.08224  0.16509  0.16854  1.0000
  H   H2        1.0  0.91776  0.83491  0.83146  1.0000
  H   H3        1.0  0.26493  0.15408  0.23917  1.0000
  H   H4        1.0  0.73507  0.84592  0.76083  1.0000
  H   H5        1.0  0.16702  0.00449  0.32900  1.0000
  H   H6        1.0  0.83298  0.99550  0.67100  1.0000
  H   H7        1.0  0.47311  0.66107  0.86941  1.0000
  H   H8        1.0  0.52689  0.33893  0.13059  1.0000
  H   H9        1.0  0.64865  0.48135  0.91452  1.0000
  H   H10       1.0  0.35135  0.51865  0.08548  1.0000
  H   H11       1.0  0.35293  0.23256  0.45111  1.0000
  H   H12       1.0  0.64707  0.76744  0.54889  1.0000
  H   H13       1.0  0.10951  0.58403  0.63291  1.0000
  H   H14       1.0  0.89049  0.41597  0.36709  1.0000
  C   C1        1.0  0.19521  0.08030  0.22745  1.0000
  C   C2        1.0  0.80479  0.91970  0.77255  1.0000
  C   C3        1.0  0.28666  0.96974  0.15806  1.0000
  C   C4        1.0  0.71334  0.03026  0.84195  1.0000
  C   C5        1.0  0.47847  0.77147  0.08074  1.0000
  C   C6        1.0  0.52153  0.22852  0.91926  1.0000
  C   C7        1.0  0.54803  0.55360  0.95484  1.0000
  C   C8        1.0  0.45196  0.44640  0.04516  1.0000
  C   C9        1.0  0.11318  0.17694  0.72896  1.0000
  C   C10       1.0  0.88682  0.82306  0.27104  1.0000
  C   C11       1.0  0.21234  0.14888  0.62081  1.0000
  C   C12       1.0  0.78766  0.85113  0.37919  1.0000
  C   C13       1.0  0.27236  0.26347  0.52597  1.0000
  C   C14       1.0  0.72764  0.73654  0.47403  1.0000
  C   C15       1.0  0.23102  0.42229  0.53003  1.0000
  C   C16       1.0  0.76898  0.57771  0.46997  1.0000
  C   C17       1.0  0.13773  0.46108  0.63013  1.0000
  C   C18       1.0  0.86227  0.53893  0.36987  1.0000
  C   C19       1.0  0.08136  0.34212  0.72840  1.0000
  C   C20       1.0  0.91863  0.65788  0.27160  1.0000
  S   S1        1.0  0.48993  0.86615  0.19171  1.0000
  S   S2        1.0  0.51007  0.13385  0.80829  1.0000
  S   S3        1.0  0.64509  0.62760  0.05228  1.0000
  S   S4        1.0  0.35491  0.37240  0.94773  1.0000
  N   N1        1.0  0.22708  0.93092  0.06908  1.0000
  N   N2        1.0  0.77292  0.06908  0.93092  1.0000
  N   N3        1.0  0.33341  0.81947  0.02398  1.0000
  N   N4        1.0  0.66659  0.18053  0.97602  1.0000
  N   N5        1.0  0.26216  0.98016  0.62107  1.0000
  N   N6        1.0  0.73784  0.01984  0.37893  1.0000
  N   N7        1.0  0.28764  0.54836  0.42819  1.0000
  N   N8        1.0  0.71235  0.45164  0.57180  1.0000
  N   N9        1.0  0.98352  0.39667  0.82746  1.0000
  N   N10       1.0  0.01648  0.60333  0.17253  1.0000
  O   O1        1.0  0.06613  0.05955  0.81088  1.0000
  O   O2        1.0  0.93388  0.94045  0.18913  1.0000
  O   O3        1.0  0.40929  0.90636  0.63132  1.0000
  O   O4        1.0  0.59072  0.09364  0.36868  1.0000
  O   O5        1.0  0.15665  0.92301  0.61232  1.0000
  O   O6        1.0  0.84335  0.07699  0.38768  1.0000
  O   O7        1.0  0.37042  0.51021  0.33889  1.0000
  O   O8        1.0  0.62958  0.48979  0.66111  1.0000
  O   O9        1.0  0.24898  0.68787  0.43466  1.0000
  O   O10       1.0  0.75102  0.31213  0.56533  1.0000
  O   O11       1.0  0.92140  0.54880  0.79751  1.0000
  O   O12       1.0  0.07860  0.45120  0.20248  1.0000
  O   O13       1.0  0.96550  0.29081  0.93894  1.0000
  O   O14       1.0  0.03450  0.70919  0.06106  1.0000
