data_image0
_chemical_formula_structural       CuH20C26S8N14O14
_chemical_formula_sum              "Cu1 H20 C26 S8 N14 O14"
_cell_length_a       8.57214
_cell_length_b       11.3973
_cell_length_c       11.6883
_cell_angle_alpha    66.7085
_cell_angle_beta     71.4921
_cell_angle_gamma    75.1527

_space_group_name_H-M_alt    "P 1"
_space_group_IT_number       1

loop_
  _space_group_symop_operation_xyz
  'x, y, z'

loop_
  _atom_site_type_symbol
  _atom_site_label
  _atom_site_symmetry_multiplicity
  _atom_site_fract_x
  _atom_site_fract_y
  _atom_site_fract_z
  _atom_site_occupancy
  Cu  Cu1       1.0  0.50000  0.00000  0.50000  1.0000
  H   H1        1.0  0.13330  0.14019  0.48167  1.0000
  H   H2        1.0  0.86669  0.85981  0.51833  1.0000
  H   H3        1.0  0.20560  0.65442  0.89547  1.0000
  H   H4        1.0  0.79440  0.34559  0.10453  1.0000
  H   H5        1.0  0.27135  0.73285  0.97419  1.0000
  H   H6        1.0  0.72865  0.26716  0.02581  1.0000
  H   H7        1.0  0.00248  0.55337  0.10412  1.0000
  H   H8        1.0  0.99752  0.44663  0.89588  1.0000
  H   H9        1.0  0.06267  0.63622  0.17950  1.0000
  H   H10       1.0  0.93733  0.36378  0.82050  1.0000
  H   H11       1.0  0.50395  0.90399  0.29378  1.0000
  H   H12       1.0  0.49605  0.09601  0.70622  1.0000
  H   H13       1.0  0.19712  0.41735  0.24537  1.0000
  H   H14       1.0  0.80288  0.58265  0.75463  1.0000
  H   H15       1.0  0.35605  0.51298  0.13951  1.0000
  H   H16       1.0  0.64395  0.48702  0.86049  1.0000
  H   H17       1.0  0.73935  0.54929  0.25118  1.0000
  H   H18       1.0  0.26065  0.45071  0.74883  1.0000
  H   H19       1.0  0.20233  0.60928  0.35818  1.0000
  H   H20       1.0  0.79768  0.39072  0.64182  1.0000
  C   C1        1.0  0.13274  0.06448  0.57450  1.0000
  C   C2        1.0  0.86726  0.93552  0.42550  1.0000
  C   C3        1.0  0.07983  0.91398  0.78838  1.0000
  C   C4        1.0  0.92017  0.08601  0.21162  1.0000
  C   C5        1.0  0.16770  0.69254  0.97467  1.0000
  C   C6        1.0  0.83230  0.30746  0.02533  1.0000
  C   C7        1.0  0.10792  0.59127  0.10475  1.0000
  C   C8        1.0  0.89208  0.40873  0.89525  1.0000
  C   C9        1.0  0.45678  0.00651  0.26035  1.0000
  C   C10       1.0  0.54322  0.99349  0.73965  1.0000
  C   C11       1.0  0.36312  0.22869  0.15665  1.0000
  C   C12       1.0  0.63688  0.77131  0.84335  1.0000
  C   C13       1.0  0.24352  0.47894  0.14630  1.0000
  C   C14       1.0  0.75648  0.52106  0.85370  1.0000
  C   C15       1.0  0.47492  0.32476  0.45804  1.0000
  C   C16       1.0  0.52508  0.67524  0.54196  1.0000
  C   C17       1.0  0.62555  0.38265  0.38265  1.0000
  C   C18       1.0  0.37445  0.61735  0.61735  1.0000
  C   C19       1.0  0.62361  0.51053  0.30428  1.0000
  C   C20       1.0  0.37639  0.48947  0.69572  1.0000
  C   C21       1.0  0.47172  0.59116  0.29489  1.0000
  C   C22       1.0  0.52828  0.40884  0.70512  1.0000
  C   C23       1.0  0.31996  0.54494  0.36480  1.0000
  C   C24       1.0  0.68004  0.45506  0.63520  1.0000
  C   C25       1.0  0.32385  0.41845  0.44455  1.0000
  C   C26       1.0  0.67615  0.58155  0.55545  1.0000
  S   S1        1.0  0.95649  0.03662  0.69474  1.0000
  S   S2        1.0  0.04351  0.96338  0.30526  1.0000
  S   S3        1.0  0.99482  0.82292  0.94441  1.0000
  S   S4        1.0  0.00518  0.17708  0.05559  1.0000
  S   S5        1.0  0.42476  0.09156  0.11110  1.0000
  S   S6        1.0  0.57524  0.90844  0.88890  1.0000
  S   S7        1.0  0.30144  0.37649  0.04840  1.0000
  S   S8        1.0  0.69856  0.62351  0.95160  1.0000
  N   N1        1.0  0.26607  0.98681  0.60664  1.0000
  N   N2        1.0  0.73393  0.01319  0.39336  1.0000
  N   N3        1.0  0.23842  0.89914  0.72826  1.0000
  N   N4        1.0  0.76158  0.10086  0.27174  1.0000
  N   N5        1.0  0.42300  0.07728  0.33290  1.0000
  N   N6        1.0  0.57700  0.92272  0.66709  1.0000
  N   N7        1.0  0.36930  0.20510  0.27547  1.0000
  N   N8        1.0  0.63070  0.79490  0.72453  1.0000
  N   N9        1.0  0.78694  0.30426  0.38891  1.0000
  N   N10       1.0  0.21305  0.69574  0.61109  1.0000
  N   N11       1.0  0.47094  0.72219  0.20972  1.0000
  N   N12       1.0  0.52906  0.27781  0.79028  1.0000
  N   N13       1.0  0.16657  0.37161  0.51890  1.0000
  N   N14       1.0  0.83343  0.62839  0.48111  1.0000
  O   O1        1.0  0.79937  0.21486  0.49152  1.0000
  O   O2        1.0  0.20063  0.78514  0.50847  1.0000
  O   O3        1.0  0.90511  0.33073  0.29210  1.0000
  O   O4        1.0  0.09489  0.66927  0.70790  1.0000
  O   O5        1.0  0.60609  0.76639  0.16050  1.0000
  O   O6        1.0  0.39391  0.23361  0.83950  1.0000
  O   O7        1.0  0.33574  0.78683  0.18598  1.0000
  O   O8        1.0  0.66426  0.21317  0.81402  1.0000
  O   O9        1.0  0.05866  0.39048  0.46039  1.0000
  O   O10       1.0  0.94135  0.60951  0.53961  1.0000
  O   O11       1.0  0.14955  0.31428  0.63596  1.0000
  O   O12       1.0  0.85045  0.68572  0.36404  1.0000
  O   O13       1.0  0.47113  0.20754  0.52304  1.0000
  O   O14       1.0  0.52888  0.79246  0.47696  1.0000
