data_image0
_chemical_formula_structural       Cd2H14C14N2O14
_chemical_formula_sum              "Cd2 H14 C14 N2 O14"
_cell_length_a       7.05844
_cell_length_b       7.0997
_cell_length_c       11.0458
_cell_angle_alpha    105.582
_cell_angle_beta     98.3676
_cell_angle_gamma    112.717

_space_group_name_H-M_alt    "P 1"
_space_group_IT_number       1

loop_
  _space_group_symop_operation_xyz
  'x, y, z'

loop_
  _atom_site_type_symbol
  _atom_site_label
  _atom_site_symmetry_multiplicity
  _atom_site_fract_x
  _atom_site_fract_y
  _atom_site_fract_z
  _atom_site_occupancy
  Cd  Cd1       1.0  0.28229  0.56929  0.51768  1.0000
  Cd  Cd2       1.0  0.71770  0.43071  0.48232  1.0000
  H   H1        1.0  0.26327  0.30416  0.68242  1.0000
  H   H2        1.0  0.73672  0.69584  0.31757  1.0000
  H   H3        1.0  0.14572  0.44940  0.73396  1.0000
  H   H4        1.0  0.85428  0.55060  0.26604  1.0000
  H   H5        1.0  0.47917  0.84405  0.37915  1.0000
  H   H6        1.0  0.52082  0.15595  0.62085  1.0000
  H   H7        1.0  0.24472  0.66573  0.29352  1.0000
  H   H8        1.0  0.75527  0.33426  0.70648  1.0000
  H   H9        1.0  0.51140  0.15845  0.21009  1.0000
  H   H10       1.0  0.48860  0.84156  0.78991  1.0000
  H   H11       1.0  0.29976  0.84705  0.99986  1.0000
  H   H12       1.0  0.70025  0.15296  0.00014  1.0000
  H   H13       1.0  0.72073  0.76489  0.11112  1.0000
  H   H14       1.0  0.27927  0.23511  0.88888  1.0000
  C   C1        1.0  0.88256  0.08631  0.33922  1.0000
  C   C2        1.0  0.11743  0.91368  0.66077  1.0000
  C   C3        1.0  0.00963  0.02755  0.25140  1.0000
  C   C4        1.0  0.99036  0.97245  0.74860  1.0000
  C   C5        1.0  0.23914  0.13978  0.28299  1.0000
  C   C6        1.0  0.76086  0.86022  0.71702  1.0000
  C   C7        1.0  0.33831  0.06959  0.18801  1.0000
  C   C8        1.0  0.66170  0.93042  0.81200  1.0000
  C   C9        1.0  0.22194  0.89968  0.07087  1.0000
  C   C10       1.0  0.77807  0.10033  0.92914  1.0000
  C   C11       1.0  0.99805  0.78966  0.04407  1.0000
  C   C12       1.0  0.00196  0.21035  0.95594  1.0000
  C   C13       1.0  0.89411  0.85328  0.13406  1.0000
  C   C14       1.0  0.10589  0.14671  0.86593  1.0000
  N   N1        1.0  0.87351  0.60866  0.92601  1.0000
  N   N2        1.0  0.12650  0.39134  0.07398  1.0000
  O   O1        1.0  0.93526  0.29032  0.39705  1.0000
  O   O2        1.0  0.06472  0.70967  0.60296  1.0000
  O   O3        1.0  0.72309  0.93253  0.34669  1.0000
  O   O4        1.0  0.27690  0.06746  0.65330  1.0000
  O   O5        1.0  0.35537  0.29554  0.39537  1.0000
  O   O6        1.0  0.64462  0.70446  0.60464  1.0000
  O   O7        1.0  0.96870  0.55444  0.84355  1.0000
  O   O8        1.0  0.03132  0.44557  0.15645  1.0000
  O   O9        1.0  0.67681  0.50611  0.90555  1.0000
  O   O10       1.0  0.32321  0.49388  0.09445  1.0000
  O   O11       1.0  0.25722  0.44629  0.69198  1.0000
  O   O12       1.0  0.74277  0.55371  0.30802  1.0000
  O   O13       1.0  0.33060  0.76771  0.38373  1.0000
  O   O14       1.0  0.66940  0.23228  0.61626  1.0000
