data_image0
_chemical_formula_structural       Cd2H56C56N20O12
_chemical_formula_sum              "Cd2 H56 C56 N20 O12"
_cell_length_a       8.59247
_cell_length_b       8.48412
_cell_length_c       20.9609
_cell_angle_alpha    90
_cell_angle_beta     90.0001
_cell_angle_gamma    102.43

_space_group_name_H-M_alt    "P 1"
_space_group_IT_number       1

loop_
  _space_group_symop_operation_xyz
  'x, y, z'

loop_
  _atom_site_type_symbol
  _atom_site_label
  _atom_site_symmetry_multiplicity
  _atom_site_fract_x
  _atom_site_fract_y
  _atom_site_fract_z
  _atom_site_occupancy
  Cd  Cd1       1.0  0.50000  1.00000  0.50000  1.0000
  Cd  Cd2       1.0  0.50000  0.50000  0.00000  1.0000
  H   H1        1.0  0.79299  0.78430  0.47231  1.0000
  H   H2        1.0  0.20700  0.71569  0.97231  1.0000
  H   H3        1.0  0.20700  0.21569  0.52769  1.0000
  H   H4        1.0  0.79299  0.28431  0.02769  1.0000
  H   H5        1.0  0.30533  0.65918  0.42284  1.0000
  H   H6        1.0  0.69466  0.84082  0.92284  1.0000
  H   H7        1.0  0.69466  0.34082  0.57716  1.0000
  H   H8        1.0  0.30533  0.15918  0.07716  1.0000
  H   H9        1.0  0.45542  0.41332  0.38434  1.0000
  H   H10       1.0  0.54458  0.08668  0.88435  1.0000
  H   H11       1.0  0.54458  0.58668  0.61565  1.0000
  H   H12       1.0  0.45542  0.91332  0.11566  1.0000
  H   H13       1.0  0.72397  0.35831  0.40536  1.0000
  H   H14       1.0  0.27603  0.14169  0.90536  1.0000
  H   H15       1.0  0.27603  0.64169  0.59464  1.0000
  H   H16       1.0  0.72398  0.85831  0.09464  1.0000
  H   H17       1.0  0.85548  0.49007  0.45743  1.0000
  H   H18       1.0  0.14452  0.00993  0.95743  1.0000
  H   H19       1.0  0.14452  0.50993  0.54257  1.0000
  H   H20       1.0  0.85548  0.99007  0.04257  1.0000
  H   H21       1.0  0.04980  0.72670  0.41518  1.0000
  H   H22       1.0  0.95020  0.77330  0.91518  1.0000
  H   H23       1.0  0.95020  0.27330  0.58482  1.0000
  H   H24       1.0  0.04980  0.22670  0.08482  1.0000
  H   H25       1.0  0.21116  0.84964  0.32304  1.0000
  H   H26       1.0  0.78884  0.65036  0.82304  1.0000
  H   H27       1.0  0.78884  0.15036  0.67696  1.0000
  H   H28       1.0  0.21116  0.34964  0.17696  1.0000
  H   H29       1.0  0.91076  0.51904  0.19590  1.0000
  H   H30       1.0  0.08925  0.98095  0.69590  1.0000
  H   H31       1.0  0.08925  0.48095  0.80410  1.0000
  H   H32       1.0  0.91076  0.01905  0.30410  1.0000
  H   H33       1.0  0.74899  0.39263  0.28854  1.0000
  H   H34       1.0  0.25101  0.10737  0.78854  1.0000
  H   H35       1.0  0.25101  0.60737  0.71146  1.0000
  H   H36       1.0  0.74899  0.89263  0.21146  1.0000
  H   H37       1.0  0.08491  0.77916  0.15638  1.0000
  H   H38       1.0  0.91508  0.72084  0.65638  1.0000
  H   H39       1.0  0.91509  0.22084  0.84362  1.0000
  H   H40       1.0  0.08492  0.27916  0.34362  1.0000
  H   H41       1.0  0.22343  0.89842  0.20960  1.0000
  H   H42       1.0  0.77657  0.60158  0.70960  1.0000
  H   H43       1.0  0.77657  0.10158  0.79040  1.0000
  H   H44       1.0  0.22343  0.39842  0.29040  1.0000
  H   H45       1.0  0.44099  0.70050  0.25601  1.0000
  H   H46       1.0  0.55900  0.79950  0.75601  1.0000
  H   H47       1.0  0.55900  0.29950  0.74399  1.0000
  H   H48       1.0  0.44100  0.20050  0.24399  1.0000
  H   H49       1.0  0.61814  0.56105  0.16873  1.0000
  H   H50       1.0  0.38187  0.93896  0.66873  1.0000
  H   H51       1.0  0.38186  0.43895  0.83127  1.0000
  H   H52       1.0  0.61814  0.06105  0.33127  1.0000
  H   H53       1.0  0.20239  0.64065  0.07849  1.0000
  H   H54       1.0  0.79761  0.85935  0.57849  1.0000
  H   H55       1.0  0.79761  0.35935  0.92151  1.0000
  H   H56       1.0  0.20239  0.14065  0.42151  1.0000
  C   C1        1.0  0.67884  0.72011  0.45412  1.0000
  C   C2        1.0  0.32116  0.77988  0.95412  1.0000
  C   C3        1.0  0.32116  0.27988  0.54588  1.0000
  C   C4        1.0  0.67884  0.22011  0.04588  1.0000
  C   C5        1.0  0.42849  0.64923  0.42699  1.0000
  C   C6        1.0  0.57150  0.85076  0.92699  1.0000
  C   C7        1.0  0.57150  0.35076  0.57301  1.0000
  C   C8        1.0  0.42850  0.14924  0.07301  1.0000
  C   C9        1.0  0.50059  0.52769  0.40756  1.0000
  C   C10       1.0  0.49941  0.97231  0.90756  1.0000
  C   C11       1.0  0.49941  0.47231  0.59244  1.0000
  C   C12       1.0  0.50059  0.02769  0.09244  1.0000
  C   C13       1.0  0.78389  0.48423  0.41384  1.0000
  C   C14       1.0  0.21611  0.01577  0.91384  1.0000
  C   C15       1.0  0.21611  0.51577  0.58616  1.0000
  C   C16       1.0  0.78389  0.98423  0.08616  1.0000
  C   C17       1.0  0.88738  0.55221  0.35787  1.0000
  C   C18       1.0  0.11261  0.94779  0.85787  1.0000
  C   C19       1.0  0.11262  0.44779  0.64213  1.0000
  C   C20       1.0  0.88739  0.05221  0.14213  1.0000
  C   C21       1.0  0.01896  0.67970  0.36726  1.0000
  C   C22       1.0  0.98104  0.82030  0.86726  1.0000
  C   C23       1.0  0.98104  0.32030  0.63274  1.0000
  C   C24       1.0  0.01896  0.17970  0.13274  1.0000
  C   C25       1.0  0.10987  0.74910  0.31532  1.0000
  C   C26       1.0  0.89013  0.75090  0.81532  1.0000
  C   C27       1.0  0.89013  0.25090  0.68468  1.0000
  C   C28       1.0  0.10987  0.24910  0.18468  1.0000
  C   C29       1.0  0.07074  0.69295  0.25337  1.0000
  C   C30       1.0  0.92926  0.80705  0.75336  1.0000
  C   C31       1.0  0.92926  0.30705  0.74663  1.0000
  C   C32       1.0  0.07074  0.19296  0.24664  1.0000
  C   C33       1.0  0.94087  0.56331  0.24411  1.0000
  C   C34       1.0  0.05913  0.93669  0.74411  1.0000
  C   C35       1.0  0.05913  0.43669  0.75589  1.0000
  C   C36       1.0  0.94087  0.06332  0.25589  1.0000
  C   C37       1.0  0.85009  0.49356  0.29601  1.0000
  C   C38       1.0  0.14991  0.00644  0.79601  1.0000
  C   C39       1.0  0.14991  0.50644  0.70399  1.0000
  C   C40       1.0  0.85009  0.99357  0.20399  1.0000
  C   C41       1.0  0.16405  0.77417  0.19710  1.0000
  C   C42       1.0  0.83595  0.72583  0.69710  1.0000
  C   C43       1.0  0.83595  0.22583  0.80290  1.0000
  C   C44       1.0  0.16405  0.27417  0.30290  1.0000
  C   C45       1.0  0.41964  0.66624  0.20640  1.0000
  C   C46       1.0  0.58036  0.83377  0.70640  1.0000
  C   C47       1.0  0.58036  0.33377  0.79360  1.0000
  C   C48       1.0  0.41964  0.16623  0.29360  1.0000
  C   C49       1.0  0.50509  0.59668  0.16295  1.0000
  C   C50       1.0  0.49491  0.90333  0.66295  1.0000
  C   C51       1.0  0.49491  0.40332  0.83705  1.0000
  C   C52       1.0  0.50509  0.09668  0.33705  1.0000
  C   C53       1.0  0.29413  0.63508  0.11349  1.0000
  C   C54       1.0  0.70587  0.86492  0.61349  1.0000
  C   C55       1.0  0.70587  0.36492  0.88651  1.0000
  C   C56       1.0  0.29413  0.13509  0.38651  1.0000
  N   N1        1.0  0.54135  0.76824  0.45607  1.0000
  N   N2        1.0  0.45864  0.73176  0.95607  1.0000
  N   N3        1.0  0.45864  0.23176  0.54393  1.0000
  N   N4        1.0  0.54135  0.26824  0.04393  1.0000
  N   N5        1.0  0.65838  0.57391  0.42555  1.0000
  N   N6        1.0  0.34162  0.92609  0.92555  1.0000
  N   N7        1.0  0.34162  0.42609  0.57445  1.0000
  N   N8        1.0  0.65838  0.07391  0.07445  1.0000
  N   N9        1.0  0.28636  0.69047  0.17399  1.0000
  N   N10       1.0  0.71364  0.80954  0.67399  1.0000
  N   N11       1.0  0.71364  0.30954  0.82601  1.0000
  N   N12       1.0  0.28637  0.19047  0.32601  1.0000
  N   N13       1.0  0.42588  0.57872  0.10509  1.0000
  N   N14       1.0  0.57412  0.92128  0.60509  1.0000
  N   N15       1.0  0.57412  0.42128  0.89491  1.0000
  N   N16       1.0  0.42589  0.07872  0.39491  1.0000
  N   N17       1.0  0.88029  0.15185  0.45714  1.0000
  N   N18       1.0  0.11971  0.34814  0.95715  1.0000
  N   N19       1.0  0.11971  0.84815  0.54285  1.0000
  N   N20       1.0  0.88029  0.65186  0.04286  1.0000
  O   O1        1.0  0.78726  0.12680  0.50582  1.0000
  O   O2        1.0  0.21274  0.37319  0.00582  1.0000
  O   O3        1.0  0.21274  0.87320  0.49418  1.0000
  O   O4        1.0  0.78726  0.62680  0.99418  1.0000
  O   O5        1.0  0.01421  0.24837  0.46299  1.0000
  O   O6        1.0  0.98578  0.25162  0.96299  1.0000
  O   O7        1.0  0.98578  0.75162  0.53701  1.0000
  O   O8        1.0  0.01422  0.74838  0.03701  1.0000
  O   O9        1.0  0.83785  0.08225  0.40512  1.0000
  O   O10       1.0  0.16215  0.41773  0.90513  1.0000
  O   O11       1.0  0.16215  0.91773  0.59487  1.0000
  O   O12       1.0  0.83785  0.58228  0.09487  1.0000
