data_image0
_chemical_formula_structural       Li2H16C8I2O2
_chemical_formula_sum              "Li2 H16 C8 I2 O2"
_cell_length_a       4.46553
_cell_length_b       8.74344
_cell_length_c       8.96937
_cell_angle_alpha    102.634
_cell_angle_beta     99.7325
_cell_angle_gamma    102.422

_space_group_name_H-M_alt    "P 1"
_space_group_IT_number       1

loop_
  _space_group_symop_operation_xyz
  'x, y, z'

loop_
  _atom_site_type_symbol
  _atom_site_label
  _atom_site_symmetry_multiplicity
  _atom_site_fract_x
  _atom_site_fract_y
  _atom_site_fract_z
  _atom_site_occupancy
  Li  Li1       1.0  0.76867  0.11552  0.95027  1.0000
  Li  Li2       1.0  0.23133  0.88448  0.04973  1.0000
  H   H1        1.0  0.79997  0.00813  0.60026  1.0000
  H   H2        1.0  0.20003  0.99188  0.39973  1.0000
  H   H3        1.0  0.16684  0.14318  0.71532  1.0000
  H   H4        1.0  0.83316  0.85682  0.28468  1.0000
  H   H5        1.0  0.15039  0.26971  0.50630  1.0000
  H   H6        1.0  0.84962  0.73030  0.49370  1.0000
  H   H7        1.0  0.74111  0.18815  0.43447  1.0000
  H   H8        1.0  0.25889  0.81185  0.56553  1.0000
  H   H9        1.0  0.64177  0.42022  0.57785  1.0000
  H   H10       1.0  0.35823  0.57979  0.42215  1.0000
  H   H11       1.0  0.05055  0.51116  0.64826  1.0000
  H   H12       1.0  0.94946  0.48885  0.35175  1.0000
  H   H13       1.0  0.07548  0.42408  0.87971  1.0000
  H   H14       1.0  0.92451  0.57591  0.12030  1.0000
  H   H15       1.0  0.66645  0.41925  0.84835  1.0000
  H   H16       1.0  0.33354  0.58075  0.15165  1.0000
  C   C1        1.0  0.92584  0.13597  0.65459  1.0000
  C   C2        1.0  0.07416  0.86403  0.34541  1.0000
  C   C3        1.0  0.92561  0.24513  0.54214  1.0000
  C   C4        1.0  0.07439  0.75487  0.45786  1.0000
  C   C5        1.0  0.86337  0.40186  0.63568  1.0000
  C   C6        1.0  0.13663  0.59814  0.36432  1.0000
  C   C7        1.0  0.84492  0.37287  0.79598  1.0000
  C   C8        1.0  0.15507  0.62713  0.20403  1.0000
  I   I1        1.0  0.37497  0.21751  0.12779  1.0000
  I   I2        1.0  0.62503  0.78248  0.87220  1.0000
  O   O1        1.0  0.75835  0.19778  0.76984  1.0000
  O   O2        1.0  0.24165  0.80222  0.23015  1.0000
