data_image0
_chemical_formula_structural       Cu8H28C40N24Cl4
_chemical_formula_sum              "Cu8 H28 C40 N24 Cl4"
_cell_length_a       9.26292
_cell_length_b       10.4723
_cell_length_c       11.2685
_cell_angle_alpha    90
_cell_angle_beta     105.103
_cell_angle_gamma    90

_space_group_name_H-M_alt    "P 1"
_space_group_IT_number       1

loop_
  _space_group_symop_operation_xyz
  'x, y, z'

loop_
  _atom_site_type_symbol
  _atom_site_label
  _atom_site_symmetry_multiplicity
  _atom_site_fract_x
  _atom_site_fract_y
  _atom_site_fract_z
  _atom_site_occupancy
  Cu  Cu1       1.0  0.09441  0.41675  0.40133  1.0000
  Cu  Cu2       1.0  0.40559  0.91675  0.59867  1.0000
  Cu  Cu3       1.0  0.90559  0.58325  0.59867  1.0000
  Cu  Cu4       1.0  0.59441  0.08325  0.40133  1.0000
  Cu  Cu5       1.0  0.29657  0.28987  0.20580  1.0000
  Cu  Cu6       1.0  0.20343  0.78987  0.79420  1.0000
  Cu  Cu7       1.0  0.70343  0.71013  0.79420  1.0000
  Cu  Cu8       1.0  0.79657  0.21013  0.20580  1.0000
  H   H1        1.0  0.39473  0.45230  0.41034  1.0000
  H   H2        1.0  0.10527  0.95230  0.58966  1.0000
  H   H3        1.0  0.60527  0.54769  0.58966  1.0000
  H   H4        1.0  0.89473  0.04770  0.41034  1.0000
  H   H5        1.0  0.53685  0.43530  0.25476  1.0000
  H   H6        1.0  0.96315  0.93530  0.74524  1.0000
  H   H7        1.0  0.46315  0.56470  0.74524  1.0000
  H   H8        1.0  0.03685  0.06470  0.25476  1.0000
  H   H9        1.0  0.34976  0.85812  0.34868  1.0000
  H   H10       1.0  0.15024  0.35812  0.65132  1.0000
  H   H11       1.0  0.65024  0.14188  0.65132  1.0000
  H   H12       1.0  0.84976  0.64188  0.34868  1.0000
  H   H13       1.0  0.49338  0.84357  0.19439  1.0000
  H   H14       1.0  0.00663  0.34357  0.80561  1.0000
  H   H15       1.0  0.50662  0.15643  0.80561  1.0000
  H   H16       1.0  0.99337  0.65643  0.19439  1.0000
  H   H17       1.0  0.51873  0.78827  0.99942  1.0000
  H   H18       1.0  0.98127  0.28827  0.00058  1.0000
  H   H19       1.0  0.48127  0.21173  0.00058  1.0000
  H   H20       1.0  0.01873  0.71173  0.99942  1.0000
  H   H21       1.0  0.72580  0.45199  0.17880  1.0000
  H   H22       1.0  0.77420  0.95199  0.82121  1.0000
  H   H23       1.0  0.27420  0.54801  0.82121  1.0000
  H   H24       1.0  0.22580  0.04801  0.17879  1.0000
  H   H25       1.0  0.81551  0.49258  0.96726  1.0000
  H   H26       1.0  0.68449  0.99258  0.03274  1.0000
  H   H27       1.0  0.18449  0.50742  0.03274  1.0000
  H   H28       1.0  0.31550  0.00742  0.96726  1.0000
  C   C1        1.0  0.41485  0.53760  0.36196  1.0000
  C   C2        1.0  0.08515  0.03761  0.63804  1.0000
  C   C3        1.0  0.58515  0.46239  0.63804  1.0000
  C   C4        1.0  0.91485  0.96240  0.36196  1.0000
  C   C5        1.0  0.27348  0.66197  0.48054  1.0000
  C   C6        1.0  0.22652  0.16197  0.51946  1.0000
  C   C7        1.0  0.72653  0.33803  0.51947  1.0000
  C   C8        1.0  0.77348  0.83804  0.48054  1.0000
  C   C9        1.0  0.35904  0.65562  0.38870  1.0000
  C   C10       1.0  0.14095  0.15562  0.61130  1.0000
  C   C11       1.0  0.64096  0.34438  0.61130  1.0000
  C   C12       1.0  0.85904  0.84438  0.38870  1.0000
  C   C13       1.0  0.49640  0.52835  0.27500  1.0000
  C   C14       1.0  0.00360  0.02835  0.72500  1.0000
  C   C15       1.0  0.50360  0.47165  0.72500  1.0000
  C   C16       1.0  0.99640  0.97165  0.27500  1.0000
  C   C17       1.0  0.38908  0.76494  0.32729  1.0000
  C   C18       1.0  0.11092  0.26494  0.67271  1.0000
  C   C19       1.0  0.61092  0.23506  0.67271  1.0000
  C   C20       1.0  0.88908  0.73506  0.32730  1.0000
  C   C21       1.0  0.52071  0.63753  0.21110  1.0000
  C   C22       1.0  0.97929  0.13753  0.78890  1.0000
  C   C23       1.0  0.47929  0.36247  0.78890  1.0000
  C   C24       1.0  0.02071  0.86247  0.21110  1.0000
  C   C25       1.0  0.46919  0.75646  0.23874  1.0000
  C   C26       1.0  0.03081  0.25646  0.76127  1.0000
  C   C27       1.0  0.53081  0.24354  0.76126  1.0000
  C   C28       1.0  0.96919  0.74354  0.23874  1.0000
  C   C29       1.0  0.58892  0.70406  0.01986  1.0000
  C   C30       1.0  0.91108  0.20406  0.98014  1.0000
  C   C31       1.0  0.41108  0.29594  0.98014  1.0000
  C   C32       1.0  0.08892  0.79594  0.01986  1.0000
  C   C33       1.0  0.69301  0.52520  0.10925  1.0000
  C   C34       1.0  0.80699  0.02520  0.89075  1.0000
  C   C35       1.0  0.30698  0.47480  0.89075  1.0000
  C   C36       1.0  0.19301  0.97480  0.10925  1.0000
  C   C37       1.0  0.73865  0.54659  0.00531  1.0000
  C   C38       1.0  0.76135  0.04659  0.99469  1.0000
  C   C39       1.0  0.26135  0.45341  0.99469  1.0000
  C   C40       1.0  0.23865  0.95341  0.00531  1.0000
  N   N1        1.0  0.17143  0.57413  0.49400  1.0000
  N   N2        1.0  0.32857  0.07413  0.50600  1.0000
  N   N3        1.0  0.82857  0.42587  0.50600  1.0000
  N   N4        1.0  0.67143  0.92587  0.49400  1.0000
  N   N5        1.0  0.59799  0.62514  0.11824  1.0000
  N   N6        1.0  0.90201  0.12514  0.88176  1.0000
  N   N7        1.0  0.40201  0.37486  0.88176  1.0000
  N   N8        1.0  0.09799  0.87486  0.11824  1.0000
  N   N9        1.0  0.28756  0.75376  0.56667  1.0000
  N   N10       1.0  0.21244  0.25376  0.43333  1.0000
  N   N11       1.0  0.71244  0.24624  0.43333  1.0000
  N   N12       1.0  0.78756  0.74624  0.56667  1.0000
  N   N13       1.0  0.12062  0.61375  0.58942  1.0000
  N   N14       1.0  0.37938  0.11375  0.41058  1.0000
  N   N15       1.0  0.87938  0.38625  0.41058  1.0000
  N   N16       1.0  0.62062  0.88625  0.58942  1.0000
  N   N17       1.0  0.19298  0.72050  0.63506  1.0000
  N   N18       1.0  0.30702  0.22050  0.36494  1.0000
  N   N19       1.0  0.80702  0.27950  0.36494  1.0000
  N   N20       1.0  0.69298  0.77950  0.63506  1.0000
  N   N21       1.0  0.67297  0.65820  0.94958  1.0000
  N   N22       1.0  0.82703  0.15820  0.05042  1.0000
  N   N23       1.0  0.32703  0.34180  0.05042  1.0000
  N   N24       1.0  0.17297  0.84180  0.94958  1.0000
  Cl  Cl1       1.0  0.06586  0.42375  0.19037  1.0000
  Cl  Cl2       1.0  0.43414  0.92375  0.80963  1.0000
  Cl  Cl3       1.0  0.93414  0.57625  0.80963  1.0000
  Cl  Cl4       1.0  0.56586  0.07625  0.19037  1.0000
