data_image0
_chemical_formula_structural       Zn4H44C56N4O16
_chemical_formula_sum              "Zn4 H44 C56 N4 O16"
_cell_length_a       7.46362
_cell_length_b       10.8421
_cell_length_c       17.6502
_cell_angle_alpha    86.5683
_cell_angle_beta     79.8729
_cell_angle_gamma    69.9067

_space_group_name_H-M_alt    "P 1"
_space_group_IT_number       1

loop_
  _space_group_symop_operation_xyz
  'x, y, z'

loop_
  _atom_site_type_symbol
  _atom_site_label
  _atom_site_symmetry_multiplicity
  _atom_site_fract_x
  _atom_site_fract_y
  _atom_site_fract_z
  _atom_site_occupancy
  Zn  Zn1       1.0  0.17053  0.94924  0.16743  1.0000
  Zn  Zn2       1.0  0.11836  0.05120  0.66763  1.0000
  Zn  Zn3       1.0  0.52763  0.03696  0.22635  1.0000
  Zn  Zn4       1.0  0.56343  0.96320  0.72619  1.0000
  H   H1        1.0  0.13870  0.57902  0.24310  1.0000
  H   H2        1.0  0.71649  0.42174  0.74325  1.0000
  H   H3        1.0  0.05494  0.37723  0.27940  1.0000
  H   H4        1.0  0.43106  0.62355  0.77941  1.0000
  H   H5        1.0  0.74075  0.36520  0.25309  1.0000
  H   H6        1.0  0.10514  0.63506  0.75294  1.0000
  H   H7        1.0  0.51756  0.55507  0.19374  1.0000
  H   H8        1.0  0.07214  0.44497  0.69358  1.0000
  H   H9        1.0  0.14311  0.24263  0.41608  1.0000
  H   H10       1.0  0.38429  0.75726  0.91558  1.0000
  H   H11       1.0  0.91386  0.34193  0.53527  1.0000
  H   H12       1.0  0.25486  0.65776  0.03468  1.0000
  H   H13       1.0  0.57207  0.34280  0.55200  1.0000
  H   H14       1.0  0.91404  0.65669  0.05162  1.0000
  H   H15       1.0  0.46840  0.24182  0.45481  1.0000
  H   H16       1.0  0.70916  0.75752  0.95460  1.0000
  H   H17       1.0  0.87074  0.19862  0.14217  1.0000
  H   H18       1.0  0.06847  0.80164  0.64247  1.0000
  H   H19       1.0  0.76193  0.33782  0.03010  1.0000
  H   H20       1.0  0.09800  0.66233  0.53045  1.0000
  H   H21       1.0  0.24340  0.06434  0.88396  1.0000
  H   H22       1.0  0.30605  0.93559  0.38412  1.0000
  H   H23       1.0  0.33503  0.93837  0.00218  1.0000
  H   H24       1.0  0.27261  0.06163  0.50234  1.0000
  H   H25       1.0  0.82989  0.38619  0.88958  1.0000
  H   H26       1.0  0.21341  0.61386  0.38994  1.0000
  H   H27       1.0  0.04468  0.28351  0.83112  1.0000
  H   H28       1.0  0.32587  0.71629  0.33140  1.0000
  H   H29       1.0  0.83867  0.23558  0.85150  1.0000
  H   H30       1.0  0.07197  0.76442  0.35184  1.0000
  H   H31       1.0  0.29911  0.30128  0.18560  1.0000
  H   H32       1.0  0.59894  0.69898  0.68544  1.0000
  H   H33       1.0  0.21280  0.43549  0.06913  1.0000
  H   H34       1.0  0.64678  0.56451  0.56900  1.0000
  H   H35       1.0  0.60633  0.10404  0.93150  1.0000
  H   H36       1.0  0.70976  0.89562  0.43131  1.0000
  H   H37       1.0  0.67472  0.98462  0.05416  1.0000
  H   H38       1.0  0.65873  0.01530  0.55396  1.0000
  H   H39       1.0  0.20831  0.42808  0.92659  1.0000
  H   H40       1.0  0.63581  0.57127  0.42641  1.0000
  H   H41       1.0  0.45254  0.41573  0.90066  1.0000
  H   H42       1.0  0.86756  0.58392  0.40064  1.0000
  H   H43       1.0  0.37647  0.29273  0.86964  1.0000
  H   H44       1.0  0.66871  0.70654  0.36944  1.0000
  C   C1        1.0  0.54308  0.78455  0.15577  1.0000
  C   C2        1.0  0.32700  0.21545  0.65586  1.0000
  C   C3        1.0  0.92791  0.80222  0.18391  1.0000
  C   C4        1.0  0.72915  0.19823  0.68411  1.0000
  C   C5        1.0  0.69496  0.67636  0.18943  1.0000
  C   C6        1.0  0.37063  0.32382  0.68946  1.0000
  C   C7        1.0  0.87143  0.68309  0.20331  1.0000
  C   C8        1.0  0.55360  0.31730  0.70346  1.0000
  C   C9        1.0  0.00136  0.57289  0.23400  1.0000
  C   C10       1.0  0.57313  0.42768  0.73414  1.0000
  C   C11       1.0  0.95511  0.45995  0.25318  1.0000
  C   C12       1.0  0.41402  0.54067  0.75323  1.0000
  C   C13       1.0  0.78016  0.45308  0.23915  1.0000
  C   C14       1.0  0.23243  0.54730  0.73906  1.0000
  C   C15       1.0  0.65279  0.56023  0.20636  1.0000
  C   C16       1.0  0.21241  0.43997  0.70625  1.0000
  C   C17       1.0  0.66725  0.13601  0.31866  1.0000
  C   C18       1.0  0.80218  0.86349  0.81838  1.0000
  C   C19       1.0  0.08203  0.12143  0.30124  1.0000
  C   C20       1.0  0.20187  0.87871  0.80107  1.0000
  C   C21       1.0  0.74537  0.18503  0.37939  1.0000
  C   C22       1.0  0.92894  0.81471  0.87919  1.0000
  C   C23       1.0  0.93671  0.18591  0.36955  1.0000
  C   C24       1.0  0.12108  0.81404  0.86928  1.0000
  C   C25       1.0  0.99401  0.24426  0.42544  1.0000
  C   C26       1.0  0.23682  0.75563  0.92502  1.0000
  C   C27       1.0  0.86525  0.30045  0.49130  1.0000
  C   C28       1.0  0.16460  0.69920  0.99082  1.0000
  C   C29       1.0  0.67581  0.29942  0.50104  1.0000
  C   C30       1.0  0.97425  0.70009  0.00066  1.0000
  C   C31       1.0  0.61659  0.24204  0.44578  1.0000
  C   C32       1.0  0.85749  0.75743  0.94551  1.0000
  C   C33       1.0  0.94974  0.17367  0.08384  1.0000
  C   C34       1.0  0.12223  0.82656  0.58411  1.0000
  C   C35       1.0  0.88984  0.24961  0.02088  1.0000
  C   C36       1.0  0.13773  0.75056  0.52117  1.0000
  C   C37       1.0  0.99015  0.21114  0.94632  1.0000
  C   C38       1.0  0.19927  0.78900  0.44658  1.0000
  C   C39       1.0  0.15456  0.09783  0.93969  1.0000
  C   C40       1.0  0.25079  0.90220  0.43989  1.0000
  C   C41       1.0  0.20795  0.02681  0.00497  1.0000
  C   C42       1.0  0.23365  0.97326  0.50514  1.0000
  C   C43       1.0  0.92263  0.28429  0.87624  1.0000
  C   C44       1.0  0.20456  0.71571  0.37654  1.0000
  C   C45       1.0  0.36344  0.26234  0.12800  1.0000
  C   C46       1.0  0.62451  0.73780  0.62784  1.0000
  C   C47       1.0  0.31797  0.33629  0.06274  1.0000
  C   C48       1.0  0.65291  0.66371  0.56261  1.0000
  C   C49       1.0  0.40404  0.28171  0.98961  1.0000
  C   C50       1.0  0.68458  0.71808  0.48945  1.0000
  C   C51       1.0  0.53680  0.15327  0.98660  1.0000
  C   C52       1.0  0.68913  0.84651  0.48640  1.0000
  C   C53       1.0  0.57380  0.08490  0.05446  1.0000
  C   C54       1.0  0.65795  0.91500  0.55428  1.0000
  C   C55       1.0  0.35654  0.35782  0.91797  1.0000
  C   C56       1.0  0.71361  0.64168  0.41783  1.0000
  N   N1        1.0  0.10647  0.06285  0.07592  1.0000
  N   N2        1.0  0.16837  0.93734  0.57613  1.0000
  N   N3        1.0  0.48723  0.13773  0.12427  1.0000
  N   N4        1.0  0.62395  0.86238  0.62409  1.0000
  O   O1        1.0  0.43193  0.88107  0.20311  1.0000
  O   O2        1.0  0.31212  0.11910  0.70323  1.0000
  O   O3        1.0  0.51044  0.77421  0.09037  1.0000
  O   O4        1.0  0.28433  0.22556  0.59041  1.0000
  O   O5        1.0  0.80577  0.91019  0.16762  1.0000
  O   O6        1.0  0.71503  0.09019  0.66772  1.0000
  O   O7        1.0  0.10690  0.78650  0.18346  1.0000
  O   O8        1.0  0.89237  0.21405  0.68372  1.0000
  O   O9        1.0  0.61678  0.21137  0.26298  1.0000
  O   O10       1.0  0.82761  0.78814  0.76259  1.0000
  O   O11       1.0  0.64059  0.02450  0.32752  1.0000
  O   O12       1.0  0.66381  0.97486  0.82733  1.0000
  O   O13       1.0  0.24741  0.13429  0.29108  1.0000
  O   O14       1.0  0.38027  0.86543  0.79065  1.0000
  O   O15       1.0  0.02512  0.05625  0.25845  1.0000
  O   O16       1.0  0.07953  0.94440  0.75858  1.0000
