data_image0
_chemical_formula_structural       Co2H44C28N4Cl4O2
_chemical_formula_sum              "Co2 H44 C28 N4 Cl4 O2"
_cell_length_a       7.34051
_cell_length_b       9.33601
_cell_length_c       13.0162
_cell_angle_alpha    110.018
_cell_angle_beta     90.0003
_cell_angle_gamma    89.9999

_space_group_name_H-M_alt    "P 1"
_space_group_IT_number       1

loop_
  _space_group_symop_operation_xyz
  'x, y, z'

loop_
  _atom_site_type_symbol
  _atom_site_label
  _atom_site_symmetry_multiplicity
  _atom_site_fract_x
  _atom_site_fract_y
  _atom_site_fract_z
  _atom_site_occupancy
  Co  Co1       1.0  0.63964  0.46226  0.74769  1.0000
  Co  Co2       1.0  0.13964  0.53774  0.25231  1.0000
  H   H1        1.0  0.17660  0.65365  0.59541  1.0000
  H   H2        1.0  0.67660  0.34635  0.40459  1.0000
  H   H3        1.0  0.88348  0.52024  0.58834  1.0000
  H   H4        1.0  0.38347  0.47975  0.41166  1.0000
  H   H5        1.0  0.94807  0.51725  0.90490  1.0000
  H   H6        1.0  0.44807  0.48275  0.09510  1.0000
  H   H7        1.0  0.25128  0.64124  0.92329  1.0000
  H   H8        1.0  0.75128  0.35877  0.07672  1.0000
  H   H9        1.0  0.13748  0.90755  0.74932  1.0000
  H   H10       1.0  0.63748  0.09245  0.25068  1.0000
  H   H11       1.0  0.27441  0.03932  0.71374  1.0000
  H   H12       1.0  0.77441  0.96068  0.28626  1.0000
  H   H13       1.0  0.36889  0.15603  0.91097  1.0000
  H   H14       1.0  0.86889  0.84397  0.08903  1.0000
  H   H15       1.0  0.30650  0.93364  0.97387  1.0000
  H   H16       1.0  0.80650  0.06636  0.02613  1.0000
  H   H17       1.0  0.07022  0.95025  0.95183  1.0000
  H   H18       1.0  0.57022  0.04975  0.04817  1.0000
  H   H19       1.0  0.18701  0.09889  0.05370  1.0000
  H   H20       1.0  0.68701  0.90111  0.94630  1.0000
  H   H21       1.0  0.08056  0.29715  0.97006  1.0000
  H   H22       1.0  0.58057  0.70285  0.02993  1.0000
  H   H23       1.0  0.95758  0.15346  0.86762  1.0000
  H   H24       1.0  0.45758  0.84653  0.13237  1.0000
  H   H25       1.0  0.12371  0.26508  0.82999  1.0000
  H   H26       1.0  0.62371  0.73491  0.17001  1.0000
  H   H27       1.0  0.70423  0.87766  0.76116  1.0000
  H   H28       1.0  0.20423  0.12234  0.23884  1.0000
  H   H29       1.0  0.60466  0.06315  0.80424  1.0000
  H   H30       1.0  0.10465  0.93685  0.19576  1.0000
  H   H31       1.0  0.51817  0.03478  0.61732  1.0000
  H   H32       1.0  0.01817  0.96522  0.38268  1.0000
  H   H33       1.0  0.82334  0.02655  0.53818  1.0000
  H   H34       1.0  0.32334  0.97345  0.46182  1.0000
  H   H35       1.0  0.91313  0.93423  0.62542  1.0000
  H   H36       1.0  0.41313  0.06577  0.37458  1.0000
  H   H37       1.0  0.82985  0.12547  0.68121  1.0000
  H   H38       1.0  0.32985  0.87453  0.31879  1.0000
  H   H39       1.0  0.60674  0.80207  0.45849  1.0000
  H   H40       1.0  0.10674  0.19793  0.54151  1.0000
  H   H41       1.0  0.44343  0.75712  0.54265  1.0000
  H   H42       1.0  0.94343  0.24288  0.45735  1.0000
  H   H43       1.0  0.67729  0.71018  0.55007  1.0000
  H   H44       1.0  0.17729  0.28982  0.44994  1.0000
  C   C1        1.0  0.23799  0.66171  0.76159  1.0000
  C   C2        1.0  0.73799  0.33830  0.23842  1.0000
  C   C3        1.0  0.13364  0.62445  0.66597  1.0000
  C   C4        1.0  0.63364  0.37555  0.33404  1.0000
  C   C5        1.0  0.96841  0.55057  0.66135  1.0000
  C   C6        1.0  0.46841  0.44943  0.33865  1.0000
  C   C7        1.0  0.00555  0.54739  0.83784  1.0000
  C   C8        1.0  0.50556  0.45261  0.16217  1.0000
  C   C9        1.0  0.17470  0.61782  0.84767  1.0000
  C   C10       1.0  0.67470  0.38218  0.15234  1.0000
  C   C11       1.0  0.41619  0.74172  0.76863  1.0000
  C   C12       1.0  0.91619  0.25828  0.23137  1.0000
  C   C13       1.0  0.26008  0.97843  0.77209  1.0000
  C   C14       1.0  0.76008  0.02157  0.22791  1.0000
  C   C15       1.0  0.23966  0.09300  0.88873  1.0000
  C   C16       1.0  0.73966  0.90700  0.11127  1.0000
  C   C17       1.0  0.19898  0.01402  0.97126  1.0000
  C   C18       1.0  0.69898  0.98598  0.02874  1.0000
  C   C19       1.0  0.09170  0.20828  0.88909  1.0000
  C   C20       1.0  0.59170  0.79172  0.11090  1.0000
  C   C21       1.0  0.59568  0.94712  0.74428  1.0000
  C   C22       1.0  0.09568  0.05288  0.25573  1.0000
  C   C23       1.0  0.61712  0.95220  0.62808  1.0000
  C   C24       1.0  0.11712  0.04780  0.37192  1.0000
  C   C25       1.0  0.80694  0.01343  0.61821  1.0000
  C   C26       1.0  0.30694  0.98657  0.38179  1.0000
  C   C27       1.0  0.58380  0.79675  0.54043  1.0000
  C   C28       1.0  0.08381  0.20325  0.45957  1.0000
  N   N1        1.0  0.90252  0.51538  0.74669  1.0000
  N   N2        1.0  0.40252  0.48462  0.25331  1.0000
  N   N3        1.0  0.42071  0.88027  0.75960  1.0000
  N   N4        1.0  0.92071  0.11973  0.24040  1.0000
  Cl  Cl1       1.0  0.53877  0.32990  0.58386  1.0000
  Cl  Cl2       1.0  0.03877  0.67010  0.41614  1.0000
  Cl  Cl3       1.0  0.58660  0.37285  0.88070  1.0000
  Cl  Cl4       1.0  0.08660  0.62715  0.11930  1.0000
  O   O1        1.0  0.56296  0.67627  0.78030  1.0000
  O   O2        1.0  0.06296  0.32373  0.21970  1.0000
