data_image0
_chemical_formula_structural       K2H40Pt2C36S2N4Cl2O12
_chemical_formula_sum              "K2 H40 Pt2 C36 S2 N4 Cl2 O12"
_cell_length_a       8.35751
_cell_length_b       10.1734
_cell_length_c       13.1995
_cell_angle_alpha    101.543
_cell_angle_beta     104.315
_cell_angle_gamma    101.674

_space_group_name_H-M_alt    "P 1"
_space_group_IT_number       1

loop_
  _space_group_symop_operation_xyz
  'x, y, z'

loop_
  _atom_site_type_symbol
  _atom_site_label
  _atom_site_symmetry_multiplicity
  _atom_site_fract_x
  _atom_site_fract_y
  _atom_site_fract_z
  _atom_site_occupancy
  K   K1        1.0  0.22615  0.94326  0.00349  1.0000
  K   K2        1.0  0.77385  0.05674  0.99651  1.0000
  H   H1        1.0  0.53552  0.55240  0.15044  1.0000
  H   H2        1.0  0.46448  0.44760  0.84956  1.0000
  H   H3        1.0  0.76262  0.16448  0.32229  1.0000
  H   H4        1.0  0.23738  0.83552  0.67771  1.0000
  H   H5        1.0  0.02531  0.24557  0.27081  1.0000
  H   H6        1.0  0.97469  0.75443  0.72919  1.0000
  H   H7        1.0  0.03787  0.43490  0.17204  1.0000
  H   H8        1.0  0.96213  0.56509  0.82796  1.0000
  H   H9        1.0  0.78321  0.53099  0.13111  1.0000
  H   H10       1.0  0.21679  0.46901  0.86889  1.0000
  H   H11       1.0  0.42221  0.70764  0.23280  1.0000
  H   H12       1.0  0.57779  0.29236  0.76720  1.0000
  H   H13       1.0  0.29378  0.79160  0.37603  1.0000
  H   H14       1.0  0.70622  0.20840  0.62397  1.0000
  H   H15       1.0  0.20309  0.63065  0.48448  1.0000
  H   H16       1.0  0.79691  0.36934  0.51552  1.0000
  H   H17       1.0  0.13218  0.47825  0.56715  1.0000
  H   H18       1.0  0.86782  0.52175  0.43285  1.0000
  H   H19       1.0  0.05725  0.28739  0.65201  1.0000
  H   H20       1.0  0.94275  0.71261  0.34799  1.0000
  H   H21       1.0  0.13794  0.06606  0.59818  1.0000
  H   H22       1.0  0.86206  0.93394  0.40182  1.0000
  H   H23       1.0  0.28984  0.03507  0.46145  1.0000
  H   H24       1.0  0.71016  0.96494  0.53856  1.0000
  H   H25       1.0  0.15947  0.09126  0.19921  1.0000
  H   H26       1.0  0.84053  0.90874  0.80079  1.0000
  H   H27       1.0  0.10429  0.87137  0.23909  1.0000
  H   H28       1.0  0.89571  0.12863  0.76091  1.0000
  H   H29       1.0  0.88530  0.85249  0.16833  1.0000
  H   H30       1.0  0.11470  0.14751  0.83167  1.0000
  H   H31       1.0  0.98908  0.98519  0.29237  1.0000
  H   H32       1.0  0.01092  0.01481  0.70763  1.0000
  H   H33       1.0  0.43527  0.16220  0.91555  1.0000
  H   H34       1.0  0.56473  0.83780  0.08445  1.0000
  H   H35       1.0  0.45122  0.04666  0.82100  1.0000
  H   H36       1.0  0.54878  0.95334  0.17900  1.0000
  H   H37       1.0  0.19279  0.62007  0.05802  1.0000
  H   H38       1.0  0.80721  0.37993  0.94198  1.0000
  H   H39       1.0  0.02436  0.66328  0.03440  1.0000
  H   H40       1.0  0.97564  0.33672  0.96560  1.0000
  Pt  Pt1       1.0  0.43992  0.24599  0.33237  1.0000
  Pt  Pt2       1.0  0.56008  0.75401  0.66763  1.0000
  C   C1        1.0  0.49388  0.46261  0.18102  1.0000
  C   C2        1.0  0.50612  0.53740  0.81898  1.0000
  C   C3        1.0  0.77356  0.24607  0.28021  1.0000
  C   C4        1.0  0.22644  0.75393  0.71979  1.0000
  C   C5        1.0  0.91964  0.29243  0.25137  1.0000
  C   C6        1.0  0.08036  0.70757  0.74862  1.0000
  C   C7        1.0  0.92635  0.39698  0.19723  1.0000
  C   C8        1.0  0.07365  0.60302  0.80277  1.0000
  C   C9        1.0  0.78526  0.45089  0.17468  1.0000
  C   C10       1.0  0.21474  0.54911  0.82532  1.0000
  C   C11       1.0  0.64218  0.40047  0.20628  1.0000
  C   C12       1.0  0.35782  0.59953  0.79372  1.0000
  C   C13       1.0  0.42043  0.51125  0.27033  1.0000
  C   C14       1.0  0.57957  0.48875  0.72967  1.0000
  C   C15       1.0  0.38837  0.64211  0.28411  1.0000
  C   C16       1.0  0.61163  0.35789  0.71589  1.0000
  C   C17       1.0  0.31344  0.68768  0.36293  1.0000
  C   C18       1.0  0.68656  0.31232  0.63707  1.0000
  C   C19       1.0  0.26625  0.59934  0.42444  1.0000
  C   C20       1.0  0.73375  0.40066  0.57556  1.0000
  C   C21       1.0  0.29964  0.46885  0.40918  1.0000
  C   C22       1.0  0.70036  0.53115  0.59082  1.0000
  C   C23       1.0  0.29704  0.23738  0.43210  1.0000
  C   C24       1.0  0.70296  0.76262  0.56790  1.0000
  C   C25       1.0  0.25246  0.36386  0.46461  1.0000
  C   C26       1.0  0.74754  0.63614  0.53539  1.0000
  C   C27       1.0  0.16573  0.38101  0.54286  1.0000
  C   C28       1.0  0.83427  0.61899  0.45714  1.0000
  C   C29       1.0  0.12335  0.27382  0.59064  1.0000
  C   C30       1.0  0.87665  0.72618  0.40937  1.0000
  C   C31       1.0  0.16847  0.14987  0.56029  1.0000
  C   C32       1.0  0.83153  0.85013  0.43971  1.0000
  C   C33       1.0  0.25374  0.13172  0.48208  1.0000
  C   C34       1.0  0.74626  0.86828  0.51792  1.0000
  C   C35       1.0  0.00687  0.92762  0.21787  1.0000
  C   C36       1.0  0.99313  0.07238  0.78213  1.0000
  S   S1        1.0  0.32417  0.34824  0.05709  1.0000
  S   S2        1.0  0.67583  0.65176  0.94291  1.0000
  N   N1        1.0  0.63564  0.29792  0.25799  1.0000
  N   N2        1.0  0.36436  0.70208  0.74201  1.0000
  N   N3        1.0  0.38158  0.42858  0.33450  1.0000
  N   N4        1.0  0.61842  0.57142  0.66550  1.0000
  Cl  Cl1       1.0  0.48802  0.02978  0.33258  1.0000
  Cl  Cl2       1.0  0.51198  0.97022  0.66742  1.0000
  O   O1        1.0  0.25239  0.21855  0.08058  1.0000
  O   O2        1.0  0.74762  0.78145  0.91942  1.0000
  O   O3        1.0  0.19941  0.43127  0.03620  1.0000
  O   O4        1.0  0.80059  0.56873  0.96380  1.0000
  O   O5        1.0  0.41250  0.33037  0.97359  1.0000
  O   O6        1.0  0.58750  0.66964  0.02641  1.0000
  O   O7        1.0  0.05343  0.01952  0.15437  1.0000
  O   O8        1.0  0.94657  0.98048  0.84563  1.0000
  O   O9        1.0  0.44086  0.06480  0.89481  1.0000
  O   O10       1.0  0.55915  0.93520  0.10519  1.0000
  O   O11       1.0  0.14914  0.70287  0.06518  1.0000
  O   O12       1.0  0.85086  0.29713  0.93481  1.0000
