data_image0
_chemical_formula_structural       Na4H20C20S4O16
_chemical_formula_sum              "Na4 H20 C20 S4 O16"
_cell_length_a       5.46355
_cell_length_b       10.6781
_cell_length_c       11.6549
_cell_angle_alpha    96.6377
_cell_angle_beta     90
_cell_angle_gamma    90

_space_group_name_H-M_alt    "P 1"
_space_group_IT_number       1

loop_
  _space_group_symop_operation_xyz
  'x, y, z'

loop_
  _atom_site_type_symbol
  _atom_site_label
  _atom_site_symmetry_multiplicity
  _atom_site_fract_x
  _atom_site_fract_y
  _atom_site_fract_z
  _atom_site_occupancy
  Na  Na1       1.0  0.90344  0.67402  0.59575  1.0000
  Na  Na2       1.0  0.40344  0.82598  0.40426  1.0000
  Na  Na3       1.0  0.09656  0.32599  0.40425  1.0000
  Na  Na4       1.0  0.59656  0.17401  0.59574  1.0000
  H   H1        1.0  0.72692  0.87615  0.81834  1.0000
  H   H2        1.0  0.22692  0.62386  0.18166  1.0000
  H   H3        1.0  0.27308  0.12386  0.18167  1.0000
  H   H4        1.0  0.77309  0.37614  0.81833  1.0000
  H   H5        1.0  0.43130  0.14976  0.82472  1.0000
  H   H6        1.0  0.93130  0.35022  0.17528  1.0000
  H   H7        1.0  0.56867  0.85023  0.17529  1.0000
  H   H8        1.0  0.06871  0.64977  0.82472  1.0000
  H   H9        1.0  0.47640  0.79332  0.96692  1.0000
  H   H10       1.0  0.97641  0.70670  0.03308  1.0000
  H   H11       1.0  0.52360  0.20670  0.03309  1.0000
  H   H12       1.0  0.02359  0.29330  0.96691  1.0000
  H   H13       1.0  0.14688  0.60691  0.38207  1.0000
  H   H14       1.0  0.64687  0.89310  0.61794  1.0000
  H   H15       1.0  0.85312  0.39309  0.61793  1.0000
  H   H16       1.0  0.35313  0.10691  0.38206  1.0000
  H   H17       1.0  0.91427  0.68897  0.36829  1.0000
  H   H18       1.0  0.41427  0.81103  0.63171  1.0000
  H   H19       1.0  0.08573  0.31103  0.63171  1.0000
  H   H20       1.0  0.58574  0.18897  0.36829  1.0000
  C   C1        1.0  0.12445  0.03380  0.85634  1.0000
  C   C2        1.0  0.62445  0.46621  0.14366  1.0000
  C   C3        1.0  0.87556  0.96621  0.14366  1.0000
  C   C4        1.0  0.37554  0.53380  0.85633  1.0000
  C   C5        1.0  0.97272  0.98284  0.93971  1.0000
  C   C6        1.0  0.47273  0.51715  0.06029  1.0000
  C   C7        1.0  0.02728  0.01715  0.06030  1.0000
  C   C8        1.0  0.52728  0.48285  0.93970  1.0000
  C   C9        1.0  0.77222  0.90104  0.90891  1.0000
  C   C10       1.0  0.27223  0.59896  0.09109  1.0000
  C   C11       1.0  0.22776  0.09896  0.09110  1.0000
  C   C12       1.0  0.72777  0.40104  0.90891  1.0000
  C   C13       1.0  0.31769  0.11298  0.88972  1.0000
  C   C14       1.0  0.81768  0.38702  0.11028  1.0000
  C   C15       1.0  0.68233  0.88702  0.11028  1.0000
  C   C16       1.0  0.18232  0.61297  0.88971  1.0000
  C   C17       1.0  0.63108  0.85456  0.99206  1.0000
  C   C18       1.0  0.13110  0.64544  0.00793  1.0000
  C   C19       1.0  0.36892  0.14545  0.00794  1.0000
  C   C20       1.0  0.86891  0.35455  0.99206  1.0000
  S   S1        1.0  0.07644  0.99127  0.70516  1.0000
  S   S2        1.0  0.57646  0.50874  0.29484  1.0000
  S   S3        1.0  0.92356  0.00873  0.29484  1.0000
  S   S4        1.0  0.42355  0.49126  0.70516  1.0000
  O   O1        1.0  0.11253  0.85297  0.68638  1.0000
  O   O2        1.0  0.61253  0.64703  0.31362  1.0000
  O   O3        1.0  0.88748  0.14703  0.31362  1.0000
  O   O4        1.0  0.38746  0.35297  0.68638  1.0000
  O   O5        1.0  0.25522  0.06030  0.64419  1.0000
  O   O6        1.0  0.75523  0.43970  0.35581  1.0000
  O   O7        1.0  0.74478  0.93969  0.35582  1.0000
  O   O8        1.0  0.24477  0.56030  0.64419  1.0000
  O   O9        1.0  0.82064  0.02502  0.68099  1.0000
  O   O10       1.0  0.32065  0.47499  0.31902  1.0000
  O   O11       1.0  0.17936  0.97498  0.31902  1.0000
  O   O12       1.0  0.67936  0.52500  0.68098  1.0000
  O   O13       1.0  0.07038  0.68847  0.41109  1.0000
  O   O14       1.0  0.57038  0.81153  0.58891  1.0000
  O   O15       1.0  0.92962  0.31153  0.58890  1.0000
  O   O16       1.0  0.42962  0.18847  0.41109  1.0000
