data_image0
_chemical_formula_structural       Li4H20C20S4O16
_chemical_formula_sum              "Li4 H20 C20 S4 O16"
_cell_length_a       7.8032
_cell_length_b       7.96936
_cell_length_c       10.9127
_cell_angle_alpha    104.454
_cell_angle_beta     90
_cell_angle_gamma    90.0001

_space_group_name_H-M_alt    "P 1"
_space_group_IT_number       1

loop_
  _space_group_symop_operation_xyz
  'x, y, z'

loop_
  _atom_site_type_symbol
  _atom_site_label
  _atom_site_symmetry_multiplicity
  _atom_site_fract_x
  _atom_site_fract_y
  _atom_site_fract_z
  _atom_site_occupancy
  Li  Li1       1.0  0.64581  0.74742  0.91017  1.0000
  Li  Li2       1.0  0.14581  0.75258  0.08983  1.0000
  Li  Li3       1.0  0.35419  0.25258  0.08983  1.0000
  Li  Li4       1.0  0.85419  0.24742  0.91017  1.0000
  H   H1        1.0  0.54389  0.42643  0.86550  1.0000
  H   H2        1.0  0.04389  0.07357  0.13450  1.0000
  H   H3        1.0  0.45611  0.57357  0.13450  1.0000
  H   H4        1.0  0.95611  0.92643  0.86550  1.0000
  H   H5        1.0  0.38729  0.55658  0.88142  1.0000
  H   H6        1.0  0.88729  0.94342  0.11858  1.0000
  H   H7        1.0  0.61271  0.44342  0.11857  1.0000
  H   H8        1.0  0.11271  0.05658  0.88142  1.0000
  H   H9        1.0  0.32734  0.68448  0.72822  1.0000
  H   H10       1.0  0.82734  0.81552  0.27178  1.0000
  H   H11       1.0  0.67266  0.31552  0.27178  1.0000
  H   H12       1.0  0.17266  0.18448  0.72822  1.0000
  H   H13       1.0  0.74987  0.45570  0.67314  1.0000
  H   H14       1.0  0.24988  0.04430  0.32686  1.0000
  H   H15       1.0  0.25012  0.54430  0.32686  1.0000
  H   H16       1.0  0.75012  0.95570  0.67314  1.0000
  H   H17       1.0  0.43220  0.66412  0.51094  1.0000
  H   H18       1.0  0.93220  0.83588  0.48906  1.0000
  H   H19       1.0  0.56780  0.33588  0.48906  1.0000
  H   H20       1.0  0.06780  0.16412  0.51094  1.0000
  C   C1        1.0  0.08233  0.57198  0.66655  1.0000
  C   C2        1.0  0.58233  0.92802  0.33344  1.0000
  C   C3        1.0  0.91767  0.42802  0.33344  1.0000
  C   C4        1.0  0.41768  0.07198  0.66656  1.0000
  C   C5        1.0  0.24420  0.63090  0.64812  1.0000
  C   C6        1.0  0.74420  0.86910  0.35188  1.0000
  C   C7        1.0  0.75580  0.36910  0.35188  1.0000
  C   C8        1.0  0.25580  0.13090  0.64812  1.0000
  C   C9        1.0  0.96871  0.50456  0.56293  1.0000
  C   C10       1.0  0.46871  0.99544  0.43706  1.0000
  C   C11       1.0  0.03129  0.49544  0.43706  1.0000
  C   C12       1.0  0.53129  0.00456  0.56294  1.0000
  C   C13       1.0  0.79958  0.44716  0.57875  1.0000
  C   C14       1.0  0.29958  0.05284  0.42125  1.0000
  C   C15       1.0  0.20042  0.55284  0.42125  1.0000
  C   C16       1.0  0.70042  0.94716  0.57875  1.0000
  C   C17       1.0  0.30322  0.61976  0.52436  1.0000
  C   C18       1.0  0.80323  0.88025  0.47564  1.0000
  C   C19       1.0  0.69677  0.38025  0.47564  1.0000
  C   C20       1.0  0.19677  0.11975  0.52436  1.0000
  S   S1        1.0  0.01736  0.58149  0.82447  1.0000
  S   S2        1.0  0.51736  0.91851  0.17553  1.0000
  S   S3        1.0  0.98264  0.41851  0.17552  1.0000
  S   S4        1.0  0.48264  0.08149  0.82448  1.0000
  O   O1        1.0  0.87899  0.71230  0.85423  1.0000
  O   O2        1.0  0.37899  0.78770  0.14577  1.0000
  O   O3        1.0  0.12101  0.28770  0.14577  1.0000
  O   O4        1.0  0.62101  0.21230  0.85423  1.0000
  O   O5        1.0  0.95874  0.40831  0.82704  1.0000
  O   O6        1.0  0.45873  0.09169  0.17296  1.0000
  O   O7        1.0  0.04127  0.59169  0.17296  1.0000
  O   O8        1.0  0.54127  0.90831  0.82704  1.0000
  O   O9        1.0  0.16778  0.63980  0.90599  1.0000
  O   O10       1.0  0.66778  0.86021  0.09401  1.0000
  O   O11       1.0  0.83222  0.36021  0.09401  1.0000
  O   O12       1.0  0.33222  0.13979  0.90599  1.0000
  O   O13       1.0  0.51083  0.54499  0.86374  1.0000
  O   O14       1.0  0.01082  0.95501  0.13626  1.0000
  O   O15       1.0  0.48917  0.45500  0.13625  1.0000
  O   O16       1.0  0.98917  0.04499  0.86374  1.0000
