data_image0
_chemical_formula_structural       K4H20C20S4O16
_chemical_formula_sum              "K4 H20 C20 S4 O16"
_cell_length_a       8.20414
_cell_length_b       8.32127
_cell_length_c       10.9492
_cell_angle_alpha    90.0004
_cell_angle_beta     103.477
_cell_angle_gamma    89.9998

_space_group_name_H-M_alt    "P 1"
_space_group_IT_number       1

loop_
  _space_group_symop_operation_xyz
  'x, y, z'

loop_
  _atom_site_type_symbol
  _atom_site_label
  _atom_site_symmetry_multiplicity
  _atom_site_fract_x
  _atom_site_fract_y
  _atom_site_fract_z
  _atom_site_occupancy
  K   K1        1.0  0.80751  0.78306  0.96704  1.0000
  K   K2        1.0  0.69250  0.28307  0.03296  1.0000
  K   K3        1.0  0.19249  0.21694  0.03296  1.0000
  K   K4        1.0  0.30752  0.71694  0.96704  1.0000
  H   H1        1.0  0.10252  0.97255  0.81488  1.0000
  H   H2        1.0  0.39748  0.47255  0.18512  1.0000
  H   H3        1.0  0.89748  0.02745  0.18512  1.0000
  H   H4        1.0  0.60251  0.52745  0.81487  1.0000
  H   H5        1.0  0.94766  0.06864  0.83903  1.0000
  H   H6        1.0  0.55234  0.56864  0.16097  1.0000
  H   H7        1.0  0.05234  0.93136  0.16097  1.0000
  H   H8        1.0  0.44765  0.43137  0.83902  1.0000
  H   H9        1.0  0.51107  0.78897  0.70038  1.0000
  H   H10       1.0  0.98894  0.28897  0.29962  1.0000
  H   H11       1.0  0.48893  0.21103  0.29962  1.0000
  H   H12       1.0  0.01106  0.71103  0.70038  1.0000
  H   H13       1.0  0.36672  0.35114  0.64463  1.0000
  H   H14       1.0  0.13330  0.85113  0.35537  1.0000
  H   H15       1.0  0.63329  0.64887  0.35537  1.0000
  H   H16       1.0  0.86671  0.14886  0.64463  1.0000
  H   H17       1.0  0.60697  0.58505  0.57171  1.0000
  H   H18       1.0  0.89302  0.08505  0.42828  1.0000
  H   H19       1.0  0.39303  0.41495  0.42829  1.0000
  H   H20       1.0  0.10698  0.91495  0.57172  1.0000
  C   C1        1.0  0.52673  0.82102  0.60754  1.0000
  C   C2        1.0  0.97328  0.32101  0.39246  1.0000
  C   C3        1.0  0.47328  0.17898  0.39246  1.0000
  C   C4        1.0  0.02672  0.67898  0.60753  1.0000
  C   C5        1.0  0.49282  0.98053  0.56276  1.0000
  C   C6        1.0  0.00719  0.48052  0.43725  1.0000
  C   C7        1.0  0.50719  0.01947  0.43725  1.0000
  C   C8        1.0  0.99281  0.51947  0.56276  1.0000
  C   C9        1.0  0.44415  0.10615  0.63640  1.0000
  C   C10       1.0  0.05585  0.60614  0.36360  1.0000
  C   C11       1.0  0.55585  0.89385  0.36360  1.0000
  C   C12       1.0  0.94414  0.39385  0.63640  1.0000
  C   C13       1.0  0.40794  0.25868  0.58821  1.0000
  C   C14       1.0  0.09206  0.75867  0.41179  1.0000
  C   C15       1.0  0.59206  0.74132  0.41179  1.0000
  C   C16       1.0  0.90793  0.24133  0.58821  1.0000
  C   C17       1.0  0.57709  0.70534  0.53438  1.0000
  C   C18       1.0  0.92292  0.20534  0.46562  1.0000
  C   C19       1.0  0.42292  0.29466  0.46563  1.0000
  C   C20       1.0  0.07708  0.79466  0.53438  1.0000
  S   S1        1.0  0.42826  0.06889  0.79378  1.0000
  S   S2        1.0  0.07175  0.56888  0.20623  1.0000
  S   S3        1.0  0.57174  0.93111  0.20622  1.0000
  S   S4        1.0  0.92825  0.43112  0.79377  1.0000
  O   O1        1.0  0.59352  0.01500  0.86516  1.0000
  O   O2        1.0  0.90648  0.51499  0.13486  1.0000
  O   O3        1.0  0.40648  0.98500  0.13485  1.0000
  O   O4        1.0  0.09352  0.48500  0.86515  1.0000
  O   O5        1.0  0.29949  0.94286  0.78537  1.0000
  O   O6        1.0  0.20052  0.44285  0.21463  1.0000
  O   O7        1.0  0.70052  0.05714  0.21463  1.0000
  O   O8        1.0  0.79948  0.55715  0.78537  1.0000
  O   O9        1.0  0.37677  0.22138  0.84273  1.0000
  O   O10       1.0  0.12324  0.72137  0.15728  1.0000
  O   O11       1.0  0.62323  0.77863  0.15727  1.0000
  O   O12       1.0  0.87676  0.27863  0.84272  1.0000
  O   O13       1.0  0.00757  0.96564  0.85596  1.0000
  O   O14       1.0  0.49243  0.46564  0.14403  1.0000
  O   O15       1.0  0.99243  0.03436  0.14404  1.0000
  O   O16       1.0  0.50756  0.53437  0.85596  1.0000
