data_image0
_chemical_formula_structural       Ca2H20C20S4O16
_chemical_formula_sum              "Ca2 H20 C20 S4 O16"
_cell_length_a       7.81917
_cell_length_b       8.09827
_cell_length_c       11.2791
_cell_angle_alpha    73.7383
_cell_angle_beta     82.9063
_cell_angle_gamma    84.0182

_space_group_name_H-M_alt    "P 1"
_space_group_IT_number       1

loop_
  _space_group_symop_operation_xyz
  'x, y, z'

loop_
  _atom_site_type_symbol
  _atom_site_label
  _atom_site_symmetry_multiplicity
  _atom_site_fract_x
  _atom_site_fract_y
  _atom_site_fract_z
  _atom_site_occupancy
  Ca  Ca1       1.0  0.22578  0.24234  0.00236  1.0000
  Ca  Ca2       1.0  0.77422  0.75766  0.99764  1.0000
  H   H1        1.0  0.04176  0.91363  0.13021  1.0000
  H   H2        1.0  0.95824  0.08637  0.86979  1.0000
  H   H3        1.0  0.93022  0.08125  0.14622  1.0000
  H   H4        1.0  0.06978  0.91875  0.85378  1.0000
  H   H5        1.0  0.34043  0.59615  0.86861  1.0000
  H   H6        1.0  0.65957  0.40385  0.13139  1.0000
  H   H7        1.0  0.50422  0.46261  0.86319  1.0000
  H   H8        1.0  0.49578  0.53739  0.13681  1.0000
  H   H9        1.0  0.63627  0.70857  0.30920  1.0000
  H   H10       1.0  0.36373  0.29143  0.69079  1.0000
  H   H11       1.0  0.62112  0.54840  0.53384  1.0000
  H   H12       1.0  0.37888  0.45161  0.46616  1.0000
  H   H13       1.0  0.53611  0.69965  0.69350  1.0000
  H   H14       1.0  0.46389  0.30035  0.30650  1.0000
  H   H15       1.0  0.04662  0.76977  0.69874  1.0000
  H   H16       1.0  0.95338  0.23022  0.30127  1.0000
  H   H17       1.0  0.15725  0.91119  0.48048  1.0000
  H   H18       1.0  0.84275  0.08881  0.51952  1.0000
  H   H19       1.0  0.14722  0.77049  0.31589  1.0000
  H   H20       1.0  0.85278  0.22951  0.68411  1.0000
  C   C1        1.0  0.55811  0.95303  0.34532  1.0000
  C   C2        1.0  0.44189  0.04697  0.65468  1.0000
  C   C3        1.0  0.59694  0.77685  0.37986  1.0000
  C   C4        1.0  0.40307  0.22315  0.62014  1.0000
  C   C5        1.0  0.58730  0.68674  0.50671  1.0000
  C   C6        1.0  0.41269  0.31326  0.49328  1.0000
  C   C7        1.0  0.53882  0.77213  0.59662  1.0000
  C   C8        1.0  0.46118  0.22787  0.40338  1.0000
  C   C9        1.0  0.50471  0.04741  0.43535  1.0000
  C   C10       1.0  0.49529  0.95260  0.56465  1.0000
  C   C11       1.0  0.97649  0.54639  0.65534  1.0000
  C   C12       1.0  0.02351  0.45361  0.34467  1.0000
  C   C13       1.0  0.04224  0.70614  0.62624  1.0000
  C   C14       1.0  0.95777  0.29385  0.37377  1.0000
  C   C15       1.0  0.10375  0.78592  0.50266  1.0000
  C   C16       1.0  0.89625  0.21408  0.49734  1.0000
  C   C17       1.0  0.09772  0.70669  0.41020  1.0000
  C   C18       1.0  0.90228  0.29331  0.58980  1.0000
  C   C19       1.0  0.96905  0.45777  0.56303  1.0000
  C   C20       1.0  0.03095  0.54223  0.43697  1.0000
  S   S1        1.0  0.58577  0.06199  0.18418  1.0000
  S   S2        1.0  0.41423  0.93801  0.81582  1.0000
  S   S3        1.0  0.89661  0.45535  0.81268  1.0000
  S   S4        1.0  0.10339  0.54465  0.18732  1.0000
  O   O1        1.0  0.72486  0.17948  0.16828  1.0000
  O   O2        1.0  0.27514  0.82052  0.83172  1.0000
  O   O3        1.0  0.42136  0.15893  0.15116  1.0000
  O   O4        1.0  0.57863  0.84108  0.84884  1.0000
  O   O5        1.0  0.63457  0.92858  0.11894  1.0000
  O   O6        1.0  0.36543  0.07142  0.88106  1.0000
  O   O7        1.0  0.71901  0.41407  0.81361  1.0000
  O   O8        1.0  0.28098  0.58593  0.18639  1.0000
  O   O9        1.0  0.01117  0.29719  0.85924  1.0000
  O   O10       1.0  0.98883  0.70282  0.14076  1.0000
  O   O11       1.0  0.91609  0.58429  0.87816  1.0000
  O   O12       1.0  0.08391  0.41571  0.12184  1.0000
  O   O13       1.0  0.05036  0.03447  0.12996  1.0000
  O   O14       1.0  0.94964  0.96553  0.87004  1.0000
  O   O15       1.0  0.37742  0.47242  0.88219  1.0000
  O   O16       1.0  0.62258  0.52758  0.11781  1.0000
