data_image0
_chemical_formula_structural       Cd2H44C56N8O8
_chemical_formula_sum              "Cd2 H44 C56 N8 O8"
_cell_length_a       9.61027
_cell_length_b       12.9765
_cell_length_c       13.673
_cell_angle_alpha    117.286
_cell_angle_beta     94.6
_cell_angle_gamma    102.905

_space_group_name_H-M_alt    "P 1"
_space_group_IT_number       1

loop_
  _space_group_symop_operation_xyz
  'x, y, z'

loop_
  _atom_site_type_symbol
  _atom_site_label
  _atom_site_symmetry_multiplicity
  _atom_site_fract_x
  _atom_site_fract_y
  _atom_site_fract_z
  _atom_site_occupancy
  Cd  Cd1       1.0  0.49776  0.84997  0.47654  1.0000
  Cd  Cd2       1.0  0.50224  0.15003  0.52346  1.0000
  H   H1        1.0  0.43791  0.23824  0.34450  1.0000
  H   H2        1.0  0.56210  0.76176  0.65550  1.0000
  H   H3        1.0  0.74173  0.58303  0.43638  1.0000
  H   H4        1.0  0.25827  0.41697  0.56362  1.0000
  H   H5        1.0  0.85593  0.58545  0.61068  1.0000
  H   H6        1.0  0.14407  0.41455  0.38932  1.0000
  H   H7        1.0  0.74905  0.41037  0.64119  1.0000
  H   H8        1.0  0.25095  0.58963  0.35881  1.0000
  H   H9        1.0  0.54796  0.49249  0.27157  1.0000
  H   H10       1.0  0.45204  0.50751  0.72842  1.0000
  H   H11       1.0  0.37143  0.42397  0.12737  1.0000
  H   H12       1.0  0.62857  0.57603  0.87263  1.0000
  H   H13       1.0  0.21344  0.30917  0.10830  1.0000
  H   H14       1.0  0.78655  0.69083  0.89170  1.0000
  H   H15       1.0  0.50846  0.18103  0.07786  1.0000
  H   H16       1.0  0.49154  0.81897  0.92214  1.0000
  H   H17       1.0  0.56348  0.04612  0.89426  1.0000
  H   H18       1.0  0.43652  0.95388  0.10574  1.0000
  H   H19       1.0  0.28286  0.15525  0.72460  1.0000
  H   H20       1.0  0.71713  0.84475  0.27540  1.0000
  H   H21       1.0  0.22431  0.28811  0.90669  1.0000
  H   H22       1.0  0.77569  0.71189  0.09331  1.0000
  H   H23       1.0  0.21577  0.97567  0.33470  1.0000
  H   H24       1.0  0.78423  0.02433  0.66530  1.0000
  H   H25       1.0  0.94566  0.94917  0.29779  1.0000
  H   H26       1.0  0.05434  0.05083  0.70221  1.0000
  H   H27       1.0  0.84344  0.09830  0.44226  1.0000
  H   H28       1.0  0.15656  0.90170  0.55774  1.0000
  H   H29       1.0  0.28455  0.28662  0.64072  1.0000
  H   H30       1.0  0.71545  0.71338  0.35928  1.0000
  H   H31       1.0  0.89216  0.28167  0.64024  1.0000
  H   H32       1.0  0.10785  0.71833  0.35976  1.0000
  H   H33       1.0  0.06037  0.57532  0.76480  1.0000
  H   H34       1.0  0.93963  0.42468  0.23520  1.0000
  H   H35       1.0  0.93072  0.46807  0.78418  1.0000
  H   H36       1.0  0.06929  0.53193  0.21582  1.0000
  H   H37       1.0  0.98983  0.66141  0.97747  1.0000
  H   H38       1.0  0.01018  0.33859  0.02253  1.0000
  H   H39       1.0  0.12356  0.74879  0.17468  1.0000
  H   H40       1.0  0.87645  0.25122  0.82532  1.0000
  H   H41       1.0  0.42914  0.54799  0.05555  1.0000
  H   H42       1.0  0.57086  0.45201  0.94445  1.0000
  H   H43       1.0  0.29616  0.45950  0.85689  1.0000
  H   H44       1.0  0.70384  0.54050  0.14311  1.0000
  C   C1        1.0  0.52899  0.31724  0.40234  1.0000
  C   C2        1.0  0.47101  0.68276  0.59766  1.0000
  C   C3        1.0  0.57827  0.41239  0.37928  1.0000
  C   C4        1.0  0.42173  0.58761  0.62072  1.0000
  C   C5        1.0  0.69901  0.50978  0.45425  1.0000
  C   C6        1.0  0.30099  0.49022  0.54575  1.0000
  C   C7        1.0  0.76335  0.51032  0.54954  1.0000
  C   C8        1.0  0.23665  0.48968  0.45046  1.0000
  C   C9        1.0  0.70524  0.41330  0.56686  1.0000
  C   C10       1.0  0.29475  0.58670  0.43314  1.0000
  C   C11       1.0  0.50490  0.41143  0.28032  1.0000
  C   C12       1.0  0.49510  0.58857  0.71967  1.0000
  C   C13       1.0  0.33283  0.33086  0.11486  1.0000
  C   C14       1.0  0.66717  0.66914  0.88514  1.0000
  C   C15       1.0  0.36256  0.24312  0.00449  1.0000
  C   C16       1.0  0.63744  0.75688  0.99551  1.0000
  C   C17       1.0  0.45793  0.17453  0.00020  1.0000
  C   C18       1.0  0.54207  0.82547  0.99980  1.0000
  C   C19       1.0  0.48865  0.09913  0.89793  1.0000
  C   C20       1.0  0.51135  0.90087  0.10208  1.0000
  C   C21       1.0  0.42529  0.09120  0.79776  1.0000
  C   C22       1.0  0.57471  0.90880  0.20224  1.0000
  C   C23       1.0  0.32925  0.15947  0.80207  1.0000
  C   C24       1.0  0.67075  0.84053  0.19794  1.0000
  C   C25       1.0  0.29754  0.23391  0.90404  1.0000
  C   C26       1.0  0.70246  0.76609  0.09596  1.0000
  C   C27       1.0  0.46263  0.01197  0.68960  1.0000
  C   C28       1.0  0.53737  0.98803  0.31040  1.0000
  C   C29       1.0  0.16603  0.03875  0.39429  1.0000
  C   C30       1.0  0.83397  0.96125  0.60571  1.0000
  C   C31       1.0  0.01704  0.02537  0.37491  1.0000
  C   C32       1.0  0.98296  0.97463  0.62509  1.0000
  C   C33       1.0  0.96091  0.10987  0.45460  1.0000
  C   C34       1.0  0.03909  0.89013  0.54540  1.0000
  C   C35       1.0  0.05783  0.20854  0.55101  1.0000
  C   C36       1.0  0.94217  0.79146  0.44898  1.0000
  C   C37       1.0  0.20589  0.21420  0.56503  1.0000
  C   C38       1.0  0.79411  0.78580  0.43497  1.0000
  C   C39       1.0  0.00878  0.30471  0.63645  1.0000
  C   C40       1.0  0.99122  0.69529  0.36355  1.0000
  C   C41       1.0  0.04794  0.50129  0.78565  1.0000
  C   C42       1.0  0.95207  0.49871  0.21435  1.0000
  C   C43       1.0  0.13398  0.55417  0.90414  1.0000
  C   C44       1.0  0.86603  0.44583  0.09586  1.0000
  C   C45       1.0  0.08665  0.63643  0.99433  1.0000
  C   C46       1.0  0.91336  0.36357  0.00567  1.0000
  C   C47       1.0  0.16031  0.68487  0.10460  1.0000
  C   C48       1.0  0.83970  0.31514  0.89540  1.0000
  C   C49       1.0  0.28346  0.65185  0.12747  1.0000
  C   C50       1.0  0.71654  0.34815  0.87253  1.0000
  C   C51       1.0  0.33169  0.57108  0.03728  1.0000
  C   C52       1.0  0.66831  0.42892  0.96272  1.0000
  C   C53       1.0  0.25782  0.52244  0.92662  1.0000
  C   C54       1.0  0.74219  0.47756  0.07338  1.0000
  C   C55       1.0  0.36389  0.70343  0.24591  1.0000
  C   C56       1.0  0.63612  0.29657  0.75409  1.0000
  N   N1        1.0  0.59131  0.31789  0.49388  1.0000
  N   N2        1.0  0.40869  0.68211  0.50612  1.0000
  N   N3        1.0  0.39616  0.32229  0.20962  1.0000
  N   N4        1.0  0.60384  0.67770  0.79038  1.0000
  N   N5        1.0  0.25813  0.13137  0.48893  1.0000
  N   N6        1.0  0.74187  0.86863  0.51107  1.0000
  N   N7        1.0  0.10022  0.40902  0.70248  1.0000
  N   N8        1.0  0.89978  0.59098  0.29752  1.0000
  O   O1        1.0  0.39841  0.00151  0.59648  1.0000
  O   O2        1.0  0.60159  0.99849  0.40352  1.0000
  O   O3        1.0  0.55303  0.95515  0.69031  1.0000
  O   O4        1.0  0.44696  0.04485  0.30969  1.0000
  O   O5        1.0  0.47179  0.67013  0.26585  1.0000
  O   O6        1.0  0.52821  0.32986  0.73416  1.0000
  O   O7        1.0  0.31749  0.78247  0.32455  1.0000
  O   O8        1.0  0.68251  0.21753  0.67544  1.0000
