data_image0
_chemical_formula_structural       CuH24PdC20N12
_chemical_formula_sum              "Cu1 H24 Pd1 C20 N12"
_cell_length_a       8.23667
_cell_length_b       8.43469
_cell_length_c       9.82795
_cell_angle_alpha    72.0491
_cell_angle_beta     73.8479
_cell_angle_gamma    87.5084

_space_group_name_H-M_alt    "P 1"
_space_group_IT_number       1

loop_
  _space_group_symop_operation_xyz
  'x, y, z'

loop_
  _atom_site_type_symbol
  _atom_site_label
  _atom_site_symmetry_multiplicity
  _atom_site_fract_x
  _atom_site_fract_y
  _atom_site_fract_z
  _atom_site_occupancy
  Cu  Cu1       1.0  0.50000  0.50000  0.50000  1.0000
  H   H1        1.0  0.76484  0.78164  0.21765  1.0000
  H   H2        1.0  0.23516  0.21836  0.78236  1.0000
  H   H3        1.0  0.55078  0.74953  0.66888  1.0000
  H   H4        1.0  0.44922  0.25048  0.33112  1.0000
  H   H5        1.0  0.89513  0.04693  0.27251  1.0000
  H   H6        1.0  0.10488  0.95306  0.72749  1.0000
  H   H7        1.0  0.87948  0.11562  0.50787  1.0000
  H   H8        1.0  0.12053  0.88437  0.49213  1.0000
  H   H9        1.0  0.76594  0.97449  0.68323  1.0000
  H   H10       1.0  0.23407  0.02551  0.31677  1.0000
  H   H11       1.0  0.65877  0.13364  0.57519  1.0000
  H   H12       1.0  0.34123  0.86636  0.42481  1.0000
  H   H13       1.0  0.41573  0.31797  0.86570  1.0000
  H   H14       1.0  0.58427  0.68202  0.13430  1.0000
  H   H15       1.0  0.87304  0.44247  0.52135  1.0000
  H   H16       1.0  0.12695  0.55753  0.47865  1.0000
  H   H17       1.0  0.94423  0.27604  0.79054  1.0000
  H   H18       1.0  0.05577  0.72396  0.20946  1.0000
  H   H19       1.0  0.50947  0.14959  0.07988  1.0000
  H   H20       1.0  0.49053  0.85041  0.92012  1.0000
  H   H21       1.0  0.69298  0.25297  0.08528  1.0000
  H   H22       1.0  0.30703  0.74703  0.91471  1.0000
  H   H23       1.0  0.71238  0.06241  0.03785  1.0000
  H   H24       1.0  0.28763  0.93759  0.96215  1.0000
  Pd  Pd1       1.0  1.00000  0.50000  0.00001  1.0000
  C   C1        1.0  0.73799  0.81458  0.31959  1.0000
  C   C2        1.0  0.26201  0.18541  0.68041  1.0000
  C   C3        1.0  0.62576  0.79292  0.55363  1.0000
  C   C4        1.0  0.37424  0.20709  0.44637  1.0000
  C   C5        1.0  0.80342  0.94680  0.34484  1.0000
  C   C6        1.0  0.19658  0.05319  0.65516  1.0000
  C   C7        1.0  0.75967  0.04491  0.57064  1.0000
  C   C8        1.0  0.24033  0.95509  0.42936  1.0000
  C   C9        1.0  0.54880  0.33061  0.80538  1.0000
  C   C10       1.0  0.45120  0.66939  0.19462  1.0000
  C   C11       1.0  0.78983  0.39446  0.63317  1.0000
  C   C12       1.0  0.21016  0.60554  0.36682  1.0000
  C   C13       1.0  0.82584  0.31143  0.76479  1.0000
  C   C14       1.0  0.17416  0.68857  0.23520  1.0000
  C   C15       1.0  0.64550  0.17868  0.02910  1.0000
  C   C16       1.0  0.35450  0.82132  0.97089  1.0000
  C   C17       1.0  0.83344  0.44140  0.19940  1.0000
  C   C18       1.0  0.16655  0.55860  0.80062  1.0000
  C   C19       1.0  0.11378  0.28696  0.05671  1.0000
  C   C20       1.0  0.88622  0.71304  0.94330  1.0000
  N   N1        1.0  0.62741  0.71987  0.45069  1.0000
  N   N2        1.0  0.37259  0.28013  0.54931  1.0000
  N   N3        1.0  0.73147  0.93066  0.49343  1.0000
  N   N4        1.0  0.26853  0.06934  0.50657  1.0000
  N   N5        1.0  0.61672  0.40470  0.66015  1.0000
  N   N6        1.0  0.38328  0.59530  0.33985  1.0000
  N   N7        1.0  0.67211  0.27174  0.87222  1.0000
  N   N8        1.0  0.32790  0.72826  0.12778  1.0000
  N   N9        1.0  0.73193  0.41147  0.31568  1.0000
  N   N10       1.0  0.26807  0.58853  0.68433  1.0000
  N   N11       1.0  0.18471  0.16221  0.08506  1.0000
  N   N12       1.0  0.81528  0.83779  0.91495  1.0000
