data_image0
_chemical_formula_structural       V8Ni2H64C24N12O24
_chemical_formula_sum              "V8 Ni2 H64 C24 N12 O24"
_cell_length_a       9.3484
_cell_length_b       9.69615
_cell_length_c       13.667
_cell_angle_alpha    103.289
_cell_angle_beta     90
_cell_angle_gamma    90.0001

_space_group_name_H-M_alt    "P 1"
_space_group_IT_number       1

loop_
  _space_group_symop_operation_xyz
  'x, y, z'

loop_
  _atom_site_type_symbol
  _atom_site_label
  _atom_site_symmetry_multiplicity
  _atom_site_fract_x
  _atom_site_fract_y
  _atom_site_fract_z
  _atom_site_occupancy
  V   V1        1.0  0.10750  0.86462  0.72315  1.0000
  V   V2        1.0  0.60750  0.63537  0.77684  1.0000
  V   V3        1.0  0.89249  0.13538  0.27684  1.0000
  V   V4        1.0  0.39250  0.36464  0.22316  1.0000
  V   V5        1.0  0.95984  0.56074  0.71483  1.0000
  V   V6        1.0  0.45984  0.93925  0.78517  1.0000
  V   V7        1.0  0.04016  0.43926  0.28517  1.0000
  V   V8        1.0  0.54016  0.06075  0.21483  1.0000
  Ni  Ni1       1.0  0.00000  1.00000  1.00000  1.0000
  Ni  Ni2       1.0  0.50000  0.50000  0.50000  1.0000
  H   H1        1.0  0.17839  0.17731  0.08605  1.0000
  H   H2        1.0  0.67839  0.32268  0.41395  1.0000
  H   H3        1.0  0.82161  0.82269  0.91395  1.0000
  H   H4        1.0  0.32161  0.67732  0.58605  1.0000
  H   H5        1.0  0.26550  0.08079  0.98745  1.0000
  H   H6        1.0  0.76550  0.41920  0.51254  1.0000
  H   H7        1.0  0.73451  0.91921  0.01255  1.0000
  H   H8        1.0  0.23451  0.58079  0.48746  1.0000
  H   H9        1.0  0.57703  0.37465  0.86542  1.0000
  H   H10       1.0  0.07703  0.12535  0.63458  1.0000
  H   H11       1.0  0.42297  0.62535  0.13458  1.0000
  H   H12       1.0  0.92297  0.87465  0.36542  1.0000
  H   H13       1.0  0.54845  0.20433  0.88139  1.0000
  H   H14       1.0  0.04845  0.29566  0.61861  1.0000
  H   H15       1.0  0.45155  0.79567  0.11861  1.0000
  H   H16       1.0  0.95155  0.70434  0.38139  1.0000
  H   H17       1.0  0.77572  0.03189  0.84612  1.0000
  H   H18       1.0  0.27572  0.46810  0.65389  1.0000
  H   H19       1.0  0.22428  0.96811  0.15388  1.0000
  H   H20       1.0  0.72428  0.53189  0.34612  1.0000
  H   H21       1.0  0.93197  0.10268  0.80584  1.0000
  H   H22       1.0  0.43197  0.39732  0.69416  1.0000
  H   H23       1.0  0.06803  0.89732  0.19416  1.0000
  H   H24       1.0  0.56803  0.60268  0.30584  1.0000
  H   H25       1.0  0.21932  0.31869  0.96721  1.0000
  H   H26       1.0  0.71932  0.18131  0.53279  1.0000
  H   H27       1.0  0.78068  0.68131  0.03279  1.0000
  H   H28       1.0  0.28068  0.81869  0.46721  1.0000
  H   H29       1.0  0.14900  0.17895  0.87242  1.0000
  H   H30       1.0  0.64900  0.32104  0.62758  1.0000
  H   H31       1.0  0.85100  0.82104  0.12758  1.0000
  H   H32       1.0  0.35100  0.67895  0.37242  1.0000
  H   H33       1.0  0.57733  0.36086  0.04220  1.0000
  H   H34       1.0  0.07734  0.13913  0.45780  1.0000
  H   H35       1.0  0.42267  0.63914  0.95780  1.0000
  H   H36       1.0  0.92267  0.86087  0.54220  1.0000
  H   H37       1.0  0.73579  0.43044  0.00106  1.0000
  H   H38       1.0  0.23579  0.06956  0.49894  1.0000
  H   H39       1.0  0.26421  0.56956  0.99894  1.0000
  H   H40       1.0  0.76421  0.93044  0.50106  1.0000
  H   H41       1.0  0.79070  0.25297  0.10341  1.0000
  H   H42       1.0  0.29069  0.24703  0.39659  1.0000
  H   H43       1.0  0.20930  0.74703  0.89659  1.0000
  H   H44       1.0  0.70931  0.75297  0.60341  1.0000
  H   H45       1.0  0.68685  0.12429  0.01959  1.0000
  H   H46       1.0  0.18684  0.37570  0.48041  1.0000
  H   H47       1.0  0.31316  0.87570  0.98041  1.0000
  H   H48       1.0  0.81316  0.62430  0.51959  1.0000
  H   H49       1.0  0.81226  0.33612  0.81788  1.0000
  H   H50       1.0  0.31226  0.16387  0.68212  1.0000
  H   H51       1.0  0.18774  0.66388  0.18212  1.0000
  H   H52       1.0  0.68774  0.83612  0.31787  1.0000
  H   H53       1.0  0.70927  0.19397  0.74461  1.0000
  H   H54       1.0  0.20927  0.30603  0.75539  1.0000
  H   H55       1.0  0.29073  0.80604  0.25539  1.0000
  H   H56       1.0  0.79073  0.69396  0.24461  1.0000
  H   H57       1.0  0.98572  0.34736  0.05714  1.0000
  H   H58       1.0  0.48571  0.15264  0.44286  1.0000
  H   H59       1.0  0.01428  0.65264  0.94286  1.0000
  H   H60       1.0  0.51429  0.84736  0.55714  1.0000
  H   H61       1.0  0.96622  0.36841  0.93205  1.0000
  H   H62       1.0  0.46622  0.13159  0.56795  1.0000
  H   H63       1.0  0.03378  0.63159  0.06795  1.0000
  H   H64       1.0  0.53378  0.86840  0.43205  1.0000
  C   C1        1.0  0.83875  0.12946  0.85499  1.0000
  C   C2        1.0  0.33875  0.37053  0.64501  1.0000
  C   C3        1.0  0.16125  0.87054  0.14501  1.0000
  C   C4        1.0  0.66125  0.62946  0.35499  1.0000
  C   C5        1.0  0.13961  0.23279  0.95202  1.0000
  C   C6        1.0  0.63961  0.26721  0.54797  1.0000
  C   C7        1.0  0.86039  0.76721  0.04797  1.0000
  C   C8        1.0  0.36039  0.73279  0.45203  1.0000
  C   C9        1.0  0.67194  0.33359  0.99422  1.0000
  C   C10       1.0  0.17194  0.16640  0.50578  1.0000
  C   C11       1.0  0.32806  0.66641  0.00578  1.0000
  C   C12       1.0  0.82806  0.83360  0.49422  1.0000
  C   C13       1.0  0.75651  0.21696  0.02521  1.0000
  C   C14       1.0  0.25651  0.28304  0.47479  1.0000
  C   C15       1.0  0.24349  0.78304  0.97479  1.0000
  C   C16       1.0  0.74349  0.71697  0.52521  1.0000
  C   C17       1.0  0.75013  0.24068  0.82002  1.0000
  C   C18       1.0  0.25013  0.25932  0.67998  1.0000
  C   C19       1.0  0.24987  0.75932  0.17998  1.0000
  C   C20       1.0  0.74987  0.74068  0.32002  1.0000
  C   C21       1.0  0.99143  0.29149  0.97753  1.0000
  C   C22       1.0  0.49143  0.20851  0.52247  1.0000
  C   C23       1.0  0.00857  0.70851  0.02247  1.0000
  C   C24       1.0  0.50857  0.79149  0.47753  1.0000
  N   N1        1.0  0.88535  0.17291  0.96170  1.0000
  N   N2        1.0  0.38535  0.32709  0.53830  1.0000
  N   N3        1.0  0.11465  0.82709  0.03830  1.0000
  N   N4        1.0  0.61465  0.67291  0.46170  1.0000
  N   N5        1.0  0.16861  0.12664  0.01148  1.0000
  N   N6        1.0  0.66861  0.37335  0.48852  1.0000
  N   N7        1.0  0.83140  0.87336  0.98852  1.0000
  N   N8        1.0  0.33140  0.62665  0.51148  1.0000
  N   N9        1.0  0.62541  0.28661  0.88763  1.0000
  N   N10       1.0  0.12541  0.21338  0.61237  1.0000
  N   N11       1.0  0.37459  0.71339  0.11237  1.0000
  N   N12       1.0  0.87459  0.78662  0.38763  1.0000
  O   O1        1.0  0.05036  0.90151  0.84087  1.0000
  O   O2        1.0  0.55037  0.59848  0.65913  1.0000
  O   O3        1.0  0.94964  0.09850  0.15913  1.0000
  O   O4        1.0  0.44962  0.40153  0.34088  1.0000
  O   O5        1.0  0.04034  0.98516  0.66574  1.0000
  O   O6        1.0  0.54034  0.51482  0.83425  1.0000
  O   O7        1.0  0.95966  0.01484  0.33426  1.0000
  O   O8        1.0  0.45966  0.48518  0.16575  1.0000
  O   O9        1.0  0.92387  0.42061  0.62130  1.0000
  O   O10       1.0  0.42387  0.07937  0.87871  1.0000
  O   O11       1.0  0.07613  0.57939  0.37871  1.0000
  O   O12       1.0  0.57612  0.92063  0.12128  1.0000
  O   O13       1.0  0.04712  0.69161  0.65891  1.0000
  O   O14       1.0  0.54712  0.80836  0.84108  1.0000
  O   O15       1.0  0.95286  0.30839  0.34109  1.0000
  O   O16       1.0  0.45288  0.19164  0.15892  1.0000
  O   O17       1.0  0.30015  0.86627  0.71759  1.0000
  O   O18       1.0  0.80016  0.63372  0.78241  1.0000
  O   O19       1.0  0.69985  0.13372  0.28241  1.0000
  O   O20       1.0  0.19983  0.36629  0.21759  1.0000
  O   O21       1.0  0.06738  0.50925  0.79480  1.0000
  O   O22       1.0  0.56737  0.99074  0.70521  1.0000
  O   O23       1.0  0.93262  0.49076  0.20521  1.0000
  O   O24       1.0  0.43263  0.00925  0.29479  1.0000
