data_image0
_chemical_formula_structural       Zn4H32C52S20N8
_chemical_formula_sum              "Zn4 H32 C52 S20 N8"
_cell_length_a       9.13228
_cell_length_b       11.593
_cell_length_c       14.5307
_cell_angle_alpha    89.9997
_cell_angle_beta     90.0001
_cell_angle_gamma    101.65

_space_group_name_H-M_alt    "P 1"
_space_group_IT_number       1

loop_
  _space_group_symop_operation_xyz
  'x, y, z'

loop_
  _atom_site_type_symbol
  _atom_site_label
  _atom_site_symmetry_multiplicity
  _atom_site_fract_x
  _atom_site_fract_y
  _atom_site_fract_z
  _atom_site_occupancy
  Zn  Zn1       1.0  0.66818  0.63285  0.79068  1.0000
  Zn  Zn2       1.0  0.83182  0.86715  0.29068  1.0000
  Zn  Zn3       1.0  0.33182  0.36715  0.20932  1.0000
  Zn  Zn4       1.0  0.16818  0.13285  0.70932  1.0000
  H   H1        1.0  0.82029  0.05640  0.90000  1.0000
  H   H2        1.0  0.67971  0.44360  0.40000  1.0000
  H   H3        1.0  0.17970  0.94359  0.10000  1.0000
  H   H4        1.0  0.32030  0.55640  0.60000  1.0000
  H   H5        1.0  0.90605  0.75886  0.65960  1.0000
  H   H6        1.0  0.59395  0.74114  0.15960  1.0000
  H   H7        1.0  0.09395  0.24114  0.34040  1.0000
  H   H8        1.0  0.40604  0.25885  0.84040  1.0000
  H   H9        1.0  0.07241  0.81390  0.02066  1.0000
  H   H10       1.0  0.42759  0.68610  0.52066  1.0000
  H   H11       1.0  0.92759  0.18609  0.97934  1.0000
  H   H12       1.0  0.57241  0.31391  0.47934  1.0000
  H   H13       1.0  0.85744  0.34001  0.58596  1.0000
  H   H14       1.0  0.64256  0.15999  0.08596  1.0000
  H   H15       1.0  0.14256  0.65999  0.41404  1.0000
  H   H16       1.0  0.35744  0.84000  0.91404  1.0000
  H   H17       1.0  0.93437  0.66103  0.91862  1.0000
  H   H18       1.0  0.56563  0.83897  0.41862  1.0000
  H   H19       1.0  0.06562  0.33897  0.08138  1.0000
  H   H20       1.0  0.43439  0.16103  0.58138  1.0000
  H   H21       1.0  0.71984  0.40851  0.71444  1.0000
  H   H22       1.0  0.78016  0.09149  0.21443  1.0000
  H   H23       1.0  0.28017  0.59149  0.28557  1.0000
  H   H24       1.0  0.21983  0.90850  0.78556  1.0000
  H   H25       1.0  0.68470  0.88921  0.80825  1.0000
  H   H26       1.0  0.81529  0.61078  0.30824  1.0000
  H   H27       1.0  0.31529  0.11078  0.19176  1.0000
  H   H28       1.0  0.18472  0.38922  0.69176  1.0000
  H   H29       1.0  0.04299  0.70840  0.52640  1.0000
  H   H30       1.0  0.45700  0.79159  0.02640  1.0000
  H   H31       1.0  0.95701  0.29160  0.47360  1.0000
  H   H32       1.0  0.54298  0.20840  0.97360  1.0000
  C   C1        1.0  0.96026  0.95203  0.97025  1.0000
  C   C2        1.0  0.53973  0.54797  0.47025  1.0000
  C   C3        1.0  0.03971  0.04796  0.02975  1.0000
  C   C4        1.0  0.46028  0.45204  0.52975  1.0000
  C   C5        1.0  0.33870  0.59381  0.80587  1.0000
  C   C6        1.0  0.16130  0.90621  0.30587  1.0000
  C   C7        1.0  0.66130  0.40620  0.19413  1.0000
  C   C8        1.0  0.83870  0.09380  0.69414  1.0000
  C   C9        1.0  0.96046  0.51789  0.54032  1.0000
  C   C10       1.0  0.53954  0.98211  0.04032  1.0000
  C   C11       1.0  0.03954  0.48211  0.45968  1.0000
  C   C12       1.0  0.46045  0.01788  0.95968  1.0000
  C   C13       1.0  0.37515  0.50381  0.85785  1.0000
  C   C14       1.0  0.12486  0.99620  0.35785  1.0000
  C   C15       1.0  0.62485  0.49620  0.14215  1.0000
  C   C16       1.0  0.87514  0.00381  0.64215  1.0000
  C   C17       1.0  0.84927  0.97056  0.90817  1.0000
  C   C18       1.0  0.65072  0.52944  0.40817  1.0000
  C   C19       1.0  0.15071  0.02944  0.09183  1.0000
  C   C20       1.0  0.34929  0.47057  0.59183  1.0000
  C   C21       1.0  0.89387  0.66691  0.63912  1.0000
  C   C22       1.0  0.60613  0.83309  0.13913  1.0000
  C   C23       1.0  0.10613  0.33309  0.36087  1.0000
  C   C24       1.0  0.39387  0.16690  0.86087  1.0000
  C   C25       1.0  0.99135  0.83823  0.97323  1.0000
  C   C26       1.0  0.50865  0.66178  0.47323  1.0000
  C   C27       1.0  0.00864  0.16177  0.02677  1.0000
  C   C28       1.0  0.49136  0.33823  0.52677  1.0000
  C   C29       1.0  0.86971  0.43430  0.59702  1.0000
  C   C30       1.0  0.63029  0.06570  0.09702  1.0000
  C   C31       1.0  0.13030  0.56571  0.40297  1.0000
  C   C32       1.0  0.36970  0.93429  0.90297  1.0000
  C   C33       1.0  0.08045  0.47431  0.87067  1.0000
  C   C34       1.0  0.41956  0.02571  0.37066  1.0000
  C   C35       1.0  0.91955  0.52570  0.12934  1.0000
  C   C36       1.0  0.58045  0.97430  0.62934  1.0000
  C   C37       1.0  0.91387  0.75060  0.91626  1.0000
  C   C38       1.0  0.58613  0.74939  0.41626  1.0000
  C   C39       1.0  0.08611  0.24938  0.08375  1.0000
  C   C40       1.0  0.41389  0.25062  0.58375  1.0000
  C   C41       1.0  0.79218  0.47120  0.66987  1.0000
  C   C42       1.0  0.70781  0.02880  0.16987  1.0000
  C   C43       1.0  0.20782  0.52880  0.33013  1.0000
  C   C44       1.0  0.29218  0.97119  0.83013  1.0000
  C   C45       1.0  0.77491  0.87822  0.85449  1.0000
  C   C46       1.0  0.72508  0.62179  0.35449  1.0000
  C   C47       1.0  0.22507  0.12178  0.14551  1.0000
  C   C48       1.0  0.27493  0.37822  0.64551  1.0000
  C   C49       1.0  0.97291  0.63702  0.56440  1.0000
  C   C50       1.0  0.52708  0.86298  0.06440  1.0000
  C   C51       1.0  0.02709  0.36297  0.43560  1.0000
  C   C52       1.0  0.47291  0.13702  0.93560  1.0000
  S   S1        1.0  0.14775  0.59452  0.80023  1.0000
  S   S2        1.0  0.35226  0.90549  0.30023  1.0000
  S   S3        1.0  0.85226  0.40549  0.19977  1.0000
  S   S4        1.0  0.64775  0.09452  0.69977  1.0000
  S   S5        1.0  0.55253  0.47582  0.87632  1.0000
  S   S6        1.0  0.94748  0.02419  0.37632  1.0000
  S   S7        1.0  0.44747  0.52418  0.12368  1.0000
  S   S8        1.0  0.05253  0.97582  0.62368  1.0000
  S   S9        1.0  0.22431  0.41056  0.90984  1.0000
  S   S10       1.0  0.27569  0.08945  0.40984  1.0000
  S   S11       1.0  0.77569  0.58944  0.09016  1.0000
  S   S12       1.0  0.72432  0.91056  0.59016  1.0000
  S   S13       1.0  0.45965  0.70168  0.74501  1.0000
  S   S14       1.0  0.04035  0.79832  0.24501  1.0000
  S   S15       1.0  0.54035  0.29831  0.25499  1.0000
  S   S16       1.0  0.95965  0.20168  0.75499  1.0000
  S   S17       1.0  0.90257  0.42931  0.89959  1.0000
  S   S18       1.0  0.59744  0.07070  0.39959  1.0000
  S   S19       1.0  0.09743  0.57069  0.10041  1.0000
  S   S20       1.0  0.40257  0.92931  0.60041  1.0000
  N   N1        1.0  0.80631  0.76953  0.85794  1.0000
  N   N2        1.0  0.69369  0.73047  0.35794  1.0000
  N   N3        1.0  0.19367  0.23047  0.14205  1.0000
  N   N4        1.0  0.30633  0.26953  0.64206  1.0000
  N   N5        1.0  0.80209  0.58588  0.69013  1.0000
  N   N6        1.0  0.69792  0.91412  0.19014  1.0000
  N   N7        1.0  0.19791  0.41412  0.30987  1.0000
  N   N8        1.0  0.30208  0.08587  0.80986  1.0000
