data_image0
_chemical_formula_structural       Co2H28C40N4O10
_chemical_formula_sum              "Co2 H28 C40 N4 O10"
_cell_length_a       8.97212
_cell_length_b       10.1401
_cell_length_c       11.2882
_cell_angle_alpha    111.955
_cell_angle_beta     95.2464
_cell_angle_gamma    114.821

_space_group_name_H-M_alt    "P 1"
_space_group_IT_number       1

loop_
  _space_group_symop_operation_xyz
  'x, y, z'

loop_
  _atom_site_type_symbol
  _atom_site_label
  _atom_site_symmetry_multiplicity
  _atom_site_fract_x
  _atom_site_fract_y
  _atom_site_fract_z
  _atom_site_occupancy
  Co  Co1       1.0  0.45938  0.83874  0.69129  1.0000
  Co  Co2       1.0  0.54065  0.16134  0.30872  1.0000
  H   H1        1.0  0.37971  0.80934  0.40694  1.0000
  H   H2        1.0  0.62023  0.19058  0.59300  1.0000
  H   H3        1.0  0.45815  0.67950  0.20577  1.0000
  H   H4        1.0  0.54191  0.32052  0.79421  1.0000
  H   H5        1.0  0.64898  0.56066  0.22008  1.0000
  H   H6        1.0  0.35104  0.43934  0.77991  1.0000
  H   H7        1.0  0.82876  0.50591  0.37350  1.0000
  H   H8        1.0  0.17121  0.49405  0.62646  1.0000
  H   H9        1.0  0.93967  0.54608  0.60024  1.0000
  H   H10       1.0  0.06028  0.45388  0.39972  1.0000
  H   H11       1.0  0.95353  0.66504  0.85206  1.0000
  H   H12       1.0  0.04640  0.33485  0.14784  1.0000
  H   H13       1.0  0.84550  0.80944  0.02706  1.0000
  H   H14       1.0  0.15440  0.19033  0.97288  1.0000
  H   H15       1.0  0.63042  0.88040  0.96275  1.0000
  H   H16       1.0  0.36959  0.11952  0.03725  1.0000
  H   H17       1.0  0.95523  0.28448  0.77905  1.0000
  H   H18       1.0  0.04487  0.71564  0.22102  1.0000
  H   H19       1.0  0.77801  0.44386  0.11753  1.0000
  H   H20       1.0  0.22210  0.55626  0.88255  1.0000
  H   H21       1.0  0.20205  0.91103  0.40954  1.0000
  H   H22       1.0  0.79795  0.08905  0.59055  1.0000
  H   H23       1.0  0.98095  0.03826  0.72738  1.0000
  H   H24       1.0  0.01904  0.96181  0.27270  1.0000
  H   H25       1.0  0.26697  0.87086  0.81219  1.0000
  H   H26       1.0  0.73303  0.12911  0.18781  1.0000
  H   H27       1.0  0.36248  0.81326  0.89964  1.0000
  H   H28       1.0  0.63753  0.18673  0.10033  1.0000
  C   C1        1.0  0.46137  0.75573  0.41136  1.0000
  C   C2        1.0  0.53863  0.24425  0.58860  1.0000
  C   C3        1.0  0.50675  0.68228  0.29907  1.0000
  C   C4        1.0  0.49325  0.31769  0.70089  1.0000
  C   C5        1.0  0.61336  0.61699  0.30721  1.0000
  C   C6        1.0  0.38662  0.38297  0.69277  1.0000
  C   C7        1.0  0.67661  0.62611  0.43082  1.0000
  C   C8        1.0  0.32331  0.37380  0.56914  1.0000
  C   C9        1.0  0.79072  0.56791  0.45660  1.0000
  C   C10       1.0  0.20921  0.43202  0.54335  1.0000
  C   C11       1.0  0.85153  0.58939  0.58215  1.0000
  C   C12       1.0  0.14841  0.41056  0.41780  1.0000
  C   C13       1.0  0.80128  0.66795  0.69268  1.0000
  C   C14       1.0  0.19868  0.33200  0.30727  1.0000
  C   C15       1.0  0.86096  0.70032  0.82603  1.0000
  C   C16       1.0  0.13901  0.29961  0.17391  1.0000
  C   C17       1.0  0.80115  0.77877  0.92236  1.0000
  C   C18       1.0  0.19877  0.22108  0.07758  1.0000
  C   C19       1.0  0.67953  0.82138  0.88748  1.0000
  C   C20       1.0  0.32041  0.17850  0.11248  1.0000
  C   C21       1.0  0.68266  0.71833  0.66669  1.0000
  C   C22       1.0  0.31728  0.28161  0.33327  1.0000
  C   C23       1.0  0.62389  0.70098  0.53844  1.0000
  C   C24       1.0  0.37606  0.29897  0.46153  1.0000
  C   C25       1.0  0.68748  0.18266  0.88241  1.0000
  C   C26       1.0  0.31260  0.81742  0.11759  1.0000
  C   C27       1.0  0.84877  0.34675  0.94162  1.0000
  C   C28       1.0  0.15132  0.65339  0.05843  1.0000
  C   C29       1.0  0.97503  0.37906  0.87581  1.0000
  C   C30       1.0  0.02508  0.62107  0.12426  1.0000
  C   C31       1.0  0.87577  0.46987  0.06631  1.0000
  C   C32       1.0  0.12433  0.53026  0.93376  1.0000
  C   C33       1.0  0.20611  0.93704  0.66103  1.0000
  C   C34       1.0  0.79387  0.06300  0.33904  1.0000
  C   C35       1.0  0.10179  0.97027  0.57710  1.0000
  C   C36       1.0  0.89817  0.02976  0.42297  1.0000
  C   C37       1.0  0.11189  0.94773  0.44861  1.0000
  C   C38       1.0  0.88810  0.05234  0.55148  1.0000
  C   C39       1.0  0.98932  0.02306  0.62791  1.0000
  C   C40       1.0  0.01067  0.97702  0.37218  1.0000
  N   N1        1.0  0.51760  0.76440  0.52975  1.0000
  N   N2        1.0  0.48241  0.23562  0.47023  1.0000
  N   N3        1.0  0.61861  0.78959  0.76116  1.0000
  N   N4        1.0  0.38136  0.21038  0.23883  1.0000
  O   O1        1.0  0.66028  0.08173  0.76239  1.0000
  O   O2        1.0  0.33982  0.91841  0.23760  1.0000
  O   O3        1.0  0.58787  0.15363  0.95298  1.0000
  O   O4        1.0  0.41222  0.84638  0.04702  1.0000
  O   O5        1.0  0.29887  0.87801  0.60524  1.0000
  O   O6        1.0  0.70119  0.12213  0.39480  1.0000
  O   O7        1.0  0.19493  0.96503  0.77793  1.0000
  O   O8        1.0  0.80504  0.03494  0.22213  1.0000
  O   O9        1.0  0.31839  0.79510  0.80565  1.0000
  O   O10       1.0  0.68163  0.20488  0.19431  1.0000
