data_image0
_chemical_formula_structural       Mn2H24C40N4O8
_chemical_formula_sum              "Mn2 H24 C40 N4 O8"
_cell_length_a       9.19581
_cell_length_b       10.068
_cell_length_c       10.0669
_cell_angle_alpha    60.9552
_cell_angle_beta     85.4828
_cell_angle_gamma    85.481

_space_group_name_H-M_alt    "P 1"
_space_group_IT_number       1

loop_
  _space_group_symop_operation_xyz
  'x, y, z'

loop_
  _atom_site_type_symbol
  _atom_site_label
  _atom_site_symmetry_multiplicity
  _atom_site_fract_x
  _atom_site_fract_y
  _atom_site_fract_z
  _atom_site_occupancy
  Mn  Mn1       1.0  0.47887  0.42977  0.32967  1.0000
  Mn  Mn2       1.0  0.97886  0.32971  0.42974  1.0000
  H   H1        1.0  0.95910  0.98113  0.39955  1.0000
  H   H2        1.0  0.45912  0.39958  0.98109  1.0000
  H   H3        1.0  0.96102  0.72448  0.41029  1.0000
  H   H4        1.0  0.46110  0.41032  0.72441  1.0000
  H   H5        1.0  0.49885  0.77864  0.35869  1.0000
  H   H6        1.0  0.99891  0.35875  0.77851  1.0000
  H   H7        1.0  0.49694  0.03535  0.34777  1.0000
  H   H8        1.0  0.99701  0.34778  0.03527  1.0000
  H   H9        1.0  0.21386  0.65159  0.37187  1.0000
  H   H10       1.0  0.71404  0.37190  0.65155  1.0000
  H   H11       1.0  0.12554  0.92523  0.23751  1.0000
  H   H12       1.0  0.62558  0.23752  0.92517  1.0000
  H   H13       1.0  0.22560  0.09515  0.97407  1.0000
  H   H14       1.0  0.72557  0.97407  0.09512  1.0000
  H   H15       1.0  0.38834  0.12197  0.74852  1.0000
  H   H16       1.0  0.88831  0.74854  0.12197  1.0000
  H   H17       1.0  0.56641  0.00833  0.63563  1.0000
  H   H18       1.0  0.06641  0.63560  0.00837  1.0000
  H   H19       1.0  0.73072  0.78322  0.66404  1.0000
  H   H20       1.0  0.23074  0.66400  0.78327  1.0000
  H   H21       1.0  0.83263  0.52102  0.83565  1.0000
  H   H22       1.0  0.33266  0.83555  0.52104  1.0000
  H   H23       1.0  0.74448  0.38796  0.10935  1.0000
  H   H24       1.0  0.24451  0.10923  0.38792  1.0000
  C   C1        1.0  0.72679  0.17150  0.37202  1.0000
  C   C2        1.0  0.22682  0.37194  0.17151  1.0000
  C   C3        1.0  0.72780  0.02155  0.37429  1.0000
  C   C4        1.0  0.22784  0.37436  0.02147  1.0000
  C   C5        1.0  0.85928  0.93518  0.39045  1.0000
  C   C6        1.0  0.35934  0.39041  0.93516  1.0000
  C   C7        1.0  0.86057  0.79431  0.39604  1.0000
  C   C8        1.0  0.36066  0.39601  0.79426  1.0000
  C   C9        1.0  0.73008  0.73806  0.38426  1.0000
  C   C10       1.0  0.23015  0.38434  0.73795  1.0000
  C   C11       1.0  0.59863  0.82448  0.36801  1.0000
  C   C12       1.0  0.09870  0.36798  0.82440  1.0000
  C   C13       1.0  0.59734  0.96539  0.36231  1.0000
  C   C14       1.0  0.09742  0.36227  0.96533  1.0000
  C   C15       1.0  0.73091  0.58783  0.38717  1.0000
  C   C16       1.0  0.23101  0.38712  0.58779  1.0000
  C   C17       1.0  0.26055  0.72991  0.26013  1.0000
  C   C18       1.0  0.76068  0.26014  0.72985  1.0000
  C   C19       1.0  0.20963  0.88299  0.18324  1.0000
  C   C20       1.0  0.70969  0.18326  0.88291  1.0000
  C   C21       1.0  0.26462  0.97670  0.03783  1.0000
  C   C22       1.0  0.76463  0.03786  0.97668  1.0000
  C   C23       1.0  0.37106  0.91692  0.96971  1.0000
  C   C24       1.0  0.87107  0.96974  0.91689  1.0000
  C   C25       1.0  0.42737  0.00409  0.81654  1.0000
  C   C26       1.0  0.92735  0.81656  0.00408  1.0000
  C   C27       1.0  0.52777  0.94088  0.75376  1.0000
  C   C28       1.0  0.02776  0.75374  0.94094  1.0000
  C   C29       1.0  0.58474  0.78812  0.84172  1.0000
  C   C30       1.0  0.08477  0.84168  0.78816  1.0000
  C   C31       1.0  0.69179  0.71993  0.78260  1.0000
  C   C32       1.0  0.19180  0.78253  0.71996  1.0000
  C   C33       1.0  0.74779  0.57523  0.87721  1.0000
  C   C34       1.0  0.24781  0.87714  0.57524  1.0000
  C   C35       1.0  0.69706  0.49906  0.03038  1.0000
  C   C36       1.0  0.19711  0.03029  0.49904  1.0000
  C   C37       1.0  0.53527  0.69961  0.99631  1.0000
  C   C38       1.0  0.03531  0.99627  0.69961  1.0000
  C   C39       1.0  0.42099  0.76262  0.05900  1.0000
  C   C40       1.0  0.92106  0.05899  0.76259  1.0000
  N   N1        1.0  0.59239  0.55783  0.08852  1.0000
  N   N2        1.0  0.09243  0.08845  0.55780  1.0000
  N   N3        1.0  0.36468  0.67118  0.20138  1.0000
  N   N4        1.0  0.86482  0.20141  0.67112  1.0000
  O   O1        1.0  0.60949  0.52305  0.42167  1.0000
  O   O2        1.0  0.10962  0.42166  0.52293  1.0000
  O   O3        1.0  0.85210  0.53620  0.35651  1.0000
  O   O4        1.0  0.35218  0.35628  0.53625  1.0000
  O   O5        1.0  0.84819  0.23626  0.33789  1.0000
  O   O6        1.0  0.34821  0.33783  0.23629  1.0000
  O   O7        1.0  0.60554  0.22293  0.40281  1.0000
  O   O8        1.0  0.10554  0.40260  0.22299  1.0000
