data_image0
_chemical_formula_structural       Zn2H28C40N4O10
_chemical_formula_sum              "Zn2 H28 C40 N4 O10"
_cell_length_a       9.20517
_cell_length_b       10.4956
_cell_length_c       11.4634
_cell_angle_alpha    114.53
_cell_angle_beta     90.8932
_cell_angle_gamma    115.716

_space_group_name_H-M_alt    "P 1"
_space_group_IT_number       1

loop_
  _space_group_symop_operation_xyz
  'x, y, z'

loop_
  _atom_site_type_symbol
  _atom_site_label
  _atom_site_symmetry_multiplicity
  _atom_site_fract_x
  _atom_site_fract_y
  _atom_site_fract_z
  _atom_site_occupancy
  Zn  Zn1       1.0  0.03100  0.11798  0.79766  1.0000
  Zn  Zn2       1.0  0.96900  0.88202  0.20234  1.0000
  H   H1        1.0  0.73757  0.86515  0.29906  1.0000
  H   H2        1.0  0.26243  0.13485  0.70094  1.0000
  H   H3        1.0  0.82690  0.81579  0.38440  1.0000
  H   H4        1.0  0.17310  0.18421  0.61560  1.0000
  H   H5        1.0  0.41606  0.31405  0.25938  1.0000
  H   H6        1.0  0.58393  0.68594  0.74062  1.0000
  H   H7        1.0  0.29841  0.08964  0.08922  1.0000
  H   H8        1.0  0.70159  0.91036  0.91077  1.0000
  H   H9        1.0  0.47508  0.05627  0.22990  1.0000
  H   H10       1.0  0.52492  0.94372  0.77009  1.0000
  H   H11       1.0  0.13464  0.89599  0.46621  1.0000
  H   H12       1.0  0.86536  0.10401  0.53380  1.0000
  H   H13       1.0  0.34062  0.82166  0.51743  1.0000
  H   H14       1.0  0.65938  0.17834  0.48257  1.0000
  H   H15       1.0  0.44289  0.67532  0.33099  1.0000
  H   H16       1.0  0.55712  0.32468  0.66901  1.0000
  H   H17       1.0  0.43338  0.55738  0.08717  1.0000
  H   H18       1.0  0.56662  0.44262  0.91283  1.0000
  H   H19       1.0  0.32840  0.50751  0.86418  1.0000
  H   H20       1.0  0.67160  0.49249  0.13582  1.0000
  H   H21       1.0  0.15968  0.54875  0.71815  1.0000
  H   H22       1.0  0.84033  0.45125  0.28185  1.0000
  H   H23       1.0  0.96901  0.65684  0.70085  1.0000
  H   H24       1.0  0.03099  0.34316  0.29915  1.0000
  H   H25       1.0  0.88451  0.79156  0.90319  1.0000
  H   H26       1.0  0.11549  0.20844  0.09681  1.0000
  H   H27       1.0  0.32427  0.42279  0.64614  1.0000
  H   H28       1.0  0.67573  0.57721  0.35386  1.0000
  C   C1        1.0  0.40121  0.45776  0.58237  1.0000
  C   C2        1.0  0.59878  0.54224  0.41763  1.0000
  C   C3        1.0  0.45323  0.39610  0.36468  1.0000
  C   C4        1.0  0.54677  0.60390  0.63532  1.0000
  C   C5        1.0  0.35290  0.35220  0.44667  1.0000
  C   C6        1.0  0.64710  0.64780  0.55333  1.0000
  C   C7        1.0  0.19759  0.19289  0.39024  1.0000
  C   C8        1.0  0.80241  0.80711  0.60976  1.0000
  C   C9        1.0  0.38847  0.05217  0.05138  1.0000
  C   C10       1.0  0.61153  0.94783  0.94862  1.0000
  C   C11       1.0  0.48568  0.03236  0.12929  1.0000
  C   C12       1.0  0.51431  0.96763  0.87071  1.0000
  C   C13       1.0  0.40228  0.02049  0.92195  1.0000
  C   C14       1.0  0.59771  0.97950  0.07804  1.0000
  C   C15       1.0  0.30081  0.04769  0.84088  1.0000
  C   C16       1.0  0.69919  0.95231  0.15912  1.0000
  C   C17       1.0  0.18288  0.83549  0.38802  1.0000
  C   C18       1.0  0.81712  0.16451  0.61198  1.0000
  C   C19       1.0  0.29771  0.79063  0.41545  1.0000
  C   C20       1.0  0.70229  0.20937  0.58455  1.0000
  C   C21       1.0  0.35356  0.71140  0.31316  1.0000
  C   C22       1.0  0.64645  0.28860  0.68685  1.0000
  C   C23       1.0  0.29547  0.67786  0.18345  1.0000
  C   C24       1.0  0.70453  0.32214  0.81655  1.0000
  C   C25       1.0  0.34682  0.59727  0.07156  1.0000
  C   C26       1.0  0.65318  0.40273  0.92845  1.0000
  C   C27       1.0  0.29050  0.57178  0.94869  1.0000
  C   C28       1.0  0.70950  0.42822  0.05130  1.0000
  C   C29       1.0  0.17840  0.62554  0.92762  1.0000
  C   C30       1.0  0.82160  0.37446  0.07238  1.0000
  C   C31       1.0  0.11989  0.60766  0.80410  1.0000
  C   C32       1.0  0.88011  0.39234  0.19590  1.0000
  C   C33       1.0  0.01428  0.66627  0.79392  1.0000
  C   C34       1.0  0.98572  0.33373  0.20608  1.0000
  C   C35       1.0  0.96561  0.74176  0.90664  1.0000
  C   C36       1.0  0.03439  0.25824  0.09336  1.0000
  C   C37       1.0  0.12282  0.70327  0.03604  1.0000
  C   C38       1.0  0.87718  0.29673  0.96396  1.0000
  C   C39       1.0  0.18182  0.72953  0.16556  1.0000
  C   C40       1.0  0.81818  0.27047  0.83445  1.0000
  N   N1        1.0  0.01733  0.75791  0.02359  1.0000
  N   N2        1.0  0.98267  0.24209  0.97641  1.0000
  N   N3        1.0  0.12694  0.80595  0.26666  1.0000
  N   N4        1.0  0.87306  0.19405  0.73334  1.0000
  O   O1        1.0  0.15589  0.10871  0.26392  1.0000
  O   O2        1.0  0.84410  0.89129  0.73608  1.0000
  O   O3        1.0  0.11565  0.14695  0.46550  1.0000
  O   O4        1.0  0.88435  0.85305  0.53450  1.0000
  O   O5        1.0  0.20093  0.09531  0.89581  1.0000
  O   O6        1.0  0.79907  0.90468  0.10419  1.0000
  O   O7        1.0  0.32183  0.02623  0.72631  1.0000
  O   O8        1.0  0.67817  0.97377  0.27369  1.0000
  O   O9        1.0  0.78679  0.79244  0.29202  1.0000
  O   O10       1.0  0.21321  0.20756  0.70797  1.0000
