data_image0
_chemical_formula_structural       Cu2H24C40N4O8
_chemical_formula_sum              "Cu2 H24 C40 N4 O8"
_cell_length_a       9.15866
_cell_length_b       9.15866
_cell_length_c       10.2554
_cell_angle_alpha    88.2297
_cell_angle_beta     88.2299
_cell_angle_gamma    66.9566

_space_group_name_H-M_alt    "P 1"
_space_group_IT_number       1

loop_
  _space_group_symop_operation_xyz
  'x, y, z'

loop_
  _atom_site_type_symbol
  _atom_site_label
  _atom_site_symmetry_multiplicity
  _atom_site_fract_x
  _atom_site_fract_y
  _atom_site_fract_z
  _atom_site_occupancy
  Cu  Cu1       1.0  0.41732  0.31183  0.21664  1.0000
  Cu  Cu2       1.0  0.31183  0.41732  0.71664  1.0000
  H   H1        1.0  0.34452  0.14237  0.46930  1.0000
  H   H2        1.0  0.14237  0.34452  0.96930  1.0000
  H   H3        1.0  0.48167  0.87502  0.57085  1.0000
  H   H4        1.0  0.87502  0.48167  0.07084  1.0000
  H   H5        1.0  0.74326  0.68994  0.47764  1.0000
  H   H6        1.0  0.68995  0.74326  0.97764  1.0000
  H   H7        1.0  0.97120  0.65239  0.31078  1.0000
  H   H8        1.0  0.65239  0.97120  0.81078  1.0000
  H   H9        1.0  0.07662  0.75713  0.12364  1.0000
  H   H10       1.0  0.75713  0.07662  0.62364  1.0000
  H   H11       1.0  0.04027  0.98501  0.95712  1.0000
  H   H12       1.0  0.98501  0.04027  0.45712  1.0000
  H   H13       1.0  0.85589  0.24672  0.86366  1.0000
  H   H14       1.0  0.24672  0.85589  0.36366  1.0000
  H   H15       1.0  0.58810  0.38414  0.96437  1.0000
  H   H16       1.0  0.38414  0.58810  0.46437  1.0000
  H   H17       1.0  0.32160  0.63129  0.88779  1.0000
  H   H18       1.0  0.63129  0.32160  0.38779  1.0000
  H   H19       1.0  0.29074  0.86178  0.73581  1.0000
  H   H20       1.0  0.86179  0.29075  0.23581  1.0000
  H   H21       1.0  0.40802  0.09750  0.04587  1.0000
  H   H22       1.0  0.09750  0.40803  0.54587  1.0000
  H   H23       1.0  0.43806  0.86736  0.19806  1.0000
  H   H24       1.0  0.86736  0.43806  0.69806  1.0000
  C   C1        1.0  0.45596  0.05957  0.42764  1.0000
  C   C2        1.0  0.05957  0.45596  0.92764  1.0000
  C   C3        1.0  0.53557  0.90851  0.48521  1.0000
  C   C4        1.0  0.90852  0.53557  0.98521  1.0000
  C   C5        1.0  0.68030  0.80752  0.43438  1.0000
  C   C6        1.0  0.80752  0.68030  0.93437  1.0000
  C   C7        1.0  0.74833  0.85893  0.32603  1.0000
  C   C8        1.0  0.85892  0.74833  0.82603  1.0000
  C   C9        1.0  0.90092  0.76887  0.26897  1.0000
  C   C10       1.0  0.76887  0.90092  0.76897  1.0000
  C   C11       1.0  0.96022  0.82776  0.16543  1.0000
  C   C12       1.0  0.82776  0.96022  0.66543  1.0000
  C   C13       1.0  0.87056  0.98037  0.10824  1.0000
  C   C14       1.0  0.98037  0.87056  0.60824  1.0000
  C   C15       1.0  0.92255  0.04820  0.00012  1.0000
  C   C16       1.0  0.04820  0.92255  0.50012  1.0000
  C   C17       1.0  0.82188  0.19296  0.94912  1.0000
  C   C18       1.0  0.19296  0.82188  0.44912  1.0000
  C   C19       1.0  0.67064  0.27277  0.00629  1.0000
  C   C20       1.0  0.27277  0.67064  0.50629  1.0000
  C   C21       1.0  0.71824  0.07033  0.16147  1.0000
  C   C22       1.0  0.07034  0.71824  0.66147  1.0000
  C   C23       1.0  0.65868  0.01120  0.27258  1.0000
  C   C24       1.0  0.01120  0.65868  0.77258  1.0000
  C   C25       1.0  0.40103  0.59868  0.14229  1.0000
  C   C26       1.0  0.59868  0.40103  0.64229  1.0000
  C   C27       1.0  0.37959  0.73707  0.05182  1.0000
  C   C28       1.0  0.73707  0.37960  0.55182  1.0000
  C   C29       1.0  0.33820  0.73495  0.92164  1.0000
  C   C30       1.0  0.73495  0.33819  0.42164  1.0000
  C   C31       1.0  0.32324  0.86146  0.83719  1.0000
  C   C32       1.0  0.86146  0.32324  0.33718  1.0000
  C   C33       1.0  0.34960  0.99191  0.88191  1.0000
  C   C34       1.0  0.99191  0.34960  0.38192  1.0000
  C   C35       1.0  0.39111  0.99398  0.01210  1.0000
  C   C36       1.0  0.99398  0.39111  0.51210  1.0000
  C   C37       1.0  0.40583  0.86758  0.09663  1.0000
  C   C38       1.0  0.86758  0.40583  0.59663  1.0000
  C   C39       1.0  0.32820  0.13015  0.79123  1.0000
  C   C40       1.0  0.13015  0.32820  0.29123  1.0000
  N   N1        1.0  0.51498  0.10791  0.32231  1.0000
  N   N2        1.0  0.10791  0.51498  0.82231  1.0000
  N   N3        1.0  0.62179  0.21394  0.11145  1.0000
  N   N4        1.0  0.21394  0.62179  0.61145  1.0000
  O   O1        1.0  0.47461  0.58144  0.24622  1.0000
  O   O2        1.0  0.58144  0.47461  0.74622  1.0000
  O   O3        1.0  0.34136  0.50058  0.10234  1.0000
  O   O4        1.0  0.50058  0.34136  0.60234  1.0000
  O   O5        1.0  0.25427  0.14721  0.68749  1.0000
  O   O6        1.0  0.14721  0.25427  0.18750  1.0000
  O   O7        1.0  0.38821  0.22816  0.83071  1.0000
  O   O8        1.0  0.22816  0.38821  0.33071  1.0000
