data_image0
_chemical_formula_structural       Hg2H32C56Br4N4
_chemical_formula_sum              "Hg2 H32 C56 Br4 N4"
_cell_length_a       5.0826
_cell_length_b       14.9922
_cell_length_c       16.6335
_cell_angle_alpha    104.168
_cell_angle_beta     90.0492
_cell_angle_gamma    99.7006

_space_group_name_H-M_alt    "P 1"
_space_group_IT_number       1

loop_
  _space_group_symop_operation_xyz
  'x, y, z'

loop_
  _atom_site_type_symbol
  _atom_site_label
  _atom_site_symmetry_multiplicity
  _atom_site_fract_x
  _atom_site_fract_y
  _atom_site_fract_z
  _atom_site_occupancy
  Hg  Hg1       1.0  0.91527  0.99997  0.24991  1.0000
  Hg  Hg2       1.0  0.08474  0.00003  0.75009  1.0000
  H   H1        1.0  0.58648  0.00794  0.41955  1.0000
  H   H2        1.0  0.57790  0.99194  0.08032  1.0000
  H   H3        1.0  0.41352  0.99206  0.58045  1.0000
  H   H4        1.0  0.42210  0.00806  0.91967  1.0000
  H   H5        1.0  0.27338  0.09725  0.51076  1.0000
  H   H6        1.0  0.17527  0.90282  0.98913  1.0000
  H   H7        1.0  0.72662  0.90275  0.48925  1.0000
  H   H8        1.0  0.82473  0.09719  0.01087  1.0000
  H   H9        1.0  0.38056  0.29284  0.35597  1.0000
  H   H10       1.0  0.08837  0.70713  0.14384  1.0000
  H   H11       1.0  0.61945  0.70716  0.64403  1.0000
  H   H12       1.0  0.91164  0.29287  0.85615  1.0000
  H   H13       1.0  0.69005  0.19589  0.27260  1.0000
  H   H14       1.0  0.49474  0.80396  0.22727  1.0000
  H   H15       1.0  0.30995  0.80411  0.72740  1.0000
  H   H16       1.0  0.50527  0.19604  0.77273  1.0000
  H   H17       1.0  0.66826  0.23858  0.64694  1.0000
  H   H18       1.0  0.42831  0.76162  0.85314  1.0000
  H   H19       1.0  0.33174  0.76142  0.35306  1.0000
  H   H20       1.0  0.57168  0.23838  0.14686  1.0000
  H   H21       1.0  0.33853  0.32287  0.73094  1.0000
  H   H22       1.0  0.01508  0.67732  0.76882  1.0000
  H   H23       1.0  0.66147  0.67713  0.26906  1.0000
  H   H24       1.0  0.98493  0.32268  0.23119  1.0000
  H   H25       1.0  0.27844  0.47908  0.71410  1.0000
  H   H26       1.0  0.79966  0.52094  0.78547  1.0000
  H   H27       1.0  0.72156  0.52092  0.28590  1.0000
  H   H28       1.0  0.20034  0.47906  0.21452  1.0000
  H   H29       1.0  0.54896  0.55102  0.61476  1.0000
  H   H30       1.0  0.99877  0.44910  0.88496  1.0000
  H   H31       1.0  0.45103  0.44898  0.38524  1.0000
  H   H32       1.0  0.00123  0.55089  0.11503  1.0000
  C   C1        1.0  0.53685  0.07223  0.40882  1.0000
  C   C2        1.0  0.46406  0.92773  0.09110  1.0000
  C   C3        1.0  0.46315  0.92777  0.59119  1.0000
  C   C4        1.0  0.53595  0.07228  0.90890  1.0000
  C   C5        1.0  0.36430  0.12133  0.45882  1.0000
  C   C6        1.0  0.24228  0.87873  0.04109  1.0000
  C   C7        1.0  0.63569  0.87867  0.54118  1.0000
  C   C8        1.0  0.75772  0.12127  0.95891  1.0000
  C   C9        1.0  0.30339  0.20307  0.44114  1.0000
  C   C10       1.0  0.10025  0.79696  0.05872  1.0000
  C   C11       1.0  0.69661  0.79692  0.55886  1.0000
  C   C12       1.0  0.89975  0.20304  0.94128  1.0000
  C   C13       1.0  0.42431  0.23108  0.37298  1.0000
  C   C14       1.0  0.19349  0.76893  0.12691  1.0000
  C   C15       1.0  0.57570  0.76892  0.62702  1.0000
  C   C16       1.0  0.80652  0.23107  0.87309  1.0000
  C   C17       1.0  0.59465  0.17751  0.32648  1.0000
  C   C18       1.0  0.41737  0.82242  0.17343  1.0000
  C   C19       1.0  0.40536  0.82249  0.67353  1.0000
  C   C20       1.0  0.58263  0.17758  0.82657  1.0000
  C   C21       1.0  0.12615  0.25406  0.49016  1.0000
  C   C22       1.0  0.87226  0.74598  0.00962  1.0000
  C   C23       1.0  0.87384  0.74594  0.50984  1.0000
  C   C24       1.0  0.12774  0.25402  0.99038  1.0000
  C   C25       1.0  0.97430  0.29717  0.53424  1.0000
  C   C26       1.0  0.67691  0.70294  0.96569  1.0000
  C   C27       1.0  0.02570  0.70284  0.46576  1.0000
  C   C28       1.0  0.32309  0.29706  0.03432  1.0000
  C   C29       1.0  0.79678  0.34707  0.58421  1.0000
  C   C30       1.0  0.44945  0.65306  0.91574  1.0000
  C   C31       1.0  0.20321  0.65293  0.41579  1.0000
  C   C32       1.0  0.55055  0.34694  0.08427  1.0000
  C   C33       1.0  0.64332  0.30769  0.64143  1.0000
  C   C34       1.0  0.33472  0.69248  0.85856  1.0000
  C   C35       1.0  0.35668  0.69231  0.35857  1.0000
  C   C36       1.0  0.66528  0.30753  0.14144  1.0000
  C   C37       1.0  0.46013  0.35520  0.68824  1.0000
  C   C38       1.0  0.10437  0.64495  0.81155  1.0000
  C   C39       1.0  0.53987  0.64480  0.31176  1.0000
  C   C40       1.0  0.89564  0.35505  0.18845  1.0000
  C   C41       1.0  0.42511  0.44266  0.67844  1.0000
  C   C42       1.0  0.98249  0.55744  0.82124  1.0000
  C   C43       1.0  0.57488  0.55734  0.32156  1.0000
  C   C44       1.0  0.01750  0.44256  0.17876  1.0000
  C   C45       1.0  0.57657  0.48330  0.62300  1.0000
  C   C46       1.0  0.09377  0.51682  0.87674  1.0000
  C   C47       1.0  0.42343  0.51670  0.37700  1.0000
  C   C48       1.0  0.90624  0.48318  0.12326  1.0000
  C   C49       1.0  0.76708  0.43759  0.57596  1.0000
  C   C50       1.0  0.32975  0.56252  0.92392  1.0000
  C   C51       1.0  0.23291  0.56241  0.42404  1.0000
  C   C52       1.0  0.67025  0.43748  0.07608  1.0000
  C   C53       1.0  0.92781  0.48073  0.52231  1.0000
  C   C54       1.0  0.44741  0.51932  0.97761  1.0000
  C   C55       1.0  0.07219  0.51927  0.47769  1.0000
  C   C56       1.0  0.55260  0.48067  0.02239  1.0000
  Br  Br1       1.0  0.97200  0.88754  0.33855  1.0000
  Br  Br2       1.0  0.08424  0.11278  0.16170  1.0000
  Br  Br3       1.0  0.02800  0.11246  0.66145  1.0000
  Br  Br4       1.0  0.91576  0.88722  0.83830  1.0000
  N   N1        1.0  0.64983  0.09947  0.34373  1.0000
  N   N2        1.0  0.55029  0.90044  0.15616  1.0000
  N   N3        1.0  0.35017  0.90053  0.65627  1.0000
  N   N4        1.0  0.44972  0.09957  0.84384  1.0000
