data_image0
_chemical_formula_structural       Cd4H40C64N8Cl4O8
_chemical_formula_sum              "Cd4 H40 C64 N8 Cl4 O8"
_cell_length_a       10.5581
_cell_length_b       12.612
_cell_length_c       12.8491
_cell_angle_alpha    82.6257
_cell_angle_beta     65.7463
_cell_angle_gamma    65.2504

_space_group_name_H-M_alt    "P 1"
_space_group_IT_number       1

loop_
  _space_group_symop_operation_xyz
  'x, y, z'

loop_
  _atom_site_type_symbol
  _atom_site_label
  _atom_site_symmetry_multiplicity
  _atom_site_fract_x
  _atom_site_fract_y
  _atom_site_fract_z
  _atom_site_occupancy
  Cd  Cd1       1.0  0.43415  0.62578  0.11106  1.0000
  Cd  Cd2       1.0  0.82906  0.12576  0.61098  1.0000
  Cd  Cd3       1.0  0.56585  0.37422  0.88894  1.0000
  Cd  Cd4       1.0  0.17094  0.87424  0.38902  1.0000
  H   H1        1.0  0.18480  0.40365  0.30877  1.0000
  H   H2        1.0  0.10320  0.90362  0.80872  1.0000
  H   H3        1.0  0.81520  0.59635  0.69123  1.0000
  H   H4        1.0  0.89679  0.09638  0.19128  1.0000
  H   H5        1.0  0.98237  0.69042  0.55237  1.0000
  H   H6        1.0  0.77514  0.19061  0.05199  1.0000
  H   H7        1.0  0.01764  0.30958  0.44763  1.0000
  H   H8        1.0  0.22485  0.80939  0.94801  1.0000
  H   H9        1.0  0.47032  0.56152  0.36527  1.0000
  H   H10       1.0  0.60316  0.06168  0.86511  1.0000
  H   H11       1.0  0.52968  0.43848  0.63473  1.0000
  H   H12       1.0  0.39684  0.93832  0.13489  1.0000
  H   H13       1.0  0.66724  0.51606  0.44654  1.0000
  H   H14       1.0  0.37052  0.01616  0.94645  1.0000
  H   H15       1.0  0.33276  0.48395  0.55346  1.0000
  H   H16       1.0  0.62948  0.98384  0.05355  1.0000
  H   H17       1.0  0.06032  0.60526  0.14131  1.0000
  H   H18       1.0  0.19318  0.10534  0.64125  1.0000
  H   H19       1.0  0.93968  0.39474  0.85869  1.0000
  H   H20       1.0  0.80682  0.89466  0.35874  1.0000
  H   H21       1.0  0.90244  0.54894  0.32740  1.0000
  H   H22       1.0  0.22148  0.04890  0.82740  1.0000
  H   H23       1.0  0.09756  0.45107  0.67260  1.0000
  H   H24       1.0  0.77852  0.95110  0.17260  1.0000
  H   H25       1.0  0.08629  0.68232  0.95092  1.0000
  H   H26       1.0  0.28038  0.18247  0.45091  1.0000
  H   H27       1.0  0.91371  0.31768  0.04908  1.0000
  H   H28       1.0  0.71962  0.81753  0.54909  1.0000
  H   H29       1.0  0.96755  0.76898  0.80670  1.0000
  H   H30       1.0  0.45681  0.26899  0.30659  1.0000
  H   H31       1.0  0.03245  0.23102  0.19330  1.0000
  H   H32       1.0  0.54319  0.73101  0.69341  1.0000
  H   H33       1.0  0.75588  0.81336  0.74692  1.0000
  H   H34       1.0  0.68380  0.31344  0.24683  1.0000
  H   H35       1.0  0.24412  0.18664  0.25308  1.0000
  H   H36       1.0  0.31620  0.68656  0.75317  1.0000
  H   H37       1.0  0.53986  0.75379  0.87329  1.0000
  H   H38       1.0  0.83303  0.25388  0.37324  1.0000
  H   H39       1.0  0.46014  0.24621  0.12671  1.0000
  H   H40       1.0  0.16697  0.74612  0.62676  1.0000
  C   C1        1.0  0.19417  0.60714  0.33955  1.0000
  C   C2        1.0  0.85962  0.10732  0.83929  1.0000
  C   C3        1.0  0.80584  0.39286  0.66045  1.0000
  C   C4        1.0  0.14038  0.89268  0.16071  1.0000
  C   C5        1.0  0.09361  0.55194  0.42275  1.0000
  C   C6        1.0  0.93214  0.05206  0.92251  1.0000
  C   C7        1.0  0.90640  0.44805  0.57725  1.0000
  C   C8        1.0  0.06786  0.94794  0.07749  1.0000
  C   C9        1.0  0.10390  0.44464  0.39320  1.0000
  C   C10       1.0  0.05846  0.94460  0.89317  1.0000
  C   C11       1.0  0.89611  0.55536  0.60680  1.0000
  C   C12       1.0  0.94154  0.05540  0.10683  1.0000
  C   C13       1.0  0.98945  0.60691  0.53038  1.0000
  C   C14       1.0  0.87351  0.10707  0.03016  1.0000
  C   C15       1.0  0.01056  0.39309  0.46962  1.0000
  C   C16       1.0  0.12648  0.89293  0.96984  1.0000
  C   C17       1.0  0.57676  0.57093  0.31530  1.0000
  C   C18       1.0  0.53728  0.07101  0.81516  1.0000
  C   C19       1.0  0.42324  0.42907  0.68470  1.0000
  C   C20       1.0  0.46272  0.92899  0.18484  1.0000
  C   C21       1.0  0.68609  0.54725  0.36053  1.0000
  C   C22       1.0  0.40641  0.04733  0.86041  1.0000
  C   C23       1.0  0.31391  0.45275  0.63947  1.0000
  C   C24       1.0  0.59359  0.95267  0.13959  1.0000
  C   C25       1.0  0.81628  0.56503  0.29459  1.0000
  C   C26       1.0  0.32435  0.06502  0.79453  1.0000
  C   C27       1.0  0.18372  0.43497  0.70541  1.0000
  C   C28       1.0  0.67565  0.93498  0.20547  1.0000
  C   C29       1.0  0.83812  0.60479  0.18326  1.0000
  C   C30       1.0  0.37399  0.10476  0.68316  1.0000
  C   C31       1.0  0.16188  0.39522  0.81674  1.0000
  C   C32       1.0  0.62600  0.89524  0.31684  1.0000
  C   C33       1.0  0.72157  0.62588  0.14467  1.0000
  C   C34       1.0  0.50803  0.12586  0.64453  1.0000
  C   C35       1.0  0.27843  0.37413  0.85533  1.0000
  C   C36       1.0  0.49197  0.87414  0.35547  1.0000
  C   C37       1.0  0.97092  0.62440  0.11064  1.0000
  C   C38       1.0  0.29418  0.12440  0.61056  1.0000
  C   C39       1.0  0.02908  0.37560  0.88936  1.0000
  C   C40       1.0  0.70582  0.87560  0.38944  1.0000
  C   C41       1.0  0.98488  0.66740  0.00517  1.0000
  C   C42       1.0  0.34259  0.16745  0.50509  1.0000
  C   C43       1.0  0.01512  0.33260  0.99482  1.0000
  C   C44       1.0  0.65741  0.83255  0.49491  1.0000
  C   C45       1.0  0.73787  0.66996  0.03232  1.0000
  C   C46       1.0  0.55998  0.16990  0.53214  1.0000
  C   C47       1.0  0.26213  0.33004  0.96768  1.0000
  C   C48       1.0  0.44002  0.83010  0.46786  1.0000
  C   C49       1.0  0.86781  0.69392  0.96469  1.0000
  C   C50       1.0  0.47367  0.19388  0.46455  1.0000
  C   C51       1.0  0.13220  0.30608  0.03531  1.0000
  C   C52       1.0  0.52633  0.80612  0.53545  1.0000
  C   C53       1.0  0.87224  0.74623  0.86000  1.0000
  C   C54       1.0  0.52160  0.24622  0.35987  1.0000
  C   C55       1.0  0.12776  0.25377  0.14000  1.0000
  C   C56       1.0  0.47840  0.75378  0.64013  1.0000
  C   C57       1.0  0.75428  0.77088  0.82663  1.0000
  C   C58       1.0  0.64825  0.27090  0.32653  1.0000
  C   C59       1.0  0.24572  0.22912  0.17337  1.0000
  C   C60       1.0  0.35174  0.72910  0.67348  1.0000
  C   C61       1.0  0.63385  0.73944  0.89682  1.0000
  C   C62       1.0  0.72992  0.23946  0.39674  1.0000
  C   C63       1.0  0.36615  0.26056  0.10318  1.0000
  C   C64       1.0  0.27008  0.76053  0.60326  1.0000
  N   N1        1.0  0.59366  0.60934  0.21107  1.0000
  N   N2        1.0  0.58611  0.10938  0.71090  1.0000
  N   N3        1.0  0.40634  0.39066  0.78893  1.0000
  N   N4        1.0  0.41389  0.89062  0.28910  1.0000
  N   N5        1.0  0.62681  0.69028  0.99582  1.0000
  N   N6        1.0  0.68720  0.19022  0.49567  1.0000
  N   N7        1.0  0.37319  0.30972  0.00418  1.0000
  N   N8        1.0  0.31280  0.80978  0.50433  1.0000
  Cl  Cl1       1.0  0.38492  0.60221  0.93093  1.0000
  Cl  Cl2       1.0  0.08191  0.10226  0.43083  1.0000
  Cl  Cl3       1.0  0.61508  0.39779  0.06907  1.0000
  Cl  Cl4       1.0  0.91809  0.89774  0.56917  1.0000
  O   O1        1.0  0.24045  0.58092  0.23364  1.0000
  O   O2        1.0  0.94540  0.08119  0.73336  1.0000
  O   O3        1.0  0.75955  0.41908  0.76635  1.0000
  O   O4        1.0  0.05459  0.91881  0.26664  1.0000
  O   O5        1.0  0.22999  0.67233  0.37954  1.0000
  O   O6        1.0  0.71859  0.17246  0.87934  1.0000
  O   O7        1.0  0.77001  0.32767  0.62046  1.0000
  O   O8        1.0  0.28140  0.82754  0.12066  1.0000
