data_image0
_chemical_formula_structural       Hg2H16C20I4N8
_chemical_formula_sum              "Hg2 H16 C20 I4 N8"
_cell_length_a       5.45173
_cell_length_b       8.31024
_cell_length_c       15.97
_cell_angle_alpha    101.631
_cell_angle_beta     91.124
_cell_angle_gamma    91.1673

_space_group_name_H-M_alt    "P 1"
_space_group_IT_number       1

loop_
  _space_group_symop_operation_xyz
  'x, y, z'

loop_
  _atom_site_type_symbol
  _atom_site_label
  _atom_site_symmetry_multiplicity
  _atom_site_fract_x
  _atom_site_fract_y
  _atom_site_fract_z
  _atom_site_occupancy
  Hg  Hg1       1.0  0.92257  0.24871  0.75312  1.0000
  Hg  Hg2       1.0  0.07743  0.75129  0.24688  1.0000
  H   H1        1.0  0.27378  0.39482  0.28964  1.0000
  H   H2        1.0  0.72622  0.60518  0.71037  1.0000
  H   H3        1.0  0.71220  0.37243  0.95158  1.0000
  H   H4        1.0  0.28780  0.62757  0.04842  1.0000
  H   H5        1.0  0.51965  0.87250  0.38763  1.0000
  H   H6        1.0  0.48035  0.12750  0.61237  1.0000
  H   H7        1.0  0.85808  0.77740  0.47323  1.0000
  H   H8        1.0  0.14191  0.22260  0.52677  1.0000
  H   H9        1.0  0.59231  0.27975  0.37686  1.0000
  H   H10       1.0  0.40769  0.72025  0.62314  1.0000
  H   H11       1.0  0.16146  0.89119  0.85132  1.0000
  H   H12       1.0  0.83853  0.10881  0.14868  1.0000
  H   H13       1.0  0.61376  0.69638  0.94944  1.0000
  H   H14       1.0  0.38624  0.30362  0.05056  1.0000
  H   H15       1.0  0.50188  0.97166  0.76270  1.0000
  H   H16       1.0  0.49813  0.02835  0.23730  1.0000
  C   C1        1.0  0.40527  0.47507  0.33189  1.0000
  C   C2        1.0  0.59472  0.52493  0.66811  1.0000
  C   C3        1.0  0.58646  0.26678  0.93224  1.0000
  C   C4        1.0  0.41354  0.73322  0.06776  1.0000
  C   C5        1.0  0.54424  0.74189  0.38626  1.0000
  C   C6        1.0  0.45576  0.25812  0.61374  1.0000
  C   C7        1.0  0.73066  0.68957  0.43409  1.0000
  C   C8        1.0  0.26934  0.31043  0.56591  1.0000
  C   C9        1.0  0.58174  0.41142  0.37952  1.0000
  C   C10       1.0  0.41826  0.58858  0.62048  1.0000
  C   C11       1.0  0.74834  0.52033  0.43121  1.0000
  C   C12       1.0  0.25165  0.47967  0.56879  1.0000
  C   C13       1.0  0.25152  0.09251  0.95776  1.0000
  C   C14       1.0  0.74848  0.90749  0.04224  1.0000
  C   C15       1.0  0.28079  0.99775  0.87550  1.0000
  C   C16       1.0  0.71921  0.00225  0.12450  1.0000
  C   C17       1.0  0.40743  0.22915  0.98677  1.0000
  C   C18       1.0  0.59257  0.77085  0.01323  1.0000
  C   C19       1.0  0.46781  0.04274  0.82657  1.0000
  C   C20       1.0  0.53219  0.95726  0.17343  1.0000
  I   I1        1.0  0.95449  0.94555  0.65257  1.0000
  I   I2        1.0  0.04552  0.05445  0.34743  1.0000
  I   I3        1.0  0.11288  0.53048  0.84699  1.0000
  I   I4        1.0  0.88712  0.46952  0.15301  1.0000
  N   N1        1.0  0.38595  0.63712  0.33586  1.0000
  N   N2        1.0  0.61404  0.36288  0.66414  1.0000
  N   N3        1.0  0.61687  0.17451  0.85411  1.0000
  N   N4        1.0  0.38313  0.82549  0.14589  1.0000
  N   N5        1.0  0.92274  0.44908  0.47883  1.0000
  N   N6        1.0  0.07726  0.55092  0.52117  1.0000
  N   N7        1.0  0.07640  0.05660  0.01614  1.0000
  N   N8        1.0  0.92359  0.94340  0.98386  1.0000
