data_image0
_chemical_formula_structural       Cd3H12C12O18
_chemical_formula_sum              "Cd3 H12 C12 O18"
_cell_length_a       8.52944
_cell_length_b       8.52942
_cell_length_c       8.52939
_cell_angle_alpha    89.3795
_cell_angle_beta     89.38
_cell_angle_gamma    89.3789

_space_group_name_H-M_alt    "P 1"
_space_group_IT_number       1

loop_
  _space_group_symop_operation_xyz
  'x, y, z'

loop_
  _atom_site_type_symbol
  _atom_site_label
  _atom_site_symmetry_multiplicity
  _atom_site_fract_x
  _atom_site_fract_y
  _atom_site_fract_z
  _atom_site_occupancy
  Cd  Cd1       1.0  0.50000  1.00000  1.00000  1.0000
  Cd  Cd2       1.0  0.00000  0.50000  0.00001  1.0000
  Cd  Cd3       1.0  0.00000  0.00000  0.50000  1.0000
  H   H1        1.0  0.24642  0.06781  0.80964  1.0000
  H   H2        1.0  0.80964  0.24642  0.06780  1.0000
  H   H3        1.0  0.06781  0.80964  0.24642  1.0000
  H   H4        1.0  0.75358  0.93219  0.19036  1.0000
  H   H5        1.0  0.19037  0.75358  0.93220  1.0000
  H   H6        1.0  0.93220  0.19037  0.75358  1.0000
  H   H7        1.0  0.24501  0.19488  0.94942  1.0000
  H   H8        1.0  0.94942  0.24501  0.19488  1.0000
  H   H9        1.0  0.19489  0.94943  0.24501  1.0000
  H   H10       1.0  0.75500  0.80512  0.05058  1.0000
  H   H11       1.0  0.05058  0.75500  0.80513  1.0000
  H   H12       1.0  0.80512  0.05058  0.75500  1.0000
  C   C1        1.0  0.44983  0.61181  0.98991  1.0000
  C   C2        1.0  0.98992  0.44984  0.61182  1.0000
  C   C3        1.0  0.61181  0.98992  0.44984  1.0000
  C   C4        1.0  0.55017  0.38818  0.01007  1.0000
  C   C5        1.0  0.01008  0.55017  0.38819  1.0000
  C   C6        1.0  0.38820  0.01008  0.55016  1.0000
  C   C7        1.0  0.61143  0.54924  0.00035  1.0000
  C   C8        1.0  0.00036  0.61143  0.54925  1.0000
  C   C9        1.0  0.54925  0.00035  0.61143  1.0000
  C   C10       1.0  0.38858  0.45076  0.99964  1.0000
  C   C11       1.0  0.99964  0.38858  0.45077  1.0000
  C   C12       1.0  0.45076  0.99964  0.38856  1.0000
  O   O1        1.0  0.38764  0.74637  0.97676  1.0000
  O   O2        1.0  0.97676  0.38764  0.74637  1.0000
  O   O3        1.0  0.74638  0.97676  0.38763  1.0000
  O   O4        1.0  0.61237  0.25363  0.02324  1.0000
  O   O5        1.0  0.02324  0.61237  0.25364  1.0000
  O   O6        1.0  0.25363  0.02324  0.61237  1.0000
  O   O7        1.0  0.74533  0.61095  0.00038  1.0000
  O   O8        1.0  0.00039  0.74534  0.61097  1.0000
  O   O9        1.0  0.61096  0.00038  0.74532  1.0000
  O   O10       1.0  0.25467  0.38905  0.99962  1.0000
  O   O11       1.0  0.99961  0.25468  0.38905  1.0000
  O   O12       1.0  0.38905  0.99962  0.25468  1.0000
  O   O13       1.0  0.26356  0.08262  0.92373  1.0000
  O   O14       1.0  0.92374  0.26356  0.08263  1.0000
  O   O15       1.0  0.08262  0.92373  0.26356  1.0000
  O   O16       1.0  0.73645  0.91738  0.07628  1.0000
  O   O17       1.0  0.07627  0.73644  0.91739  1.0000
  O   O18       1.0  0.91738  0.07627  0.73644  1.0000
