data_image0
_chemical_formula_structural       Ba4H28C12S12N12O12
_chemical_formula_sum              "Ba4 H28 C12 S12 N12 O12"
_cell_length_a       6.29725
_cell_length_b       8.76759
_cell_length_c       17.6968
_cell_angle_alpha    89.9997
_cell_angle_beta     90.0001
_cell_angle_gamma    90.5133

_space_group_name_H-M_alt    "P 1"
_space_group_IT_number       1

loop_
  _space_group_symop_operation_xyz
  'x, y, z'

loop_
  _atom_site_type_symbol
  _atom_site_label
  _atom_site_symmetry_multiplicity
  _atom_site_fract_x
  _atom_site_fract_y
  _atom_site_fract_z
  _atom_site_occupancy
  Ba  Ba1       1.0  0.47805  0.09760  0.15376  1.0000
  Ba  Ba2       1.0  0.97806  0.09762  0.34624  1.0000
  Ba  Ba3       1.0  0.52194  0.90239  0.84624  1.0000
  Ba  Ba4       1.0  0.02194  0.90240  0.65376  1.0000
  H   H1        1.0  0.88248  0.60160  0.01772  1.0000
  H   H2        1.0  0.38250  0.60163  0.48227  1.0000
  H   H3        1.0  0.11751  0.39837  0.98227  1.0000
  H   H4        1.0  0.61755  0.39840  0.51772  1.0000
  H   H5        1.0  0.50407  0.23936  0.33631  1.0000
  H   H6        1.0  0.00406  0.23934  0.16368  1.0000
  H   H7        1.0  0.49594  0.76066  0.66368  1.0000
  H   H8        1.0  0.99592  0.76064  0.83631  1.0000
  H   H9        1.0  0.64358  0.34273  0.28477  1.0000
  H   H10       1.0  0.14357  0.34273  0.21522  1.0000
  H   H11       1.0  0.35642  0.65728  0.71522  1.0000
  H   H12       1.0  0.85641  0.65727  0.78477  1.0000
  H   H13       1.0  0.23816  0.82179  0.11311  1.0000
  H   H14       1.0  0.73817  0.82181  0.38690  1.0000
  H   H15       1.0  0.76183  0.17819  0.88689  1.0000
  H   H16       1.0  0.26184  0.17821  0.61311  1.0000
  H   H17       1.0  0.03469  0.90040  0.07504  1.0000
  H   H18       1.0  0.53470  0.90041  0.42497  1.0000
  H   H19       1.0  0.96530  0.09959  0.92497  1.0000
  H   H20       1.0  0.46530  0.09960  0.57504  1.0000
  H   H21       1.0  0.28061  0.81326  0.25878  1.0000
  H   H22       1.0  0.78060  0.81326  0.24123  1.0000
  H   H23       1.0  0.71939  0.18674  0.74123  1.0000
  H   H24       1.0  0.21939  0.18674  0.75878  1.0000
  H   H25       1.0  0.44147  0.89965  0.31331  1.0000
  H   H26       1.0  0.94146  0.89965  0.18669  1.0000
  H   H27       1.0  0.55854  0.10035  0.68669  1.0000
  H   H28       1.0  0.05854  0.10035  0.81331  1.0000
  C   C1        1.0  0.69196  0.44969  0.08041  1.0000
  C   C2        1.0  0.19198  0.44972  0.41959  1.0000
  C   C3        1.0  0.30804  0.55029  0.91959  1.0000
  C   C4        1.0  0.80807  0.55032  0.58041  1.0000
  C   C5        1.0  0.41642  0.56887  0.14359  1.0000
  C   C6        1.0  0.91642  0.56887  0.35641  1.0000
  C   C7        1.0  0.58358  0.43112  0.85641  1.0000
  C   C8        1.0  0.08359  0.43114  0.64359  1.0000
  C   C9        1.0  0.63408  0.71816  0.06602  1.0000
  C   C10       1.0  0.13408  0.71818  0.43398  1.0000
  C   C11       1.0  0.36594  0.28182  0.93398  1.0000
  C   C12       1.0  0.86596  0.28184  0.56603  1.0000
  S   S1        1.0  0.84388  0.29658  0.05672  1.0000
  S   S2        1.0  0.34390  0.29661  0.44328  1.0000
  S   S3        1.0  0.15610  0.70339  0.94327  1.0000
  S   S4        1.0  0.65612  0.70342  0.55672  1.0000
  S   S5        1.0  0.21539  0.56785  0.20722  1.0000
  S   S6        1.0  0.71542  0.56786  0.29277  1.0000
  S   S7        1.0  0.78457  0.43214  0.79277  1.0000
  S   S8        1.0  0.28460  0.43216  0.70723  1.0000
  S   S9        1.0  0.71124  0.88522  0.02487  1.0000
  S   S10       1.0  0.21122  0.88524  0.47513  1.0000
  S   S11       1.0  0.28877  0.11476  0.97513  1.0000
  S   S12       1.0  0.78877  0.11478  0.52487  1.0000
  N   N1        1.0  0.46706  0.70788  0.11220  1.0000
  N   N2        1.0  0.96705  0.70789  0.38781  1.0000
  N   N3        1.0  0.53295  0.29210  0.88781  1.0000
  N   N4        1.0  0.03292  0.29212  0.61219  1.0000
  N   N5        1.0  0.74938  0.58956  0.05162  1.0000
  N   N6        1.0  0.24938  0.58957  0.44838  1.0000
  N   N7        1.0  0.25059  0.41042  0.94839  1.0000
  N   N8        1.0  0.75060  0.41044  0.55160  1.0000
  N   N9        1.0  0.52129  0.43735  0.12523  1.0000
  N   N10       1.0  0.02130  0.43737  0.37477  1.0000
  N   N11       1.0  0.47870  0.56263  0.87478  1.0000
  N   N12       1.0  0.97870  0.56265  0.62522  1.0000
  O   O1        1.0  0.59967  0.23169  0.29175  1.0000
  O   O2        1.0  0.09967  0.23169  0.20825  1.0000
  O   O3        1.0  0.40033  0.76832  0.70825  1.0000
  O   O4        1.0  0.90032  0.76830  0.79174  1.0000
  O   O5        1.0  0.13416  0.90805  0.11827  1.0000
  O   O6        1.0  0.63417  0.90806  0.38174  1.0000
  O   O7        1.0  0.86584  0.09194  0.88174  1.0000
  O   O8        1.0  0.36584  0.09195  0.61826  1.0000
  O   O9        1.0  0.32170  0.91634  0.27700  1.0000
  O   O10       1.0  0.82169  0.91634  0.22300  1.0000
  O   O11       1.0  0.67830  0.08366  0.72300  1.0000
  O   O12       1.0  0.17830  0.08366  0.77700  1.0000
