data_image0
_chemical_formula_structural       U4H16C20N8O28
_chemical_formula_sum              "U4 H16 C20 N8 O28"
_cell_length_a       7.06524
_cell_length_b       10.3776
_cell_length_c       11.271
_cell_angle_alpha    89.9999
_cell_angle_beta     89.9999
_cell_angle_gamma    90.2555

_space_group_name_H-M_alt    "P 1"
_space_group_IT_number       1

loop_
  _space_group_symop_operation_xyz
  'x, y, z'

loop_
  _atom_site_type_symbol
  _atom_site_label
  _atom_site_symmetry_multiplicity
  _atom_site_fract_x
  _atom_site_fract_y
  _atom_site_fract_z
  _atom_site_occupancy
  U   U1        1.0  0.74719  0.67738  0.85520  1.0000
  U   U2        1.0  0.25283  0.82265  0.35520  1.0000
  U   U3        1.0  0.25281  0.32262  0.14480  1.0000
  U   U4        1.0  0.74717  0.17735  0.64480  1.0000
  H   H1        1.0  0.97593  0.77057  0.07239  1.0000
  H   H2        1.0  0.02407  0.72943  0.57239  1.0000
  H   H3        1.0  0.02407  0.22943  0.92761  1.0000
  H   H4        1.0  0.97593  0.27057  0.42761  1.0000
  H   H5        1.0  0.97473  0.61736  0.06957  1.0000
  H   H6        1.0  0.02527  0.88265  0.56957  1.0000
  H   H7        1.0  0.02527  0.38265  0.93043  1.0000
  H   H8        1.0  0.97473  0.11736  0.43043  1.0000
  H   H9        1.0  0.35036  0.84902  0.68657  1.0000
  H   H10       1.0  0.64964  0.65098  0.18657  1.0000
  H   H11       1.0  0.64964  0.15098  0.31343  1.0000
  H   H12       1.0  0.35036  0.34902  0.81343  1.0000
  H   H13       1.0  0.16870  0.01106  0.01610  1.0000
  H   H14       1.0  0.83130  0.48894  0.51609  1.0000
  H   H15       1.0  0.83130  0.98894  0.98391  1.0000
  H   H16       1.0  0.16870  0.51106  0.48391  1.0000
  C   C1        1.0  0.46040  0.80248  0.06939  1.0000
  C   C2        1.0  0.53960  0.69753  0.56939  1.0000
  C   C3        1.0  0.53960  0.19752  0.93061  1.0000
  C   C4        1.0  0.46040  0.30247  0.43061  1.0000
  C   C5        1.0  0.37197  0.85781  0.96363  1.0000
  C   C6        1.0  0.62804  0.64219  0.46363  1.0000
  C   C7        1.0  0.62803  0.14219  0.03637  1.0000
  C   C8        1.0  0.37196  0.35781  0.53637  1.0000
  C   C9        1.0  0.23778  0.95507  0.94771  1.0000
  C   C10       1.0  0.76222  0.54493  0.44770  1.0000
  C   C11       1.0  0.76222  0.04493  0.05229  1.0000
  C   C12       1.0  0.23778  0.45507  0.55229  1.0000
  C   C13       1.0  0.21371  0.96203  0.82511  1.0000
  C   C14       1.0  0.78629  0.53797  0.32511  1.0000
  C   C15       1.0  0.78629  0.03797  0.17489  1.0000
  C   C16       1.0  0.21371  0.46203  0.67489  1.0000
  C   C17       1.0  0.07883  0.03933  0.75604  1.0000
  C   C18       1.0  0.92117  0.46068  0.25604  1.0000
  C   C19       1.0  0.92117  0.96068  0.24396  1.0000
  C   C20       1.0  0.07883  0.53932  0.74396  1.0000
  N   N1        1.0  0.42815  0.80910  0.85809  1.0000
  N   N2        1.0  0.57185  0.69090  0.35809  1.0000
  N   N3        1.0  0.57185  0.19090  0.14191  1.0000
  N   N4        1.0  0.42815  0.30910  0.64191  1.0000
  N   N5        1.0  0.33080  0.87253  0.77580  1.0000
  N   N6        1.0  0.66920  0.62747  0.27580  1.0000
  N   N7        1.0  0.66921  0.12747  0.22420  1.0000
  N   N8        1.0  0.33080  0.37253  0.72420  1.0000
  O   O1        1.0  0.64687  0.52069  0.88218  1.0000
  O   O2        1.0  0.35313  0.97931  0.38218  1.0000
  O   O3        1.0  0.35313  0.47931  0.11782  1.0000
  O   O4        1.0  0.64688  0.02069  0.61782  1.0000
  O   O5        1.0  0.83111  0.83959  0.83107  1.0000
  O   O6        1.0  0.16890  0.66041  0.33108  1.0000
  O   O7        1.0  0.16889  0.16042  0.16893  1.0000
  O   O8        1.0  0.83110  0.33959  0.66892  1.0000
  O   O9        1.0  0.97298  0.69542  0.01748  1.0000
  O   O10       1.0  0.02702  0.80458  0.51748  1.0000
  O   O11       1.0  0.02702  0.30458  0.98252  1.0000
  O   O12       1.0  0.97298  0.19543  0.48252  1.0000
  O   O13       1.0  0.59870  0.72587  0.05134  1.0000
  O   O14       1.0  0.40130  0.77412  0.55134  1.0000
  O   O15       1.0  0.40129  0.27412  0.94867  1.0000
  O   O16       1.0  0.59870  0.22588  0.44866  1.0000
  O   O17       1.0  0.40098  0.83285  0.17169  1.0000
  O   O18       1.0  0.59903  0.66715  0.67169  1.0000
  O   O19       1.0  0.59902  0.16715  0.82831  1.0000
  O   O20       1.0  0.40097  0.33285  0.32831  1.0000
  O   O21       1.0  0.04585  0.01580  0.64754  1.0000
  O   O22       1.0  0.95416  0.48420  0.14754  1.0000
  O   O23       1.0  0.95416  0.98420  0.35246  1.0000
  O   O24       1.0  0.04584  0.51580  0.85246  1.0000
  O   O25       1.0  0.98912  0.13017  0.80849  1.0000
  O   O26       1.0  0.01088  0.36983  0.30849  1.0000
  O   O27       1.0  0.01088  0.86983  0.19151  1.0000
  O   O28       1.0  0.98912  0.63017  0.69151  1.0000
