data_image0
_chemical_formula_structural       Cd2H28C40N8O8
_chemical_formula_sum              "Cd2 H28 C40 N8 O8"
_cell_length_a       7.78025
_cell_length_b       10.5372
_cell_length_c       11.9124
_cell_angle_alpha    73.5122
_cell_angle_beta     75.782
_cell_angle_gamma    76.7333

_space_group_name_H-M_alt    "P 1"
_space_group_IT_number       1

loop_
  _space_group_symop_operation_xyz
  'x, y, z'

loop_
  _atom_site_type_symbol
  _atom_site_label
  _atom_site_symmetry_multiplicity
  _atom_site_fract_x
  _atom_site_fract_y
  _atom_site_fract_z
  _atom_site_occupancy
  Cd  Cd1       1.0  0.42366  0.38748  0.34709  1.0000
  Cd  Cd2       1.0  0.57634  0.61252  0.65291  1.0000
  H   H1        1.0  0.44196  0.13976  0.60377  1.0000
  H   H2        1.0  0.55804  0.86024  0.39623  1.0000
  H   H3        1.0  0.08712  0.51226  0.56933  1.0000
  H   H4        1.0  0.91288  0.48774  0.43067  1.0000
  H   H5        1.0  0.01399  0.36599  0.80132  1.0000
  H   H6        1.0  0.98601  0.63401  0.19868  1.0000
  H   H7        1.0  0.34945  0.95693  0.74840  1.0000
  H   H8        1.0  0.65055  0.04307  0.25160  1.0000
  H   H9        1.0  0.38449  0.78167  0.92958  1.0000
  H   H10       1.0  0.61549  0.21833  0.07043  1.0000
  H   H11       1.0  0.19131  0.07970  0.13938  1.0000
  H   H12       1.0  0.80870  0.92030  0.86062  1.0000
  H   H13       1.0  0.15959  0.25564  0.95669  1.0000
  H   H14       1.0  0.84042  0.74435  0.04331  1.0000
  H   H15       1.0  0.46174  0.64554  0.08400  1.0000
  H   H16       1.0  0.53826  0.35446  0.91600  1.0000
  H   H17       1.0  0.15850  0.92039  0.29164  1.0000
  H   H18       1.0  0.84149  0.07961  0.70836  1.0000
  H   H19       1.0  0.26128  0.67597  0.44072  1.0000
  H   H20       1.0  0.73871  0.32403  0.55928  1.0000
  H   H21       1.0  0.70346  0.93059  0.53049  1.0000
  H   H22       1.0  0.29655  0.06941  0.46950  1.0000
  H   H23       1.0  0.04635  0.23035  0.38219  1.0000
  H   H24       1.0  0.95366  0.76965  0.61781  1.0000
  H   H25       1.0  0.90025  0.36956  0.20707  1.0000
  H   H26       1.0  0.09974  0.63044  0.79293  1.0000
  H   H27       1.0  0.31394  0.54571  0.93382  1.0000
  H   H28       1.0  0.68605  0.45430  0.06618  1.0000
  C   C1        1.0  0.33734  0.22223  0.62381  1.0000
  C   C2        1.0  0.66266  0.77777  0.37619  1.0000
  C   C3        1.0  0.15089  0.41270  0.60976  1.0000
  C   C4        1.0  0.84911  0.58730  0.39024  1.0000
  C   C5        1.0  0.11394  0.34224  0.72608  1.0000
  C   C6        1.0  0.88606  0.65776  0.27392  1.0000
  C   C7        1.0  0.25018  0.11833  0.84042  1.0000
  C   C8        1.0  0.74982  0.88166  0.15958  1.0000
  C   C9        1.0  0.31454  0.98484  0.83381  1.0000
  C   C10       1.0  0.68546  0.01516  0.16619  1.0000
  C   C11       1.0  0.33289  0.88472  0.93748  1.0000
  C   C12       1.0  0.66710  0.11528  0.06252  1.0000
  C   C13       1.0  0.28705  0.91745  0.04835  1.0000
  C   C14       1.0  0.71294  0.08255  0.95165  1.0000
  C   C15       1.0  0.22341  0.05129  0.05459  1.0000
  C   C16       1.0  0.77659  0.94871  0.94542  1.0000
  C   C17       1.0  0.20492  0.15151  0.95092  1.0000
  C   C18       1.0  0.79509  0.84849  0.04908  1.0000
  C   C19       1.0  0.39454  0.68546  0.16129  1.0000
  C   C20       1.0  0.60546  0.31454  0.83872  1.0000
  C   C21       1.0  0.23725  0.82816  0.27085  1.0000
  C   C22       1.0  0.76273  0.17184  0.72915  1.0000
  C   C23       1.0  0.28736  0.70556  0.34395  1.0000
  C   C24       1.0  0.71263  0.29443  0.65606  1.0000
  C   C25       1.0  0.70698  0.18666  0.40256  1.0000
  C   C26       1.0  0.29302  0.81334  0.59743  1.0000
  C   C27       1.0  0.86008  0.08955  0.45031  1.0000
  C   C28       1.0  0.13993  0.91045  0.54968  1.0000
  C   C29       1.0  0.83412  0.95977  0.51660  1.0000
  C   C30       1.0  0.16589  0.04023  0.48339  1.0000
  C   C31       1.0  0.02648  0.12953  0.43396  1.0000
  C   C32       1.0  0.97353  0.87047  0.56603  1.0000
  C   C33       1.0  0.24888  0.40525  0.16335  1.0000
  C   C34       1.0  0.75112  0.59475  0.83666  1.0000
  C   C35       1.0  0.12164  0.45010  0.07799  1.0000
  C   C36       1.0  0.87835  0.54991  0.92201  1.0000
  C   C37       1.0  0.94427  0.42504  0.11586  1.0000
  C   C38       1.0  0.05573  0.57497  0.88415  1.0000
  C   C39       1.0  0.17657  0.52551  0.96184  1.0000
  C   C40       1.0  0.82343  0.47450  0.03816  1.0000
  N   N1        1.0  0.29047  0.33711  0.54687  1.0000
  N   N2        1.0  0.70953  0.66289  0.45313  1.0000
  N   N3        1.0  0.23332  0.22133  0.73452  1.0000
  N   N4        1.0  0.76668  0.77867  0.26548  1.0000
  N   N5        1.0  0.30565  0.81493  0.15459  1.0000
  N   N6        1.0  0.69434  0.18507  0.84541  1.0000
  N   N7        1.0  0.38525  0.61772  0.27488  1.0000
  N   N8        1.0  0.61474  0.38228  0.72512  1.0000
  O   O1        1.0  0.71373  0.31276  0.37742  1.0000
  O   O2        1.0  0.28627  0.68723  0.62257  1.0000
  O   O3        1.0  0.57320  0.14361  0.39223  1.0000
  O   O4        1.0  0.42681  0.85638  0.60777  1.0000
  O   O5        1.0  0.41753  0.39142  0.12470  1.0000
  O   O6        1.0  0.58247  0.60859  0.87530  1.0000
  O   O7        1.0  0.17727  0.38996  0.27462  1.0000
  O   O8        1.0  0.82273  0.61004  0.72538  1.0000
