data_image0
_chemical_formula_structural       ZnH28C14N2O12
_chemical_formula_sum              "Zn1 H28 C14 N2 O12"
_cell_length_a       7.34823
_cell_length_b       8.43628
_cell_length_c       7.87305
_cell_angle_alpha    89.0337
_cell_angle_beta     94.4684
_cell_angle_gamma    74.6363

_space_group_name_H-M_alt    "P 1"
_space_group_IT_number       1

loop_
  _space_group_symop_operation_xyz
  'x, y, z'

loop_
  _atom_site_type_symbol
  _atom_site_label
  _atom_site_symmetry_multiplicity
  _atom_site_fract_x
  _atom_site_fract_y
  _atom_site_fract_z
  _atom_site_occupancy
  Zn  Zn1       1.0  0.50000  0.50001  0.50002  1.0000
  H   H1        1.0  0.57962  0.22477  0.37255  1.0000
  H   H2        1.0  0.42034  0.77526  0.62746  1.0000
  H   H3        1.0  0.72904  0.31589  0.30233  1.0000
  H   H4        1.0  0.27097  0.68410  0.69772  1.0000
  H   H5        1.0  0.46271  0.58549  0.16637  1.0000
  H   H6        1.0  0.53732  0.41446  0.83363  1.0000
  H   H7        1.0  0.37385  0.43819  0.18467  1.0000
  H   H8        1.0  0.62614  0.56178  0.81540  1.0000
  H   H9        1.0  0.29860  0.17569  0.81280  1.0000
  H   H10       1.0  0.70141  0.82429  0.18718  1.0000
  H   H11       1.0  0.00989  0.20408  0.52031  1.0000
  H   H12       1.0  0.99007  0.79596  0.47969  1.0000
  H   H13       1.0  0.19996  0.02186  0.56198  1.0000
  H   H14       1.0  0.80001  0.97818  0.43797  1.0000
  H   H15       1.0  0.97614  0.35862  0.91133  1.0000
  H   H16       1.0  0.02391  0.64136  0.08871  1.0000
  H   H17       1.0  0.97590  0.42362  0.69519  1.0000
  H   H18       1.0  0.02411  0.57639  0.30485  1.0000
  H   H19       1.0  0.16617  0.93814  0.81084  1.0000
  H   H20       1.0  0.83383  0.06185  0.18912  1.0000
  H   H21       1.0  0.82857  0.07980  0.71193  1.0000
  H   H22       1.0  0.17143  0.92019  0.28804  1.0000
  H   H23       1.0  0.81125  0.20144  0.89334  1.0000
  H   H24       1.0  0.18876  0.79854  0.10664  1.0000
  H   H25       1.0  0.11160  0.17407  0.10626  1.0000
  H   H26       1.0  0.88842  0.82590  0.89372  1.0000
  H   H27       1.0  0.32529  0.03221  0.06323  1.0000
  H   H28       1.0  0.67472  0.96776  0.93674  1.0000
  C   C1        1.0  0.15623  0.15511  0.57693  1.0000
  C   C2        1.0  0.84373  0.84493  0.42305  1.0000
  C   C3        1.0  0.29143  0.23523  0.49009  1.0000
  C   C4        1.0  0.70850  0.76484  0.50989  1.0000
  C   C5        1.0  0.06511  0.35946  0.80592  1.0000
  C   C6        1.0  0.93492  0.64053  0.19412  1.0000
  C   C7        1.0  0.21881  0.44283  0.86284  1.0000
  C   C8        1.0  0.78124  0.55714  0.13719  1.0000
  C   C9        1.0  0.09592  0.05542  0.86550  1.0000
  C   C10       1.0  0.90408  0.94456  0.13448  1.0000
  C   C11       1.0  0.88195  0.08095  0.84587  1.0000
  C   C12       1.0  0.11806  0.91903  0.15411  1.0000
  C   C13       1.0  0.17058  0.05394  0.05197  1.0000
  C   C14       1.0  0.82943  0.94604  0.94800  1.0000
  N   N1        1.0  0.15865  0.18457  0.76507  1.0000
  N   N2        1.0  0.84134  0.81543  0.23492  1.0000
  O   O1        1.0  0.68702  0.27356  0.40781  1.0000
  O   O2        1.0  0.31296  0.72644  0.59223  1.0000
  O   O3        1.0  0.38186  0.53919  0.24063  1.0000
  O   O4        1.0  0.61815  0.46080  0.75939  1.0000
  O   O5        1.0  0.30328  0.37295  0.54880  1.0000
  O   O6        1.0  0.69668  0.62710  0.45122  1.0000
  O   O7        1.0  0.37884  0.16091  0.37126  1.0000
  O   O8        1.0  0.62107  0.83919  0.62868  1.0000
  O   O9        1.0  0.37723  0.34612  0.92267  1.0000
  O   O10       1.0  0.62283  0.65383  0.07732  1.0000
  O   O11       1.0  0.17602  0.59788  0.85243  1.0000
  O   O12       1.0  0.82405  0.40208  0.14763  1.0000
