data_image0
_chemical_formula_structural       CoH28C14N2O12
_chemical_formula_sum              "Co1 H28 C14 N2 O12"
_cell_length_a       7.11818
_cell_length_b       8.05243
_cell_length_c       8.72581
_cell_angle_alpha    87.7666
_cell_angle_beta     90.2392
_cell_angle_gamma    76.6544

_space_group_name_H-M_alt    "P 1"
_space_group_IT_number       1

loop_
  _space_group_symop_operation_xyz
  'x, y, z'

loop_
  _atom_site_type_symbol
  _atom_site_label
  _atom_site_symmetry_multiplicity
  _atom_site_fract_x
  _atom_site_fract_y
  _atom_site_fract_z
  _atom_site_occupancy
  Co  Co1       1.0  0.50000  1.00000  0.49999  1.0000
  H   H1        1.0  0.69992  0.31386  0.21274  1.0000
  H   H2        1.0  0.30010  0.68613  0.78727  1.0000
  H   H3        1.0  0.84581  0.45126  0.42267  1.0000
  H   H4        1.0  0.15421  0.54872  0.57735  1.0000
  H   H5        1.0  0.04140  0.26542  0.42344  1.0000
  H   H6        1.0  0.95859  0.73457  0.57658  1.0000
  H   H7        1.0  0.00031  0.03790  0.26587  1.0000
  H   H8        1.0  0.99969  0.96210  0.73412  1.0000
  H   H9        1.0  0.01464  0.12411  0.07642  1.0000
  H   H10       1.0  0.98538  0.87590  0.92360  1.0000
  H   H11       1.0  0.84048  0.55658  0.18552  1.0000
  H   H12       1.0  0.15952  0.44342  0.81449  1.0000
  H   H13       1.0  0.66630  0.45693  0.97437  1.0000
  H   H14       1.0  0.33370  0.54308  0.02564  1.0000
  H   H15       1.0  0.88144  0.31678  0.91576  1.0000
  H   H16       1.0  0.11856  0.68323  0.08425  1.0000
  H   H17       1.0  0.18432  0.42136  0.24594  1.0000
  H   H18       1.0  0.81569  0.57864  0.75407  1.0000
  H   H19       1.0  0.19730  0.29407  0.08267  1.0000
  H   H20       1.0  0.80271  0.70594  0.91734  1.0000
  H   H21       1.0  0.56744  0.90345  0.77766  1.0000
  H   H22       1.0  0.43258  0.09654  0.22233  1.0000
  H   H23       1.0  0.68589  0.04393  0.71650  1.0000
  H   H24       1.0  0.31411  0.95607  0.28348  1.0000
  H   H25       1.0  0.30281  0.20377  0.72520  1.0000
  H   H26       1.0  0.69716  0.79624  0.27479  1.0000
  H   H27       1.0  0.47157  0.27762  0.65590  1.0000
  H   H28       1.0  0.52839  0.72239  0.34409  1.0000
  C   C1        1.0  0.88652  0.31464  0.39870  1.0000
  C   C2        1.0  0.11348  0.68535  0.60131  1.0000
  C   C3        1.0  0.76651  0.22014  0.49986  1.0000
  C   C4        1.0  0.23348  0.77986  0.50013  1.0000
  C   C5        1.0  0.91964  0.12125  0.17473  1.0000
  C   C6        1.0  0.08036  0.87876  0.82527  1.0000
  C   C7        1.0  0.74391  0.05273  0.13104  1.0000
  C   C8        1.0  0.25608  0.94728  0.86896  1.0000
  C   C9        1.0  0.90855  0.43712  0.13117  1.0000
  C   C10       1.0  0.09147  0.56288  0.86883  1.0000
  C   C11       1.0  0.82399  0.43883  0.96973  1.0000
  C   C12       1.0  0.17602  0.56116  0.03027  1.0000
  C   C13       1.0  0.12660  0.41690  0.12974  1.0000
  C   C14       1.0  0.87342  0.58309  0.87028  1.0000
  N   N1        1.0  0.84955  0.29895  0.23073  1.0000
  N   N2        1.0  0.15047  0.70105  0.76928  1.0000
  O   O1        1.0  0.68302  0.12107  0.42738  1.0000
  O   O2        1.0  0.31698  0.87892  0.57261  1.0000
  O   O3        1.0  0.75593  0.24665  0.64133  1.0000
  O   O4        1.0  0.24406  0.75336  0.35866  1.0000
  O   O5        1.0  0.58365  0.16237  0.11618  1.0000
  O   O6        1.0  0.41634  0.83764  0.88381  1.0000
  O   O7        1.0  0.77390  0.89332  0.11813  1.0000
  O   O8        1.0  0.22612  0.10669  0.88186  1.0000
  O   O9        1.0  0.64918  0.93693  0.69099  1.0000
  O   O10       1.0  0.35083  0.06306  0.30900  1.0000
  O   O11       1.0  0.34521  0.25590  0.62932  1.0000
  O   O12       1.0  0.65475  0.74411  0.37068  1.0000
