data_image0
_chemical_formula_structural       La2P6H34C24O26
_chemical_formula_sum              "La2 P6 H34 C24 O26"
_cell_length_a       9.89159
_cell_length_b       11.7336
_cell_length_c       11.0008
_cell_angle_alpha    102.217
_cell_angle_beta     87.0417
_cell_angle_gamma    99.0676

_space_group_name_H-M_alt    "P 1"
_space_group_IT_number       1

loop_
  _space_group_symop_operation_xyz
  'x, y, z'

loop_
  _atom_site_type_symbol
  _atom_site_label
  _atom_site_symmetry_multiplicity
  _atom_site_fract_x
  _atom_site_fract_y
  _atom_site_fract_z
  _atom_site_occupancy
  La  La1       1.0  0.98964  0.65371  0.78147  1.0000
  La  La2       1.0  0.01036  0.34630  0.21853  1.0000
  P   P1        1.0  0.23161  0.72908  0.61176  1.0000
  P   P2        1.0  0.76839  0.27091  0.38824  1.0000
  P   P3        1.0  0.12272  0.41479  0.86170  1.0000
  P   P4        1.0  0.87728  0.58522  0.13830  1.0000
  P   P5        1.0  0.84397  0.86960  0.92232  1.0000
  P   P6        1.0  0.15602  0.13041  0.07767  1.0000
  H   H1        1.0  0.33858  0.84927  0.50369  1.0000
  H   H2        1.0  0.66144  0.15072  0.49631  1.0000
  H   H3        1.0  0.55935  0.83625  0.70532  1.0000
  H   H4        1.0  0.44068  0.16371  0.29466  1.0000
  H   H5        1.0  0.04409  0.26794  0.96233  1.0000
  H   H6        1.0  0.95591  0.73206  0.03767  1.0000
  H   H7        1.0  0.27108  0.71466  0.94432  1.0000
  H   H8        1.0  0.72891  0.28536  0.05568  1.0000
  H   H9        1.0  0.92743  0.05854  0.94008  1.0000
  H   H10       1.0  0.07256  0.94147  0.05991  1.0000
  H   H11       1.0  0.71365  0.73878  0.13405  1.0000
  H   H12       1.0  0.28634  0.26122  0.86594  1.0000
  H   H13       1.0  0.84081  0.48526  0.54985  1.0000
  H   H14       1.0  0.15920  0.51474  0.45015  1.0000
  H   H15       1.0  0.74132  0.57793  0.60522  1.0000
  H   H16       1.0  0.25868  0.42206  0.39477  1.0000
  H   H17       1.0  0.39477  0.69838  0.74806  1.0000
  H   H18       1.0  0.60522  0.30160  0.25195  1.0000
  H   H19       1.0  0.30174  0.47635  0.64467  1.0000
  H   H20       1.0  0.69825  0.52364  0.35534  1.0000
  H   H21       1.0  0.61482  0.69925  0.47813  1.0000
  H   H22       1.0  0.38518  0.30074  0.52188  1.0000
  H   H23       1.0  0.17211  0.56569  0.04597  1.0000
  H   H24       1.0  0.82790  0.43432  0.95403  1.0000
  H   H25       1.0  0.33230  0.53239  0.17565  1.0000
  H   H26       1.0  0.66771  0.46761  0.82434  1.0000
  H   H27       1.0  0.44034  0.51121  0.78768  1.0000
  H   H28       1.0  0.55967  0.48879  0.21231  1.0000
  H   H29       1.0  0.77455  0.93134  0.13500  1.0000
  H   H30       1.0  0.22545  0.06866  0.86501  1.0000
  H   H31       1.0  0.48650  0.78277  0.92968  1.0000
  H   H32       1.0  0.51350  0.21723  0.07033  1.0000
  H   H33       1.0  0.69997  0.11134  0.12351  1.0000
  H   H34       1.0  0.30002  0.88867  0.87650  1.0000
  C   C1        1.0  0.40499  0.70946  0.65091  1.0000
  C   C2        1.0  0.59500  0.29053  0.34910  1.0000
  C   C3        1.0  0.45379  0.60146  0.57182  1.0000
  C   C4        1.0  0.54620  0.39852  0.42819  1.0000
  C   C5        1.0  0.38955  0.48839  0.58220  1.0000
  C   C6        1.0  0.61044  0.51159  0.41780  1.0000
  C   C7        1.0  0.56462  0.61215  0.48852  1.0000
  C   C8        1.0  0.43537  0.38783  0.51148  1.0000
  C   C9        1.0  0.22792  0.54611  0.95666  1.0000
  C   C10       1.0  0.77209  0.45390  0.04333  1.0000
  C   C11       1.0  0.36990  0.52558  0.97866  1.0000
  C   C12       1.0  0.63012  0.47443  0.02133  1.0000
  C   C13       1.0  0.40506  0.51734  0.09782  1.0000
  C   C14       1.0  0.59495  0.48267  0.90217  1.0000
  C   C15       1.0  0.46650  0.50815  0.88148  1.0000
  C   C16       1.0  0.53351  0.49185  0.11851  1.0000
  C   C17       1.0  0.71686  0.87801  0.05346  1.0000
  C   C18       1.0  0.28314  0.12200  0.94654  1.0000
  C   C19       1.0  0.60392  0.94132  0.02775  1.0000
  C   C20       1.0  0.39608  0.05869  0.97226  1.0000
  C   C21       1.0  0.49055  0.87815  0.95981  1.0000
  C   C22       1.0  0.50945  0.12186  0.04020  1.0000
  C   C23       1.0  0.61283  0.06355  0.06763  1.0000
  C   C24       1.0  0.38717  0.93646  0.93237  1.0000
  O   O1        1.0  0.16698  0.80417  0.72366  1.0000
  O   O2        1.0  0.83302  0.19583  0.27634  1.0000
  O   O3        1.0  0.25693  0.78917  0.49362  1.0000
  O   O4        1.0  0.74308  0.21082  0.50638  1.0000
  O   O5        1.0  0.13704  0.61132  0.57621  1.0000
  O   O6        1.0  0.86296  0.38868  0.42378  1.0000
  O   O7        1.0  0.49025  0.81781  0.64097  1.0000
  O   O8        1.0  0.50976  0.18218  0.35904  1.0000
  O   O9        1.0  0.20377  0.33031  0.77933  1.0000
  O   O10       1.0  0.79623  0.66970  0.22066  1.0000
  O   O11       1.0  0.01478  0.46348  0.80088  1.0000
  O   O12       1.0  0.98522  0.53653  0.19912  1.0000
  O   O13       1.0  0.04831  0.35644  0.97366  1.0000
  O   O14       1.0  0.95170  0.64357  0.02635  1.0000
  O   O15       1.0  0.22492  0.64245  0.89195  1.0000
  O   O16       1.0  0.77508  0.35756  0.10805  1.0000
  O   O17       1.0  0.79793  0.77091  0.81136  1.0000
  O   O18       1.0  0.20206  0.22909  0.18864  1.0000
  O   O19       1.0  0.97941  0.84351  0.97178  1.0000
  O   O20       1.0  0.02058  0.15650  0.02821  1.0000
  O   O21       1.0  0.86961  0.99165  0.88085  1.0000
  O   O22       1.0  0.13038  0.00835  0.11915  1.0000
  O   O23       1.0  0.66393  0.76279  0.06893  1.0000
  O   O24       1.0  0.33607  0.23721  0.93106  1.0000
  O   O25       1.0  0.82071  0.54609  0.62595  1.0000
  O   O26       1.0  0.17930  0.45391  0.37404  1.0000
