data_image0
_chemical_formula_structural       Fe3H36C36S4N2O16
_chemical_formula_sum              "Fe3 H36 C36 S4 N2 O16"
_cell_length_a       8.49526
_cell_length_b       11.0943
_cell_length_c       11.337
_cell_angle_alpha    90.9487
_cell_angle_beta     111.116
_cell_angle_gamma    89.4494

_space_group_name_H-M_alt    "P 1"
_space_group_IT_number       1

loop_
  _space_group_symop_operation_xyz
  'x, y, z'

loop_
  _atom_site_type_symbol
  _atom_site_label
  _atom_site_symmetry_multiplicity
  _atom_site_fract_x
  _atom_site_fract_y
  _atom_site_fract_z
  _atom_site_occupancy
  Fe  Fe1       1.0  0.80685  0.83362  0.92510  1.0000
  Fe  Fe2       1.0  0.19314  0.16640  0.07489  1.0000
  Fe  Fe3       1.0  0.50000  0.00000  0.00000  1.0000
  H   H1        1.0  0.92621  0.00803  0.83192  1.0000
  H   H2        1.0  0.07376  0.99198  0.16806  1.0000
  H   H3        1.0  0.80084  0.93839  0.71283  1.0000
  H   H4        1.0  0.19915  0.06160  0.28716  1.0000
  H   H5        1.0  0.66885  0.53183  0.07308  1.0000
  H   H6        1.0  0.33119  0.46819  0.92693  1.0000
  H   H7        1.0  0.58734  0.35830  0.17619  1.0000
  H   H8        1.0  0.41269  0.64171  0.82381  1.0000
  H   H9        1.0  0.48922  0.39795  0.35627  1.0000
  H   H10       1.0  0.51079  0.60204  0.64371  1.0000
  H   H11       1.0  0.47805  0.60743  0.43316  1.0000
  H   H12       1.0  0.52196  0.39256  0.56684  1.0000
  H   H13       1.0  0.11237  0.87106  0.70450  1.0000
  H   H14       1.0  0.88762  0.12894  0.29550  1.0000
  H   H15       1.0  0.87843  0.86209  0.49277  1.0000
  H   H16       1.0  0.12156  0.13791  0.50723  1.0000
  H   H17       1.0  0.94852  0.83315  0.29910  1.0000
  H   H18       1.0  0.05148  0.16684  0.70091  1.0000
  H   H19       1.0  0.24612  0.81497  0.31583  1.0000
  H   H20       1.0  0.75388  0.18502  0.68419  1.0000
  H   H21       1.0  0.76585  0.18777  0.01175  1.0000
  H   H22       1.0  0.23412  0.81223  0.98825  1.0000
  H   H23       1.0  0.90762  0.71120  0.70473  1.0000
  H   H24       1.0  0.09239  0.28879  0.29526  1.0000
  H   H25       1.0  0.93462  0.58203  0.56999  1.0000
  H   H26       1.0  0.06536  0.41795  0.43001  1.0000
  H   H27       1.0  0.83190  0.44102  0.56527  1.0000
  H   H28       1.0  0.16809  0.55897  0.43474  1.0000
  H   H29       1.0  0.05641  0.45105  0.63724  1.0000
  H   H30       1.0  0.94358  0.54893  0.36276  1.0000
  H   H31       1.0  0.80609  0.43389  0.84757  1.0000
  H   H32       1.0  0.19391  0.56612  0.15244  1.0000
  H   H33       1.0  0.03031  0.44340  0.91940  1.0000
  H   H34       1.0  0.96969  0.55659  0.08059  1.0000
  H   H35       1.0  0.93864  0.34696  0.78639  1.0000
  H   H36       1.0  0.06135  0.65304  0.21362  1.0000
  C   C1        1.0  0.56101  0.68856  0.29430  1.0000
  C   C2        1.0  0.43901  0.31144  0.70572  1.0000
  C   C3        1.0  0.61481  0.66557  0.19121  1.0000
  C   C4        1.0  0.38521  0.33443  0.80880  1.0000
  C   C5        1.0  0.62705  0.54610  0.15256  1.0000
  C   C6        1.0  0.37298  0.45391  0.84744  1.0000
  C   C7        1.0  0.58257  0.44980  0.21072  1.0000
  C   C8        1.0  0.41747  0.55020  0.78927  1.0000
  C   C9        1.0  0.52806  0.47261  0.31161  1.0000
  C   C10       1.0  0.47197  0.52738  0.68838  1.0000
  C   C11       1.0  0.51919  0.59051  0.35370  1.0000
  C   C12       1.0  0.48083  0.40948  0.64630  1.0000
  C   C13       1.0  0.65033  0.76485  0.11853  1.0000
  C   C14       1.0  0.34966  0.23517  0.88148  1.0000
  C   C15       1.0  0.34822  0.82999  0.51919  1.0000
  C   C16       1.0  0.65178  0.17001  0.48083  1.0000
  C   C17       1.0  0.30856  0.84457  0.62983  1.0000
  C   C18       1.0  0.69144  0.15543  0.37018  1.0000
  C   C19       1.0  0.13899  0.85548  0.61833  1.0000
  C   C20       1.0  0.86101  0.14452  0.38167  1.0000
  C   C21       1.0  0.00942  0.85059  0.50104  1.0000
  C   C22       1.0  0.99058  0.14941  0.49897  1.0000
  C   C23       1.0  0.04861  0.83520  0.39218  1.0000
  C   C24       1.0  0.95139  0.16479  0.60783  1.0000
  C   C25       1.0  0.21628  0.82503  0.40132  1.0000
  C   C26       1.0  0.78372  0.17496  0.59869  1.0000
  C   C27       1.0  0.43977  0.85028  0.75844  1.0000
  C   C28       1.0  0.56023  0.14973  0.24156  1.0000
  C   C29       1.0  0.81269  0.11055  0.97079  1.0000
  C   C30       1.0  0.18730  0.88946  0.02920  1.0000
  C   C31       1.0  0.90969  0.64386  0.77547  1.0000
  C   C32       1.0  0.09031  0.35614  0.22453  1.0000
  C   C33       1.0  0.93701  0.49904  0.62176  1.0000
  C   C34       1.0  0.06298  0.50095  0.37824  1.0000
  C   C35       1.0  0.92462  0.43316  0.82941  1.0000
  C   C36       1.0  0.07537  0.56684  0.17059  1.0000
  S   S1        1.0  0.55109  0.84072  0.34527  1.0000
  S   S2        1.0  0.44891  0.15928  0.65474  1.0000
  S   S3        1.0  0.56307  0.82226  0.53012  1.0000
  S   S4        1.0  0.43693  0.17773  0.46990  1.0000
  N   N1        1.0  0.92285  0.52979  0.74271  1.0000
  N   N2        1.0  0.07715  0.47020  0.25729  1.0000
  O   O1        1.0  0.73742  0.74254  0.05010  1.0000
  O   O2        1.0  0.26257  0.25749  0.94990  1.0000
  O   O3        1.0  0.58651  0.86797  0.12902  1.0000
  O   O4        1.0  0.41350  0.13203  0.87099  1.0000
  O   O5        1.0  0.59107  0.82418  0.76696  1.0000
  O   O6        1.0  0.40892  0.17583  0.23305  1.0000
  O   O7        1.0  0.39658  0.87798  0.85183  1.0000
  O   O8        1.0  0.60342  0.12203  0.14818  1.0000
  O   O9        1.0  0.74073  0.00918  0.96908  1.0000
  O   O10       1.0  0.25925  0.99083  0.03091  1.0000
  O   O11       1.0  0.93186  0.12650  0.93050  1.0000
  O   O12       1.0  0.06811  0.87351  0.06948  1.0000
  O   O13       1.0  0.90066  0.67380  0.88063  1.0000
  O   O14       1.0  0.09934  0.32620  0.11936  1.0000
  O   O15       1.0  0.90067  0.92694  0.78922  1.0000
  O   O16       1.0  0.09932  0.07307  0.21077  1.0000
