data_image0
_chemical_formula_structural       Cd4H16C20N8O20
_chemical_formula_sum              "Cd4 H16 C20 N8 O20"
_cell_length_a       6.51353
_cell_length_b       8.94809
_cell_length_c       12.382
_cell_angle_alpha    90
_cell_angle_beta     90.0001
_cell_angle_gamma    106.251

_space_group_name_H-M_alt    "P 1"
_space_group_IT_number       1

loop_
  _space_group_symop_operation_xyz
  'x, y, z'

loop_
  _atom_site_type_symbol
  _atom_site_label
  _atom_site_symmetry_multiplicity
  _atom_site_fract_x
  _atom_site_fract_y
  _atom_site_fract_z
  _atom_site_occupancy
  Cd  Cd1       1.0  0.24602  0.88106  0.33537  1.0000
  Cd  Cd2       1.0  0.75399  0.61894  0.83537  1.0000
  Cd  Cd3       1.0  0.75399  0.11894  0.66463  1.0000
  Cd  Cd4       1.0  0.24602  0.38106  0.16463  1.0000
  H   H1        1.0  0.24302  0.19613  0.41279  1.0000
  H   H2        1.0  0.75698  0.30386  0.91279  1.0000
  H   H3        1.0  0.75698  0.80387  0.58721  1.0000
  H   H4        1.0  0.24302  0.69613  0.08722  1.0000
  H   H5        1.0  0.23339  0.10216  0.52214  1.0000
  H   H6        1.0  0.76661  0.39784  0.02214  1.0000
  H   H7        1.0  0.76661  0.89785  0.47786  1.0000
  H   H8        1.0  0.23339  0.60215  0.97786  1.0000
  H   H9        1.0  0.26490  0.86963  0.62912  1.0000
  H   H10       1.0  0.73511  0.63038  0.12912  1.0000
  H   H11       1.0  0.73511  0.13037  0.37088  1.0000
  H   H12       1.0  0.26489  0.36962  0.87088  1.0000
  H   H13       1.0  0.27155  0.39961  0.59690  1.0000
  H   H14       1.0  0.72844  0.10039  0.09690  1.0000
  H   H15       1.0  0.72843  0.60038  0.40310  1.0000
  H   H16       1.0  0.27156  0.89961  0.90311  1.0000
  C   C1        1.0  0.25283  0.52429  0.36884  1.0000
  C   C2        1.0  0.74716  0.97572  0.86884  1.0000
  C   C3        1.0  0.74716  0.47572  0.63116  1.0000
  C   C4        1.0  0.25284  0.02427  0.13116  1.0000
  C   C5        1.0  0.25819  0.58690  0.47921  1.0000
  C   C6        1.0  0.74180  0.91310  0.97920  1.0000
  C   C7        1.0  0.74180  0.41310  0.52079  1.0000
  C   C8        1.0  0.25820  0.08690  0.02080  1.0000
  C   C9        1.0  0.26870  0.51763  0.57987  1.0000
  C   C10       1.0  0.73130  0.98237  0.07987  1.0000
  C   C11       1.0  0.73129  0.48237  0.42012  1.0000
  C   C12       1.0  0.26871  0.01763  0.92013  1.0000
  C   C13       1.0  0.26101  0.63119  0.65533  1.0000
  C   C14       1.0  0.73899  0.86881  0.15532  1.0000
  C   C15       1.0  0.73898  0.36880  0.34467  1.0000
  C   C16       1.0  0.26101  0.13119  0.84467  1.0000
  C   C17       1.0  0.25460  0.62186  0.77504  1.0000
  C   C18       1.0  0.74541  0.87814  0.27504  1.0000
  C   C19       1.0  0.74539  0.37814  0.22496  1.0000
  C   C20       1.0  0.25460  0.12186  0.72496  1.0000
  N   N1        1.0  0.24893  0.73505  0.49249  1.0000
  N   N2        1.0  0.75107  0.76495  0.99249  1.0000
  N   N3        1.0  0.75107  0.26496  0.50751  1.0000
  N   N4        1.0  0.24893  0.23504  0.00751  1.0000
  N   N5        1.0  0.24622  0.75813  0.59870  1.0000
  N   N6        1.0  0.75379  0.74187  0.09870  1.0000
  N   N7        1.0  0.75378  0.24187  0.40130  1.0000
  N   N8        1.0  0.24622  0.25812  0.90130  1.0000
  O   O1        1.0  0.25805  0.61683  0.28981  1.0000
  O   O2        1.0  0.74194  0.88316  0.78980  1.0000
  O   O3        1.0  0.74195  0.38317  0.71019  1.0000
  O   O4        1.0  0.25806  0.11684  0.21020  1.0000
  O   O5        1.0  0.24267  0.38125  0.35480  1.0000
  O   O6        1.0  0.75732  0.11874  0.85480  1.0000
  O   O7        1.0  0.75732  0.61875  0.64519  1.0000
  O   O8        1.0  0.24268  0.88126  0.14520  1.0000
  O   O9        1.0  0.13371  0.68466  0.82749  1.0000
  O   O10       1.0  0.86628  0.81534  0.32749  1.0000
  O   O11       1.0  0.86628  0.31534  0.17251  1.0000
  O   O12       1.0  0.13372  0.18466  0.67251  1.0000
  O   O13       1.0  0.37097  0.54591  0.82046  1.0000
  O   O14       1.0  0.62903  0.95409  0.32046  1.0000
  O   O15       1.0  0.62903  0.45409  0.17954  1.0000
  O   O16       1.0  0.37097  0.04591  0.67954  1.0000
  O   O17       1.0  0.24584  0.09476  0.44352  1.0000
  O   O18       1.0  0.75416  0.40524  0.94352  1.0000
  O   O19       1.0  0.75417  0.90525  0.55648  1.0000
  O   O20       1.0  0.24584  0.59476  0.05648  1.0000
