data_image0
_chemical_formula_structural       Cd6H12C20N8O20
_chemical_formula_sum              "Cd6 H12 C20 N8 O20"
_cell_length_a       7.64473
_cell_length_b       9.86778
_cell_length_c       9.84288
_cell_angle_alpha    90.0001
_cell_angle_beta     89.9999
_cell_angle_gamma    106.042

_space_group_name_H-M_alt    "P 1"
_space_group_IT_number       1

loop_
  _space_group_symop_operation_xyz
  'x, y, z'

loop_
  _atom_site_type_symbol
  _atom_site_label
  _atom_site_symmetry_multiplicity
  _atom_site_fract_x
  _atom_site_fract_y
  _atom_site_fract_z
  _atom_site_occupancy
  Cd  Cd1       1.0  0.00000  0.00000  0.00000  1.0000
  Cd  Cd2       1.0  0.50000  0.00000  0.50000  1.0000
  Cd  Cd3       1.0  0.94447  0.27596  0.49172  1.0000
  Cd  Cd4       1.0  0.55553  0.72404  0.99172  1.0000
  Cd  Cd5       1.0  0.05553  0.72404  0.50828  1.0000
  Cd  Cd6       1.0  0.44447  0.27596  0.00828  1.0000
  H   H1        1.0  0.32133  0.95430  0.95950  1.0000
  H   H2        1.0  0.17867  0.04570  0.45950  1.0000
  H   H3        1.0  0.67867  0.04570  0.04050  1.0000
  H   H4        1.0  0.82133  0.95430  0.54050  1.0000
  H   H5        1.0  0.33354  0.05331  0.82316  1.0000
  H   H6        1.0  0.16646  0.94669  0.32316  1.0000
  H   H7        1.0  0.66646  0.94669  0.17684  1.0000
  H   H8        1.0  0.83354  0.05331  0.67684  1.0000
  H   H9        1.0  0.18969  0.50751  0.01634  1.0000
  H   H10       1.0  0.31031  0.49249  0.51634  1.0000
  H   H11       1.0  0.81031  0.49249  0.98366  1.0000
  H   H12       1.0  0.68969  0.50750  0.48366  1.0000
  C   C1        1.0  0.06916  0.25387  0.19674  1.0000
  C   C2        1.0  0.43084  0.74613  0.69674  1.0000
  C   C3        1.0  0.93084  0.74613  0.80326  1.0000
  C   C4        1.0  0.56916  0.25387  0.30326  1.0000
  C   C5        1.0  0.09860  0.40632  0.21611  1.0000
  C   C6        1.0  0.40140  0.59368  0.71611  1.0000
  C   C7        1.0  0.90140  0.59368  0.78389  1.0000
  C   C8        1.0  0.59860  0.40632  0.28389  1.0000
  C   C9        1.0  0.15464  0.51542  0.12209  1.0000
  C   C10       1.0  0.34536  0.48458  0.62209  1.0000
  C   C11       1.0  0.84536  0.48458  0.87791  1.0000
  C   C12       1.0  0.65464  0.51542  0.37791  1.0000
  C   C13       1.0  0.14589  0.63596  0.19305  1.0000
  C   C14       1.0  0.35411  0.36404  0.69305  1.0000
  C   C15       1.0  0.85411  0.36404  0.80695  1.0000
  C   C16       1.0  0.64589  0.63596  0.30695  1.0000
  C   C17       1.0  0.18186  0.77801  0.13227  1.0000
  C   C18       1.0  0.31814  0.22199  0.63227  1.0000
  C   C19       1.0  0.81814  0.22199  0.86773  1.0000
  C   C20       1.0  0.68186  0.77800  0.36773  1.0000
  N   N1        1.0  0.06087  0.45911  0.33671  1.0000
  N   N2        1.0  0.43913  0.54089  0.83671  1.0000
  N   N3        1.0  0.93913  0.54089  0.66329  1.0000
  N   N4        1.0  0.56087  0.45911  0.16329  1.0000
  N   N5        1.0  0.08814  0.59913  0.32293  1.0000
  N   N6        1.0  0.41187  0.40087  0.82292  1.0000
  N   N7        1.0  0.91187  0.40087  0.67708  1.0000
  N   N8        1.0  0.58813  0.59913  0.17707  1.0000
  O   O1        1.0  0.98599  0.16715  0.28527  1.0000
  O   O2        1.0  0.51401  0.83285  0.78527  1.0000
  O   O3        1.0  0.01401  0.83285  0.71473  1.0000
  O   O4        1.0  0.48599  0.16715  0.21473  1.0000
  O   O5        1.0  0.12833  0.21704  0.08327  1.0000
  O   O6        1.0  0.37167  0.78296  0.58327  1.0000
  O   O7        1.0  0.87167  0.78296  0.91673  1.0000
  O   O8        1.0  0.62833  0.21704  0.41673  1.0000
  O   O9        1.0  0.09633  0.86440  0.17412  1.0000
  O   O10       1.0  0.40367  0.13560  0.67412  1.0000
  O   O11       1.0  0.90366  0.13560  0.82588  1.0000
  O   O12       1.0  0.59633  0.86440  0.32588  1.0000
  O   O13       1.0  0.29313  0.80393  0.03204  1.0000
  O   O14       1.0  0.20687  0.19607  0.53204  1.0000
  O   O15       1.0  0.70687  0.19607  0.96796  1.0000
  O   O16       1.0  0.79313  0.80393  0.46796  1.0000
  O   O17       1.0  0.30183  0.04488  0.92171  1.0000
  O   O18       1.0  0.19817  0.95512  0.42171  1.0000
  O   O19       1.0  0.69817  0.95513  0.07829  1.0000
  O   O20       1.0  0.80183  0.04488  0.57828  1.0000
