data_image0
_chemical_formula_structural       Fe2H6C8N16
_chemical_formula_sum              "Fe2 H6 C8 N16"
_cell_length_a       5.54776
_cell_length_b       7.44679
_cell_length_c       8.87223
_cell_angle_alpha    89.3987
_cell_angle_beta     88.3368
_cell_angle_gamma    68.1418

_space_group_name_H-M_alt    "P 1"
_space_group_IT_number       1

loop_
  _space_group_symop_operation_xyz
  'x, y, z'

loop_
  _atom_site_type_symbol
  _atom_site_label
  _atom_site_symmetry_multiplicity
  _atom_site_fract_x
  _atom_site_fract_y
  _atom_site_fract_z
  _atom_site_occupancy
  Fe  Fe1       1.0  0.19242  0.61524  0.00002  1.0000
  Fe  Fe2       1.0  0.80759  0.38476  0.99998  1.0000
  H   H1        1.0  0.93790  0.68874  0.33547  1.0000
  H   H2        1.0  0.37386  0.68850  0.66461  1.0000
  H   H3        1.0  0.06210  0.31126  0.66453  1.0000
  H   H4        1.0  0.62614  0.31150  0.33539  1.0000
  H   H5        1.0  0.71649  0.00017  0.47156  1.0000
  H   H6        1.0  0.28348  0.99983  0.52843  1.0000
  C   C1        1.0  0.90024  0.82563  0.27823  1.0000
  C   C2        1.0  0.27443  0.82543  0.72182  1.0000
  C   C3        1.0  0.09976  0.17437  0.72176  1.0000
  C   C4        1.0  0.72556  0.17457  0.27819  1.0000
  C   C5        1.0  0.77593  0.00013  0.35376  1.0000
  C   C6        1.0  0.22405  0.99988  0.64623  1.0000
  C   C7        1.0  0.94052  0.00003  0.07123  1.0000
  C   C8        1.0  0.05949  0.99997  0.92877  1.0000
  N   N1        1.0  0.98160  0.82372  0.13249  1.0000
  N   N2        1.0  0.19489  0.82364  0.86754  1.0000
  N   N3        1.0  0.01840  0.17628  0.86752  1.0000
  N   N4        1.0  0.80512  0.17637  0.13245  1.0000
  N   N5        1.0  0.09957  0.41433  0.11459  1.0000
  N   N6        1.0  0.48609  0.41426  0.88540  1.0000
  N   N7        1.0  0.90044  0.58567  0.88542  1.0000
  N   N8        1.0  0.51392  0.58574  0.11460  1.0000
  N   N9        1.0  0.12885  0.36256  0.24555  1.0000
  N   N10       1.0  0.50853  0.36247  0.75442  1.0000
  N   N11       1.0  0.87115  0.63745  0.75445  1.0000
  N   N12       1.0  0.49147  0.63753  0.24558  1.0000
  N   N13       1.0  0.15400  0.30818  0.36955  1.0000
  N   N14       1.0  0.53767  0.30810  0.63039  1.0000
  N   N15       1.0  0.84600  0.69182  0.63047  1.0000
  N   N16       1.0  0.46233  0.69189  0.36960  1.0000
