data_image0
_chemical_formula_structural       Co2H6C8N16
_chemical_formula_sum              "Co2 H6 C8 N16"
_cell_length_a       5.84221
_cell_length_b       7.83121
_cell_length_c       9.01584
_cell_angle_alpha    87.0269
_cell_angle_beta     81.9965
_cell_angle_gamma    68.0544

_space_group_name_H-M_alt    "P 1"
_space_group_IT_number       1

loop_
  _space_group_symop_operation_xyz
  'x, y, z'

loop_
  _atom_site_type_symbol
  _atom_site_label
  _atom_site_symmetry_multiplicity
  _atom_site_fract_x
  _atom_site_fract_y
  _atom_site_fract_z
  _atom_site_occupancy
  Co  Co1       1.0  0.19616  0.60743  0.00002  1.0000
  Co  Co2       1.0  0.80385  0.39256  0.99998  1.0000
  H   H1        1.0  0.93627  0.70350  0.34588  1.0000
  H   H2        1.0  0.36018  0.70319  0.65396  1.0000
  H   H3        1.0  0.06373  0.29650  0.65412  1.0000
  H   H4        1.0  0.63981  0.29681  0.34604  1.0000
  H   H5        1.0  0.72260  0.00011  0.48820  1.0000
  H   H6        1.0  0.27740  0.99989  0.51180  1.0000
  C   C1        1.0  0.90464  0.83546  0.29027  1.0000
  C   C2        1.0  0.25992  0.83520  0.70959  1.0000
  C   C3        1.0  0.09536  0.16454  0.70973  1.0000
  C   C4        1.0  0.74008  0.16480  0.29041  1.0000
  C   C5        1.0  0.78395  0.00012  0.36882  1.0000
  C   C6        1.0  0.21605  0.99988  0.63118  1.0000
  C   C7        1.0  0.94736  0.00005  0.07768  1.0000
  C   C8        1.0  0.05264  0.99995  0.92232  1.0000
  N   N1        1.0  0.98627  0.83473  0.14276  1.0000
  N   N2        1.0  0.17889  0.83458  0.85713  1.0000
  N   N3        1.0  0.01373  0.16527  0.85724  1.0000
  N   N4        1.0  0.82111  0.16542  0.14287  1.0000
  N   N5        1.0  0.07183  0.42924  0.12575  1.0000
  N   N6        1.0  0.49905  0.42920  0.87426  1.0000
  N   N7        1.0  0.92818  0.57076  0.87425  1.0000
  N   N8        1.0  0.50095  0.57080  0.12574  1.0000
  N   N9        1.0  0.12220  0.36286  0.24681  1.0000
  N   N10       1.0  0.51500  0.36279  0.75323  1.0000
  N   N11       1.0  0.87780  0.63714  0.75318  1.0000
  N   N12       1.0  0.48500  0.63721  0.24677  1.0000
  N   N13       1.0  0.16829  0.29572  0.36287  1.0000
  N   N14       1.0  0.53601  0.29561  0.63719  1.0000
  N   N15       1.0  0.83171  0.70429  0.63715  1.0000
  N   N16       1.0  0.46400  0.70439  0.36280  1.0000
