data_image0
_chemical_formula_structural       Pr2H26C32O22
_chemical_formula_sum              "Pr2 H26 C32 O22"
_cell_length_a       6.80221
_cell_length_b       10.9058
_cell_length_c       11.5994
_cell_angle_alpha    94.3536
_cell_angle_beta     100.371
_cell_angle_gamma    95.809

_space_group_name_H-M_alt    "P 1"
_space_group_IT_number       1

loop_
  _space_group_symop_operation_xyz
  'x, y, z'

loop_
  _atom_site_type_symbol
  _atom_site_label
  _atom_site_symmetry_multiplicity
  _atom_site_fract_x
  _atom_site_fract_y
  _atom_site_fract_z
  _atom_site_occupancy
  Pr  Pr1       1.0  0.08847  0.26336  0.00485  1.0000
  Pr  Pr2       1.0  0.91153  0.73664  0.99515  1.0000
  H   H1        1.0  0.77182  0.70947  0.65437  1.0000
  H   H2        1.0  0.22818  0.29053  0.34563  1.0000
  H   H3        1.0  0.51286  0.24037  0.89785  1.0000
  H   H4        1.0  0.48714  0.75962  0.10215  1.0000
  H   H5        1.0  0.33146  0.31024  0.83919  1.0000
  H   H6        1.0  0.66853  0.68976  0.16081  1.0000
  H   H7        1.0  0.26808  0.52562  0.06326  1.0000
  H   H8        1.0  0.73192  0.47437  0.93674  1.0000
  H   H9        1.0  0.31168  0.47140  0.18800  1.0000
  H   H10       1.0  0.68832  0.52859  0.81201  1.0000
  H   H11       1.0  0.77078  0.03884  0.02305  1.0000
  H   H12       1.0  0.22922  0.96116  0.97695  1.0000
  H   H13       1.0  0.93846  0.03963  0.13350  1.0000
  H   H14       1.0  0.06154  0.96037  0.86650  1.0000
  H   H15       1.0  0.49810  0.76523  0.33651  1.0000
  H   H16       1.0  0.50189  0.23477  0.66349  1.0000
  H   H17       1.0  0.77958  0.87187  0.48999  1.0000
  H   H18       1.0  0.22041  0.12813  0.51001  1.0000
  H   H19       1.0  0.85550  0.10164  0.50390  1.0000
  H   H20       1.0  0.14450  0.89835  0.49610  1.0000
  H   H21       1.0  0.65686  0.30160  0.54641  1.0000
  H   H22       1.0  0.34313  0.69840  0.45359  1.0000
  H   H23       1.0  0.84464  0.61306  0.36995  1.0000
  H   H24       1.0  0.15536  0.38694  0.63005  1.0000
  H   H25       1.0  0.72316  0.24848  0.18457  1.0000
  H   H26       1.0  0.27685  0.75152  0.81544  1.0000
  C   C1        1.0  0.53020  0.86585  0.34537  1.0000
  C   C2        1.0  0.46980  0.13415  0.65462  1.0000
  C   C3        1.0  0.68876  0.92586  0.43049  1.0000
  C   C4        1.0  0.31124  0.07414  0.56951  1.0000
  C   C5        1.0  0.72988  0.05418  0.43863  1.0000
  C   C6        1.0  0.27012  0.94581  0.56137  1.0000
  C   C7        1.0  0.61568  0.12439  0.36113  1.0000
  C   C8        1.0  0.38432  0.87561  0.63887  1.0000
  C   C9        1.0  0.45146  0.06389  0.27788  1.0000
  C   C10       1.0  0.54854  0.93611  0.72212  1.0000
  C   C11       1.0  0.40817  0.93435  0.27128  1.0000
  C   C12       1.0  0.59182  0.06565  0.72872  1.0000
  C   C13       1.0  0.23150  0.86760  0.18626  1.0000
  C   C14       1.0  0.76850  0.13240  0.81374  1.0000
  C   C15       1.0  0.32924  0.13317  0.18977  1.0000
  C   C16       1.0  0.67076  0.86683  0.81023  1.0000
  C   C17       1.0  0.67729  0.25910  0.36423  1.0000
  C   C18       1.0  0.32271  0.74090  0.63577  1.0000
  C   C19       1.0  0.69225  0.33774  0.46687  1.0000
  C   C20       1.0  0.30775  0.66226  0.53313  1.0000
  C   C21       1.0  0.74644  0.46530  0.46892  1.0000
  C   C22       1.0  0.25356  0.53470  0.53108  1.0000
  C   C23       1.0  0.79654  0.51459  0.36862  1.0000
  C   C24       1.0  0.20346  0.48541  0.63138  1.0000
  C   C25       1.0  0.79094  0.43535  0.26703  1.0000
  C   C26       1.0  0.20907  0.56465  0.73297  1.0000
  C   C27       1.0  0.72733  0.30895  0.26437  1.0000
  C   C28       1.0  0.27267  0.69105  0.73564  1.0000
  C   C29       1.0  0.74501  0.54237  0.58018  1.0000
  C   C30       1.0  0.25499  0.45764  0.41982  1.0000
  C   C31       1.0  0.85678  0.48246  0.16057  1.0000
  C   C32       1.0  0.14323  0.51754  0.83943  1.0000
  O   O1        1.0  0.24161  0.22526  0.22209  1.0000
  O   O2        1.0  0.75839  0.77474  0.77791  1.0000
  O   O3        1.0  0.31317  0.09888  0.08072  1.0000
  O   O4        1.0  0.68683  0.90112  0.91928  1.0000
  O   O5        1.0  0.05813  0.90456  0.17584  1.0000
  O   O6        1.0  0.94187  0.09544  0.82416  1.0000
  O   O7        1.0  0.25896  0.77058  0.12390  1.0000
  O   O8        1.0  0.74104  0.22942  0.87609  1.0000
  O   O9        1.0  0.70450  0.49450  0.66797  1.0000
  O   O10       1.0  0.29550  0.50550  0.33203  1.0000
  O   O11       1.0  0.78631  0.66365  0.57637  1.0000
  O   O12       1.0  0.21369  0.33635  0.42363  1.0000
  O   O13       1.0  0.87036  0.40287  0.07629  1.0000
  O   O14       1.0  0.12965  0.59713  0.92371  1.0000
  O   O15       1.0  0.89465  0.59859  0.15804  1.0000
  O   O16       1.0  0.10536  0.40141  0.84196  1.0000
  O   O17       1.0  0.36871  0.25228  0.89750  1.0000
  O   O18       1.0  0.63129  0.74772  0.10250  1.0000
  O   O19       1.0  0.31484  0.45424  0.10284  1.0000
  O   O20       1.0  0.68516  0.54576  0.89716  1.0000
  O   O21       1.0  0.86616  0.09582  0.08252  1.0000
  O   O22       1.0  0.13384  0.90418  0.91748  1.0000
