data_image0
_chemical_formula_structural       K2Cd2H48C30S6N6O12
_chemical_formula_sum              "K2 Cd2 H48 C30 S6 N6 O12"
_cell_length_a       10.4327
_cell_length_b       10.4327
_cell_length_c       10.597
_cell_angle_alpha    90.0004
_cell_angle_beta     89.9999
_cell_angle_gamma    90.8599

_space_group_name_H-M_alt    "P 1"
_space_group_IT_number       1

loop_
  _space_group_symop_operation_xyz
  'x, y, z'

loop_
  _atom_site_type_symbol
  _atom_site_label
  _atom_site_symmetry_multiplicity
  _atom_site_fract_x
  _atom_site_fract_y
  _atom_site_fract_z
  _atom_site_occupancy
  K   K1        1.0  0.68439  0.31562  0.80210  1.0000
  K   K2        1.0  0.31561  0.68439  0.30209  1.0000
  Cd  Cd1       1.0  0.97119  0.02881  0.99497  1.0000
  Cd  Cd2       1.0  0.02881  0.97119  0.49497  1.0000
  H   H1        1.0  0.54923  0.29140  0.43769  1.0000
  H   H2        1.0  0.45077  0.70860  0.93769  1.0000
  H   H3        1.0  0.70860  0.45078  0.43769  1.0000
  H   H4        1.0  0.29140  0.54923  0.93769  1.0000
  H   H5        1.0  0.65863  0.17357  0.38187  1.0000
  H   H6        1.0  0.34137  0.82643  0.88187  1.0000
  H   H7        1.0  0.82643  0.34137  0.38187  1.0000
  H   H8        1.0  0.17357  0.65863  0.88187  1.0000
  H   H9        1.0  0.62740  0.04830  0.58090  1.0000
  H   H10       1.0  0.37260  0.95170  0.08090  1.0000
  H   H11       1.0  0.95169  0.37260  0.58090  1.0000
  H   H12       1.0  0.04830  0.62740  0.08090  1.0000
  H   H13       1.0  0.48331  0.06601  0.49131  1.0000
  H   H14       1.0  0.51669  0.93399  0.99131  1.0000
  H   H15       1.0  0.93399  0.51669  0.49131  1.0000
  H   H16       1.0  0.06601  0.48331  0.99131  1.0000
  H   H17       1.0  0.34852  0.04265  0.66815  1.0000
  H   H18       1.0  0.65148  0.95736  0.16815  1.0000
  H   H19       1.0  0.95735  0.65148  0.66815  1.0000
  H   H20       1.0  0.04264  0.34852  0.16814  1.0000
  H   H21       1.0  0.48655  0.01393  0.76456  1.0000
  H   H22       1.0  0.51345  0.98607  0.26456  1.0000
  H   H23       1.0  0.98607  0.51345  0.76456  1.0000
  H   H24       1.0  0.01394  0.48655  0.26456  1.0000
  H   H25       1.0  0.29300  0.09258  0.88352  1.0000
  H   H26       1.0  0.70700  0.90742  0.38352  1.0000
  H   H27       1.0  0.90742  0.70700  0.88352  1.0000
  H   H28       1.0  0.09258  0.29301  0.38352  1.0000
  H   H29       1.0  0.30059  0.23764  0.79535  1.0000
  H   H30       1.0  0.69941  0.76236  0.29535  1.0000
  H   H31       1.0  0.76236  0.69941  0.79535  1.0000
  H   H32       1.0  0.23764  0.30059  0.29535  1.0000
  H   H33       1.0  0.33186  0.35511  0.97660  1.0000
  H   H34       1.0  0.66813  0.64490  0.47659  1.0000
  H   H35       1.0  0.64489  0.66813  0.97659  1.0000
  H   H36       1.0  0.35510  0.33187  0.47660  1.0000
  H   H37       1.0  0.33185  0.21700  0.07471  1.0000
  H   H38       1.0  0.66815  0.78300  0.57471  1.0000
  H   H39       1.0  0.78300  0.66815  0.07471  1.0000
  H   H40       1.0  0.21700  0.33186  0.57471  1.0000
  H   H41       1.0  0.55970  0.26933  0.13881  1.0000
  H   H42       1.0  0.44030  0.73067  0.63881  1.0000
  H   H43       1.0  0.73067  0.44031  0.13881  1.0000
  H   H44       1.0  0.26933  0.55970  0.63882  1.0000
  H   H45       1.0  0.44715  0.39119  0.17870  1.0000
  H   H46       1.0  0.55285  0.60881  0.67869  1.0000
  H   H47       1.0  0.60880  0.55285  0.17870  1.0000
  H   H48       1.0  0.39119  0.44715  0.67870  1.0000
  C   C1        1.0  0.87146  0.12854  0.26518  1.0000
  C   C2        1.0  0.12854  0.87146  0.76518  1.0000
  C   C3        1.0  0.81230  0.95218  0.72465  1.0000
  C   C4        1.0  0.18770  0.04782  0.22466  1.0000
  C   C5        1.0  0.04782  0.18770  0.72465  1.0000
  C   C6        1.0  0.95217  0.81230  0.22465  1.0000
  C   C7        1.0  0.61958  0.21906  0.46746  1.0000
  C   C8        1.0  0.38042  0.78094  0.96746  1.0000
  C   C9        1.0  0.78094  0.38042  0.46746  1.0000
  C   C10       1.0  0.21906  0.61958  0.96746  1.0000
  C   C11       1.0  0.55602  0.11800  0.54820  1.0000
  C   C12       1.0  0.44398  0.88200  0.04820  1.0000
  C   C13       1.0  0.88200  0.44398  0.54820  1.0000
  C   C14       1.0  0.11800  0.55601  0.04819  1.0000
  C   C15       1.0  0.42305  0.08894  0.72725  1.0000
  C   C16       1.0  0.57695  0.91105  0.22725  1.0000
  C   C17       1.0  0.91105  0.57695  0.72725  1.0000
  C   C18       1.0  0.08895  0.42305  0.22725  1.0000
  C   C19       1.0  0.35883  0.15895  0.83335  1.0000
  C   C20       1.0  0.64117  0.84105  0.33335  1.0000
  C   C21       1.0  0.84105  0.64118  0.83335  1.0000
  C   C22       1.0  0.15895  0.35883  0.33335  1.0000
  C   C23       1.0  0.39383  0.28083  0.01734  1.0000
  C   C24       1.0  0.60618  0.71917  0.51734  1.0000
  C   C25       1.0  0.71917  0.60618  0.01734  1.0000
  C   C26       1.0  0.28083  0.39383  0.51734  1.0000
  C   C27       1.0  0.49513  0.34219  0.09946  1.0000
  C   C28       1.0  0.50487  0.65781  0.59946  1.0000
  C   C29       1.0  0.65781  0.50487  0.09946  1.0000
  C   C30       1.0  0.34219  0.49513  0.59945  1.0000
  S   S1        1.0  0.81550  0.18450  0.13299  1.0000
  S   S2        1.0  0.18450  0.81549  0.63298  1.0000
  S   S3        1.0  0.74582  0.99081  0.85858  1.0000
  S   S4        1.0  0.25418  0.00919  0.35859  1.0000
  S   S5        1.0  0.00919  0.25418  0.85859  1.0000
  S   S6        1.0  0.99081  0.74582  0.35858  1.0000
  N   N1        1.0  0.91082  0.08918  0.36194  1.0000
  N   N2        1.0  0.08918  0.91082  0.86193  1.0000
  N   N3        1.0  0.85810  0.92137  0.62724  1.0000
  N   N4        1.0  0.14190  0.07862  0.12725  1.0000
  N   N5        1.0  0.07863  0.14190  0.62725  1.0000
  N   N6        1.0  0.92137  0.85810  0.12723  1.0000
  O   O1        1.0  0.71988  0.28012  0.53791  1.0000
  O   O2        1.0  0.28012  0.71988  0.03791  1.0000
  O   O3        1.0  0.49675  0.17870  0.65388  1.0000
  O   O4        1.0  0.50325  0.82129  0.15388  1.0000
  O   O5        1.0  0.82129  0.50325  0.65388  1.0000
  O   O6        1.0  0.17870  0.49675  0.15388  1.0000
  O   O7        1.0  0.45350  0.21017  0.91817  1.0000
  O   O8        1.0  0.54650  0.78983  0.41816  1.0000
  O   O9        1.0  0.78983  0.54650  0.91817  1.0000
  O   O10       1.0  0.21017  0.45350  0.41817  1.0000
  O   O11       1.0  0.56694  0.43306  0.02567  1.0000
  O   O12       1.0  0.43306  0.56694  0.52567  1.0000
