data_image0
_chemical_formula_structural       FeP2H38C36O4
_chemical_formula_sum              "Fe1 P2 H38 C36 O4"
_cell_length_a       8.30572
_cell_length_b       9.87478
_cell_length_c       10.2951
_cell_angle_alpha    75.907
_cell_angle_beta     86.5566
_cell_angle_gamma    65.9568

_space_group_name_H-M_alt    "P 1"
_space_group_IT_number       1

loop_
  _space_group_symop_operation_xyz
  'x, y, z'

loop_
  _atom_site_type_symbol
  _atom_site_label
  _atom_site_symmetry_multiplicity
  _atom_site_fract_x
  _atom_site_fract_y
  _atom_site_fract_z
  _atom_site_occupancy
  Fe  Fe1       1.0  0.50000  0.50000  0.50000  1.0000
  P   P1        1.0  0.22689  0.53159  0.58475  1.0000
  P   P2        1.0  0.77311  0.46840  0.41525  1.0000
  H   H1        1.0  0.62803  0.57510  0.87954  1.0000
  H   H2        1.0  0.37197  0.42491  0.12046  1.0000
  H   H3        1.0  0.55265  0.90426  0.60879  1.0000
  H   H4        1.0  0.44734  0.09574  0.39121  1.0000
  H   H5        1.0  0.59953  0.82261  0.78397  1.0000
  H   H6        1.0  0.40046  0.17740  0.21602  1.0000
  H   H7        1.0  0.37869  0.90152  0.71616  1.0000
  H   H8        1.0  0.62131  0.09849  0.28384  1.0000
  H   H9        1.0  0.61300  0.21798  0.92761  1.0000
  H   H10       1.0  0.38699  0.78203  0.07238  1.0000
  H   H11       1.0  0.69304  0.32913  0.99730  1.0000
  H   H12       1.0  0.30696  0.67088  0.00270  1.0000
  H   H13       1.0  0.83361  0.20034  0.90310  1.0000
  H   H14       1.0  0.16639  0.79967  0.09690  1.0000
  H   H15       1.0  0.05123  0.60454  0.38203  1.0000
  H   H16       1.0  0.94877  0.39546  0.61797  1.0000
  H   H17       1.0  0.16746  0.40644  0.43430  1.0000
  H   H18       1.0  0.83254  0.59355  0.56570  1.0000
  H   H19       1.0  0.99866  0.54380  0.82087  1.0000
  H   H20       1.0  0.00135  0.45619  0.17913  1.0000
  H   H21       1.0  0.99603  0.34576  0.02066  1.0000
  H   H22       1.0  0.00398  0.65423  0.97934  1.0000
  H   H23       1.0  0.21905  0.07868  0.05282  1.0000
  H   H24       1.0  0.78095  0.92131  0.94718  1.0000
  H   H25       1.0  0.44068  0.00930  0.87996  1.0000
  H   H26       1.0  0.55932  0.99071  0.12004  1.0000
  H   H27       1.0  0.44409  0.20744  0.67864  1.0000
  H   H28       1.0  0.55592  0.79256  0.32136  1.0000
  H   H29       1.0  0.25910  0.67009  0.79382  1.0000
  H   H30       1.0  0.74090  0.32991  0.20619  1.0000
  H   H31       1.0  0.09072  0.92141  0.84613  1.0000
  H   H32       1.0  0.90927  0.07859  0.15387  1.0000
  H   H33       1.0  0.81864  0.11146  0.70528  1.0000
  H   H34       1.0  0.18136  0.88853  0.29472  1.0000
  H   H35       1.0  0.72393  0.04751  0.51673  1.0000
  H   H36       1.0  0.27607  0.95248  0.48326  1.0000
  H   H37       1.0  0.89206  0.79813  0.46107  1.0000
  H   H38       1.0  0.10794  0.20186  0.53893  1.0000
  C   C1        1.0  0.63613  0.40461  0.78261  1.0000
  C   C2        1.0  0.36387  0.59539  0.21739  1.0000
  C   C3        1.0  0.54005  0.68493  0.67558  1.0000
  C   C4        1.0  0.45995  0.31508  0.32442  1.0000
  C   C5        1.0  0.60097  0.55597  0.78478  1.0000
  C   C6        1.0  0.39904  0.44403  0.21521  1.0000
  C   C7        1.0  0.51782  0.83662  0.69792  1.0000
  C   C8        1.0  0.48217  0.16339  0.30208  1.0000
  C   C9        1.0  0.69751  0.28154  0.91094  1.0000
  C   C10       1.0  0.30248  0.71846  0.08906  1.0000
  C   C11       1.0  0.08294  0.50761  0.46999  1.0000
  C   C12       1.0  0.91707  0.49239  0.53001  1.0000
  C   C13       1.0  0.22460  0.39024  0.73771  1.0000
  C   C14       1.0  0.77540  0.60976  0.26229  1.0000
  C   C15       1.0  0.09820  0.42742  0.83460  1.0000
  C   C16       1.0  0.90182  0.57258  0.16540  1.0000
  C   C17       1.0  0.09602  0.31576  0.94696  1.0000
  C   C18       1.0  0.90399  0.68423  0.05304  1.0000
  C   C19       1.0  0.22002  0.16525  0.96417  1.0000
  C   C20       1.0  0.77999  0.83474  0.03583  1.0000
  C   C21       1.0  0.34404  0.12668  0.86695  1.0000
  C   C22       1.0  0.65596  0.87332  0.13305  1.0000
  C   C23       1.0  0.34646  0.23774  0.75389  1.0000
  C   C24       1.0  0.65354  0.76226  0.24611  1.0000
  C   C25       1.0  0.08783  0.71405  0.62477  1.0000
  C   C26       1.0  0.91218  0.28594  0.37523  1.0000
  C   C27       1.0  0.14065  0.75201  0.73327  1.0000
  C   C28       1.0  0.85935  0.24799  0.26673  1.0000
  C   C29       1.0  0.04544  0.89340  0.76281  1.0000
  C   C30       1.0  0.95455  0.10660  0.23720  1.0000
  C   C31       1.0  0.89395  0.99925  0.68555  1.0000
  C   C32       1.0  0.10605  0.00074  0.31445  1.0000
  C   C33       1.0  0.83971  0.96254  0.57832  1.0000
  C   C34       1.0  0.16029  0.03746  0.42168  1.0000
  C   C35       1.0  0.93595  0.82190  0.54741  1.0000
  C   C36       1.0  0.06404  0.17809  0.45259  1.0000
  O   O1        1.0  0.62164  0.35811  0.67941  1.0000
  O   O2        1.0  0.37836  0.64189  0.32059  1.0000
  O   O3        1.0  0.49494  0.68821  0.55716  1.0000
  O   O4        1.0  0.50505  0.31180  0.44283  1.0000
