data_image0
_chemical_formula_structural       H32Pb2C8Br4N8
_chemical_formula_sum              "H32 Pb2 C8 Br4 N8"
_cell_length_a       7.54703
_cell_length_b       7.54869
_cell_length_c       12.0134
_cell_angle_alpha    98.2041
_cell_angle_beta     100.237
_cell_angle_gamma    119.212

_space_group_name_H-M_alt    "P 1"
_space_group_IT_number       1

loop_
  _space_group_symop_operation_xyz
  'x, y, z'

loop_
  _atom_site_type_symbol
  _atom_site_label
  _atom_site_symmetry_multiplicity
  _atom_site_fract_x
  _atom_site_fract_y
  _atom_site_fract_z
  _atom_site_occupancy
  H   H1        1.0  0.16972  0.77183  0.50578  1.0000
  H   H2        1.0  0.76557  0.66397  0.99367  1.0000
  H   H3        1.0  0.83028  0.22818  0.49422  1.0000
  H   H4        1.0  0.23443  0.33603  0.00633  1.0000
  H   H5        1.0  0.18706  0.59455  0.41722  1.0000
  H   H6        1.0  0.67637  0.76928  0.08237  1.0000
  H   H7        1.0  0.81295  0.40546  0.58278  1.0000
  H   H8        1.0  0.32363  0.23072  0.91763  1.0000
  H   H9        1.0  0.53796  0.83740  0.54569  1.0000
  H   H10       1.0  0.79224  0.99309  0.95430  1.0000
  H   H11       1.0  0.46204  0.16260  0.45431  1.0000
  H   H12       1.0  0.20776  0.00692  0.04571  1.0000
  H   H13       1.0  0.52300  0.86651  0.40127  1.0000
  H   H14       1.0  0.96478  0.12114  0.09884  1.0000
  H   H15       1.0  0.47700  0.13349  0.59873  1.0000
  H   H16       1.0  0.03521  0.87886  0.90116  1.0000
  H   H17       1.0  0.75000  0.42840  0.37914  1.0000
  H   H18       1.0  0.54956  0.37182  0.12115  1.0000
  H   H19       1.0  0.25000  0.57160  0.62085  1.0000
  H   H20       1.0  0.45044  0.62818  0.87884  1.0000
  H   H21       1.0  0.49623  0.38901  0.31993  1.0000
  H   H22       1.0  0.56879  0.17693  0.18045  1.0000
  H   H23       1.0  0.50377  0.61099  0.68006  1.0000
  H   H24       1.0  0.43121  0.82307  0.81955  1.0000
  H   H25       1.0  0.81442  0.76177  0.41463  1.0000
  H   H26       1.0  0.84725  0.39997  0.08555  1.0000
  H   H27       1.0  0.18558  0.23823  0.58537  1.0000
  H   H28       1.0  0.15276  0.60003  0.91445  1.0000
  H   H29       1.0  0.66115  0.72365  0.28402  1.0000
  H   H30       1.0  0.93947  0.37738  0.21631  1.0000
  H   H31       1.0  0.33885  0.27635  0.71598  1.0000
  H   H32       1.0  0.06053  0.62262  0.78369  1.0000
  Pb  Pb1       1.0  0.07973  0.82987  0.24973  1.0000
  Pb  Pb2       1.0  0.92027  0.17014  0.75027  1.0000
  C   C1        1.0  0.46504  0.88513  0.47743  1.0000
  C   C2        1.0  0.90758  0.98756  0.02254  1.0000
  C   C3        1.0  0.53497  0.11487  0.52257  1.0000
  C   C4        1.0  0.09242  0.01244  0.97747  1.0000
  C   C5        1.0  0.65752  0.45661  0.31026  1.0000
  C   C6        1.0  0.64626  0.34781  0.19003  1.0000
  C   C7        1.0  0.34247  0.54339  0.68973  1.0000
  C   C8        1.0  0.35374  0.65219  0.80996  1.0000
  Br  Br1       1.0  0.05630  0.22342  0.36703  1.0000
  Br  Br2       1.0  0.35599  0.68904  0.13291  1.0000
  Br  Br3       1.0  0.94370  0.77658  0.63297  1.0000
  Br  Br4       1.0  0.64401  0.31096  0.86709  1.0000
  N   N1        1.0  0.23300  0.75094  0.43934  1.0000
  N   N2        1.0  0.81076  0.79318  0.06023  1.0000
  N   N3        1.0  0.76700  0.24906  0.56066  1.0000
  N   N4        1.0  0.18924  0.20682  0.93977  1.0000
  N   N5        1.0  0.76355  0.68584  0.32687  1.0000
  N   N6        1.0  0.85889  0.43690  0.17330  1.0000
  N   N7        1.0  0.23645  0.31416  0.67312  1.0000
  N   N8        1.0  0.14111  0.56310  0.82669  1.0000
