data_image0
_chemical_formula_structural       H32Rh2C34N2O8
_chemical_formula_sum              "H32 Rh2 C34 N2 O8"
_cell_length_a       9.53806
_cell_length_b       10.2228
_cell_length_c       10.6646
_cell_angle_alpha    72.2534
_cell_angle_beta     64.7574
_cell_angle_gamma    63.0613

_space_group_name_H-M_alt    "P 1"
_space_group_IT_number       1

loop_
  _space_group_symop_operation_xyz
  'x, y, z'

loop_
  _atom_site_type_symbol
  _atom_site_label
  _atom_site_symmetry_multiplicity
  _atom_site_fract_x
  _atom_site_fract_y
  _atom_site_fract_z
  _atom_site_occupancy
  H   H1        1.0  0.10811  0.34399  0.93106  1.0000
  H   H2        1.0  0.89190  0.65601  0.06894  1.0000
  H   H3        1.0  0.07383  0.20804  0.17287  1.0000
  H   H4        1.0  0.92617  0.79196  0.82713  1.0000
  H   H5        1.0  0.87699  0.07478  0.28191  1.0000
  H   H6        1.0  0.12301  0.92522  0.71809  1.0000
  H   H7        1.0  0.71485  0.07904  0.14789  1.0000
  H   H8        1.0  0.28516  0.92096  0.85211  1.0000
  H   H9        1.0  0.74668  0.21851  0.90842  1.0000
  H   H10       1.0  0.25332  0.78149  0.09157  1.0000
  H   H11       1.0  0.50622  0.08617  0.36738  1.0000
  H   H12       1.0  0.49378  0.91384  0.63261  1.0000
  H   H13       1.0  0.67842  0.83480  0.28893  1.0000
  H   H14       1.0  0.32158  0.16520  0.71107  1.0000
  H   H15       1.0  0.54218  0.69896  0.25452  1.0000
  H   H16       1.0  0.45782  0.30104  0.74548  1.0000
  H   H17       1.0  0.23364  0.80227  0.31105  1.0000
  H   H18       1.0  0.76636  0.19774  0.68894  1.0000
  H   H19       1.0  0.06405  0.05235  0.38894  1.0000
  H   H20       1.0  0.93596  0.94765  0.61106  1.0000
  H   H21       1.0  0.50533  0.38068  0.33150  1.0000
  H   H22       1.0  0.49466  0.61932  0.66851  1.0000
  H   H23       1.0  0.77231  0.36572  0.34211  1.0000
  H   H24       1.0  0.22767  0.63428  0.65790  1.0000
  H   H25       1.0  0.41706  0.37362  0.10482  1.0000
  H   H26       1.0  0.58295  0.62638  0.89518  1.0000
  H   H27       1.0  0.36192  0.43347  0.95056  1.0000
  H   H28       1.0  0.63808  0.56653  0.04943  1.0000
  H   H29       1.0  0.24103  0.35128  0.10672  1.0000
  H   H30       1.0  0.75897  0.64872  0.89328  1.0000
  H   H31       1.0  0.44773  0.23916  0.01038  1.0000
  H   H32       1.0  0.55227  0.76083  0.98962  1.0000
  Rh  Rh1       1.0  0.12493  0.50712  0.49629  1.0000
  Rh  Rh2       1.0  0.87506  0.49288  0.50371  1.0000
  C   C1        1.0  0.95085  0.36978  0.76051  1.0000
  C   C2        1.0  0.04915  0.63022  0.23949  1.0000
  C   C3        1.0  0.92948  0.28931  0.90509  1.0000
  C   C4        1.0  0.07052  0.71069  0.09491  1.0000
  C   C5        1.0  0.02201  0.28592  0.97977  1.0000
  C   C6        1.0  0.97799  0.71408  0.02023  1.0000
  C   C7        1.0  0.00217  0.20991  0.11512  1.0000
  C   C8        1.0  0.99783  0.79009  0.88488  1.0000
  C   C9        1.0  0.89158  0.13533  0.17622  1.0000
  C   C10       1.0  0.10842  0.86467  0.82378  1.0000
  C   C11       1.0  0.79988  0.13806  0.10177  1.0000
  C   C12       1.0  0.20012  0.86194  0.89823  1.0000
  C   C13       1.0  0.81790  0.21544  0.96703  1.0000
  C   C14       1.0  0.18210  0.78456  0.03298  1.0000
  C   C15       1.0  0.17574  0.23565  0.42108  1.0000
  C   C16       1.0  0.82427  0.76435  0.57891  1.0000
  C   C17       1.0  0.27607  0.08506  0.37929  1.0000
  C   C18       1.0  0.72393  0.91494  0.62071  1.0000
  C   C19       1.0  0.44910  0.02346  0.35252  1.0000
  C   C20       1.0  0.55090  0.97655  0.64748  1.0000
  C   C21       1.0  0.54432  0.88453  0.30825  1.0000
  C   C22       1.0  0.45568  0.11547  0.69175  1.0000
  C   C23       1.0  0.46704  0.80688  0.29040  1.0000
  C   C24       1.0  0.53297  0.19312  0.70960  1.0000
  C   C25       1.0  0.29413  0.86559  0.32039  1.0000
  C   C26       1.0  0.70587  0.13441  0.67961  1.0000
  C   C27       1.0  0.19888  0.00448  0.36484  1.0000
  C   C28       1.0  0.80112  0.99553  0.63515  1.0000
  C   C29       1.0  0.50366  0.43456  0.40625  1.0000
  C   C30       1.0  0.49633  0.56544  0.59375  1.0000
  C   C31       1.0  0.65001  0.42582  0.41252  1.0000
  C   C32       1.0  0.34998  0.57418  0.58749  1.0000
  C   C33       1.0  0.36737  0.34906  0.04290  1.0000
  C   C34       1.0  0.63263  0.65094  0.95710  1.0000
  N   N1        1.0  0.35255  0.50891  0.49370  1.0000
  N   N2        1.0  0.64744  0.49109  0.50630  1.0000
  O   O1        1.0  0.07708  0.40935  0.69985  1.0000
  O   O2        1.0  0.92292  0.59065  0.30015  1.0000
  O   O3        1.0  0.84321  0.39273  0.70642  1.0000
  O   O4        1.0  0.15679  0.60727  0.29358  1.0000
  O   O5        1.0  0.25395  0.30233  0.43403  1.0000
  O   O6        1.0  0.74605  0.69767  0.56597  1.0000
  O   O7        1.0  0.01867  0.28841  0.44015  1.0000
  O   O8        1.0  0.98132  0.71159  0.55985  1.0000
