data_image0
_chemical_formula_structural       H16Pb2C24I4N4
_chemical_formula_sum              "H16 Pb2 C24 I4 N4"
_cell_length_a       8.15649
_cell_length_b       9.77795
_cell_length_c       9.7845
_cell_angle_alpha    68.4785
_cell_angle_beta     79.7222
_cell_angle_gamma    79.7454

_space_group_name_H-M_alt    "P 1"
_space_group_IT_number       1

loop_
  _space_group_symop_operation_xyz
  'x, y, z'

loop_
  _atom_site_type_symbol
  _atom_site_label
  _atom_site_symmetry_multiplicity
  _atom_site_fract_x
  _atom_site_fract_y
  _atom_site_fract_z
  _atom_site_occupancy
  H   H1        1.0  0.43878  0.73865  0.61480  1.0000
  H   H2        1.0  0.93887  0.61469  0.73881  1.0000
  H   H3        1.0  0.56111  0.26126  0.38540  1.0000
  H   H4        1.0  0.06098  0.38542  0.26107  1.0000
  H   H5        1.0  0.31951  0.59538  0.87245  1.0000
  H   H6        1.0  0.81926  0.87233  0.59569  1.0000
  H   H7        1.0  0.68052  0.40438  0.12775  1.0000
  H   H8        1.0  0.18070  0.12780  0.40411  1.0000
  H   H9        1.0  0.43913  0.32983  0.98927  1.0000
  H   H10       1.0  0.93840  0.98917  0.33007  1.0000
  H   H11       1.0  0.56098  0.66995  0.01080  1.0000
  H   H12       1.0  0.06174  0.01096  0.66980  1.0000
  H   H13       1.0  0.63623  0.74159  0.38809  1.0000
  H   H14       1.0  0.13646  0.38807  0.74165  1.0000
  H   H15       1.0  0.36365  0.25845  0.61201  1.0000
  H   H16       1.0  0.86344  0.61207  0.25837  1.0000
  Pb  Pb1       1.0  0.75038  0.06482  0.93511  1.0000
  Pb  Pb2       1.0  0.24972  0.93516  0.06484  1.0000
  C   C1        1.0  0.68179  0.40394  0.66974  1.0000
  C   C2        1.0  0.18140  0.66971  0.40395  1.0000
  C   C3        1.0  0.31823  0.59603  0.33028  1.0000
  C   C4        1.0  0.81860  0.33033  0.59601  1.0000
  C   C5        1.0  0.88112  0.40671  0.44637  1.0000
  C   C6        1.0  0.38097  0.44642  0.40668  1.0000
  C   C7        1.0  0.11886  0.59337  0.55361  1.0000
  C   C8        1.0  0.61899  0.55356  0.59339  1.0000
  C   C9        1.0  0.01215  0.33059  0.37633  1.0000
  C   C10       1.0  0.51204  0.37645  0.33051  1.0000
  C   C11       1.0  0.98779  0.66954  0.62357  1.0000
  C   C12       1.0  0.48792  0.62345  0.66962  1.0000
  C   C13       1.0  0.07775  0.18835  0.45483  1.0000
  C   C14       1.0  0.57750  0.45502  0.18827  1.0000
  C   C15       1.0  0.92222  0.81177  0.54503  1.0000
  C   C16       1.0  0.42253  0.54482  0.81187  1.0000
  C   C17       1.0  0.01157  0.12248  0.60318  1.0000
  C   C18       1.0  0.51107  0.60332  0.12240  1.0000
  C   C19       1.0  0.98849  0.87760  0.39672  1.0000
  C   C20       1.0  0.48902  0.39652  0.87768  1.0000
  C   C21       1.0  0.81240  0.55601  0.37280  1.0000
  C   C22       1.0  0.31244  0.37282  0.55599  1.0000
  C   C23       1.0  0.18749  0.44405  0.62724  1.0000
  C   C24       1.0  0.68751  0.62722  0.44408  1.0000
  I   I1        1.0  0.98140  0.23937  0.03501  1.0000
  I   I2        1.0  0.48136  0.03484  0.23880  1.0000
  I   I3        1.0  0.01871  0.76057  0.96493  1.0000
  I   I4        1.0  0.51865  0.96524  0.76112  1.0000
  N   N1        1.0  0.61531  0.32898  0.80960  1.0000
  N   N2        1.0  0.11471  0.80953  0.32906  1.0000
  N   N3        1.0  0.38476  0.67093  0.19039  1.0000
  N   N4        1.0  0.88540  0.19049  0.67089  1.0000
