data_image0
_chemical_formula_structural       H16Pb2C24Br4N4
_chemical_formula_sum              "H16 Pb2 C24 Br4 N4"
_cell_length_a       8.19618
_cell_length_b       9.49163
_cell_length_c       9.49088
_cell_angle_alpha    67.3381
_cell_angle_beta     78.655
_cell_angle_gamma    78.6569

_space_group_name_H-M_alt    "P 1"
_space_group_IT_number       1

loop_
  _space_group_symop_operation_xyz
  'x, y, z'

loop_
  _atom_site_type_symbol
  _atom_site_label
  _atom_site_symmetry_multiplicity
  _atom_site_fract_x
  _atom_site_fract_y
  _atom_site_fract_z
  _atom_site_occupancy
  H   H1        1.0  0.93304  0.33063  0.99631  1.0000
  H   H2        1.0  0.56690  0.00374  0.66945  1.0000
  H   H3        1.0  0.06689  0.66950  0.00368  1.0000
  H   H4        1.0  0.43309  0.99622  0.33065  1.0000
  H   H5        1.0  0.80931  0.60686  0.87221  1.0000
  H   H6        1.0  0.69067  0.12779  0.39316  1.0000
  H   H7        1.0  0.19068  0.39325  0.12774  1.0000
  H   H8        1.0  0.30940  0.87214  0.60685  1.0000
  H   H9        1.0  0.93241  0.75828  0.60436  1.0000
  H   H10       1.0  0.56763  0.39563  0.24170  1.0000
  H   H11       1.0  0.06755  0.24174  0.39559  1.0000
  H   H12       1.0  0.43251  0.60425  0.75830  1.0000
  H   H13       1.0  0.13290  0.76291  0.37022  1.0000
  H   H14       1.0  0.36712  0.62976  0.23706  1.0000
  H   H15       1.0  0.86708  0.23705  0.62972  1.0000
  H   H16       1.0  0.63292  0.37021  0.76296  1.0000
  Pb  Pb1       1.0  0.24989  0.05653  0.94327  1.0000
  Pb  Pb2       1.0  0.74976  0.94356  0.05662  1.0000
  C   C1        1.0  0.98347  0.40097  0.88020  1.0000
  C   C2        1.0  0.51646  0.11983  0.59907  1.0000
  C   C3        1.0  0.01648  0.59915  0.11979  1.0000
  C   C4        1.0  0.48350  0.88013  0.40097  1.0000
  C   C5        1.0  0.91485  0.55513  0.81032  1.0000
  C   C6        1.0  0.58510  0.18970  0.44489  1.0000
  C   C7        1.0  0.08508  0.44493  0.18963  1.0000
  C   C8        1.0  0.41497  0.81024  0.55517  1.0000
  C   C9        1.0  0.98201  0.63818  0.66251  1.0000
  C   C10       1.0  0.51801  0.33753  0.36183  1.0000
  C   C11       1.0  0.01803  0.36186  0.33749  1.0000
  C   C12       1.0  0.48207  0.66241  0.63821  1.0000
  C   C13       1.0  0.11599  0.56620  0.58458  1.0000
  C   C14       1.0  0.38405  0.41548  0.43379  1.0000
  C   C15       1.0  0.88406  0.43381  0.41547  1.0000
  C   C16       1.0  0.61606  0.58453  0.56622  1.0000
  C   C17       1.0  0.18023  0.41053  0.66515  1.0000
  C   C18       1.0  0.31974  0.33490  0.58949  1.0000
  C   C19       1.0  0.81974  0.58948  0.33486  1.0000
  C   C20       1.0  0.68025  0.66509  0.41052  1.0000
  C   C21       1.0  0.18614  0.64401  0.42911  1.0000
  C   C22       1.0  0.31388  0.57089  0.35595  1.0000
  C   C23       1.0  0.81393  0.35597  0.57091  1.0000
  C   C24       1.0  0.68620  0.42911  0.64408  1.0000
  Br  Br1       1.0  0.46388  0.22217  0.03817  1.0000
  Br  Br2       1.0  0.03645  0.96165  0.77780  1.0000
  Br  Br3       1.0  0.53619  0.77786  0.96181  1.0000
  Br  Br4       1.0  0.96366  0.03825  0.22211  1.0000
  N   N1        1.0  0.11277  0.33151  0.81092  1.0000
  N   N2        1.0  0.38712  0.18912  0.66852  1.0000
  N   N3        1.0  0.88712  0.66853  0.18910  1.0000
  N   N4        1.0  0.61279  0.81086  0.33151  1.0000
