data_image0
_chemical_formula_structural       H32Pb4C40N8Cl8
_chemical_formula_sum              "H32 Pb4 C40 N8 Cl8"
_cell_length_a       8.21992
_cell_length_b       9.4236
_cell_length_c       14.9561
_cell_angle_alpha    90
_cell_angle_beta     91.0009
_cell_angle_gamma    89.9999

_space_group_name_H-M_alt    "P 1"
_space_group_IT_number       1

loop_
  _space_group_symop_operation_xyz
  'x, y, z'

loop_
  _atom_site_type_symbol
  _atom_site_label
  _atom_site_symmetry_multiplicity
  _atom_site_fract_x
  _atom_site_fract_y
  _atom_site_fract_z
  _atom_site_occupancy
  H   H1        1.0  0.83585  0.95992  0.92656  1.0000
  H   H2        1.0  0.66416  0.45992  0.07344  1.0000
  H   H3        1.0  0.16416  0.04008  0.07343  1.0000
  H   H4        1.0  0.33584  0.54008  0.92657  1.0000
  H   H5        1.0  0.91725  0.19672  0.99312  1.0000
  H   H6        1.0  0.58275  0.69671  0.00688  1.0000
  H   H7        1.0  0.08275  0.80328  0.00688  1.0000
  H   H8        1.0  0.41725  0.30329  0.99312  1.0000
  H   H9        1.0  0.82604  0.41847  0.91292  1.0000
  H   H10       1.0  0.67396  0.91846  0.08708  1.0000
  H   H11       1.0  0.17396  0.58153  0.08709  1.0000
  H   H12       1.0  0.32605  0.08154  0.91292  1.0000
  H   H13       1.0  0.65330  0.39691  0.77650  1.0000
  H   H14       1.0  0.84670  0.89691  0.22350  1.0000
  H   H15       1.0  0.34670  0.60309  0.22350  1.0000
  H   H16       1.0  0.15330  0.10309  0.77650  1.0000
  H   H17       1.0  0.36876  0.87964  0.59489  1.0000
  H   H18       1.0  0.13124  0.37964  0.40511  1.0000
  H   H19       1.0  0.63123  0.12036  0.40512  1.0000
  H   H20       1.0  0.86877  0.62036  0.59488  1.0000
  H   H21       1.0  0.25927  0.07753  0.49688  1.0000
  H   H22       1.0  0.24073  0.57753  0.50312  1.0000
  H   H23       1.0  0.74073  0.92247  0.50312  1.0000
  H   H24       1.0  0.75926  0.42247  0.49688  1.0000
  H   H25       1.0  0.35479  0.32649  0.53007  1.0000
  H   H26       1.0  0.14520  0.82648  0.46993  1.0000
  H   H27       1.0  0.64521  0.67351  0.46994  1.0000
  H   H28       1.0  0.85479  0.17351  0.53007  1.0000
  H   H29       1.0  0.53375  0.37001  0.65995  1.0000
  H   H30       1.0  0.96625  0.87001  0.34004  1.0000
  H   H31       1.0  0.46625  0.62999  0.34005  1.0000
  H   H32       1.0  0.03375  0.12999  0.65996  1.0000
  Pb  Pb1       1.0  0.64546  0.80566  0.75564  1.0000
  Pb  Pb2       1.0  0.85455  0.30566  0.24435  1.0000
  Pb  Pb3       1.0  0.35454  0.19433  0.24436  1.0000
  Pb  Pb4       1.0  0.14545  0.69434  0.75564  1.0000
  C   C1        1.0  0.79803  0.06011  0.89586  1.0000
  C   C2        1.0  0.70198  0.56011  0.10414  1.0000
  C   C3        1.0  0.20198  0.93989  0.10414  1.0000
  C   C4        1.0  0.29802  0.43990  0.89586  1.0000
  C   C5        1.0  0.84292  0.19066  0.93217  1.0000
  C   C6        1.0  0.65708  0.69066  0.06783  1.0000
  C   C7        1.0  0.15708  0.80933  0.06783  1.0000
  C   C8        1.0  0.34292  0.30933  0.93217  1.0000
  C   C9        1.0  0.79154  0.31360  0.88812  1.0000
  C   C10       1.0  0.70846  0.81359  0.11188  1.0000
  C   C11       1.0  0.20846  0.68640  0.11188  1.0000
  C   C12       1.0  0.29155  0.18641  0.88812  1.0000
  C   C13       1.0  0.69608  0.30165  0.81073  1.0000
  C   C14       1.0  0.80392  0.80165  0.18927  1.0000
  C   C15       1.0  0.30392  0.69835  0.18928  1.0000
  C   C16       1.0  0.19608  0.19835  0.81073  1.0000
  C   C17       1.0  0.65468  0.16671  0.77797  1.0000
  C   C18       1.0  0.84532  0.66671  0.22203  1.0000
  C   C19       1.0  0.34532  0.83329  0.22203  1.0000
  C   C20       1.0  0.15467  0.33330  0.77797  1.0000
  C   C21       1.0  0.40116  0.99043  0.60720  1.0000
  C   C22       1.0  0.09884  0.49042  0.39279  1.0000
  C   C23       1.0  0.59884  0.00958  0.39280  1.0000
  C   C24       1.0  0.90116  0.50957  0.60721  1.0000
  C   C25       1.0  0.34226  0.09963  0.55290  1.0000
  C   C26       1.0  0.15774  0.59963  0.44710  1.0000
  C   C27       1.0  0.65774  0.90037  0.44710  1.0000
  C   C28       1.0  0.84226  0.40037  0.55290  1.0000
  C   C29       1.0  0.39369  0.23750  0.57174  1.0000
  C   C30       1.0  0.10631  0.73750  0.42826  1.0000
  C   C31       1.0  0.60630  0.76250  0.42826  1.0000
  C   C32       1.0  0.89369  0.26250  0.57174  1.0000
  C   C33       1.0  0.49713  0.26160  0.64480  1.0000
  C   C34       1.0  0.00287  0.76159  0.35520  1.0000
  C   C35       1.0  0.50287  0.73841  0.35520  1.0000
  C   C36       1.0  0.99713  0.23841  0.64480  1.0000
  C   C37       1.0  0.54961  0.14693  0.69741  1.0000
  C   C38       1.0  0.95039  0.64694  0.30259  1.0000
  C   C39       1.0  0.45039  0.85306  0.30259  1.0000
  C   C40       1.0  0.04961  0.35307  0.69741  1.0000
  N   N1        1.0  0.70729  0.04858  0.82079  1.0000
  N   N2        1.0  0.79272  0.54858  0.17921  1.0000
  N   N3        1.0  0.29272  0.95142  0.17921  1.0000
  N   N4        1.0  0.20728  0.45142  0.82079  1.0000
  N   N5        1.0  0.50289  0.01301  0.67692  1.0000
  N   N6        1.0  0.99711  0.51301  0.32308  1.0000
  N   N7        1.0  0.49710  0.98699  0.32308  1.0000
  N   N8        1.0  0.00289  0.48699  0.67692  1.0000
  Cl  Cl1       1.0  0.39778  0.81216  0.88366  1.0000
  Cl  Cl2       1.0  0.10222  0.31215  0.11633  1.0000
  Cl  Cl3       1.0  0.60223  0.18785  0.11634  1.0000
  Cl  Cl4       1.0  0.89778  0.68785  0.88366  1.0000
  Cl  Cl5       1.0  0.92395  0.87605  0.64132  1.0000
  Cl  Cl6       1.0  0.57606  0.37605  0.35869  1.0000
  Cl  Cl7       1.0  0.07606  0.12395  0.35869  1.0000
  Cl  Cl8       1.0  0.42395  0.62395  0.64131  1.0000
