data_image0
_chemical_formula_structural       H16Pb2C24N4Cl4
_chemical_formula_sum              "H16 Pb2 C24 N4 Cl4"
_cell_length_a       8.18409
_cell_length_b       9.25018
_cell_length_c       9.25019
_cell_angle_alpha    67.5765
_cell_angle_beta     77.3682
_cell_angle_gamma    77.3684

_space_group_name_H-M_alt    "P 1"
_space_group_IT_number       1

loop_
  _space_group_symop_operation_xyz
  'x, y, z'

loop_
  _atom_site_type_symbol
  _atom_site_label
  _atom_site_symmetry_multiplicity
  _atom_site_fract_x
  _atom_site_fract_y
  _atom_site_fract_z
  _atom_site_occupancy
  H   H1        1.0  0.92127  0.33195  0.00302  1.0000
  H   H2        1.0  0.57873  0.99697  0.66804  1.0000
  H   H3        1.0  0.07873  0.66805  0.99697  1.0000
  H   H4        1.0  0.42127  0.00302  0.33195  1.0000
  H   H5        1.0  0.79232  0.61586  0.87703  1.0000
  H   H6        1.0  0.70767  0.12298  0.38413  1.0000
  H   H7        1.0  0.20767  0.38413  0.12297  1.0000
  H   H8        1.0  0.29232  0.87702  0.61586  1.0000
  H   H9        1.0  0.92026  0.77064  0.60356  1.0000
  H   H10       1.0  0.57975  0.39645  0.22936  1.0000
  H   H11       1.0  0.07975  0.22936  0.39644  1.0000
  H   H12       1.0  0.42025  0.60356  0.77064  1.0000
  H   H13       1.0  0.12786  0.77449  0.36241  1.0000
  H   H14       1.0  0.37213  0.63759  0.22551  1.0000
  H   H15       1.0  0.87214  0.22550  0.63759  1.0000
  H   H16       1.0  0.62787  0.36241  0.77449  1.0000
  Pb  Pb1       1.0  0.25000  0.05167  0.94833  1.0000
  Pb  Pb2       1.0  0.75000  0.94833  0.05167  1.0000
  C   C1        1.0  0.97357  0.40438  0.88454  1.0000
  C   C2        1.0  0.52643  0.11546  0.59562  1.0000
  C   C3        1.0  0.02643  0.59562  0.11546  1.0000
  C   C4        1.0  0.47357  0.88454  0.40438  1.0000
  C   C5        1.0  0.90187  0.56236  0.81353  1.0000
  C   C6        1.0  0.59813  0.18647  0.43763  1.0000
  C   C7        1.0  0.09813  0.43763  0.18646  1.0000
  C   C8        1.0  0.40187  0.81353  0.56236  1.0000
  C   C9        1.0  0.97157  0.64731  0.66231  1.0000
  C   C10       1.0  0.52843  0.33769  0.35268  1.0000
  C   C11       1.0  0.02843  0.35269  0.33769  1.0000
  C   C12       1.0  0.47157  0.66231  0.64731  1.0000
  C   C13       1.0  0.11071  0.57350  0.58171  1.0000
  C   C14       1.0  0.38929  0.41830  0.42650  1.0000
  C   C15       1.0  0.88929  0.42650  0.41829  1.0000
  C   C16       1.0  0.61071  0.58170  0.57350  1.0000
  C   C17       1.0  0.17761  0.41404  0.66388  1.0000
  C   C18       1.0  0.32239  0.33612  0.58596  1.0000
  C   C19       1.0  0.82239  0.58596  0.33612  1.0000
  C   C20       1.0  0.67761  0.66388  0.41404  1.0000
  C   C21       1.0  0.18364  0.65289  0.42251  1.0000
  C   C22       1.0  0.31636  0.57750  0.34711  1.0000
  C   C23       1.0  0.81636  0.34711  0.57750  1.0000
  C   C24       1.0  0.68364  0.42250  0.65289  1.0000
  N   N1        1.0  0.10810  0.33336  0.81327  1.0000
  N   N2        1.0  0.39191  0.18673  0.66663  1.0000
  N   N3        1.0  0.89190  0.66663  0.18673  1.0000
  N   N4        1.0  0.60810  0.81327  0.33336  1.0000
  Cl  Cl1       1.0  0.45726  0.21047  0.03939  1.0000
  Cl  Cl2       1.0  0.04274  0.96061  0.78953  1.0000
  Cl  Cl3       1.0  0.54274  0.78953  0.96061  1.0000
  Cl  Cl4       1.0  0.95726  0.03939  0.21047  1.0000
