data_image0
_chemical_formula_structural       H16Pb2C24S4N8
_chemical_formula_sum              "H16 Pb2 C24 S4 N8"
_cell_length_a       6.72216
_cell_length_b       10.8523
_cell_length_c       10.8524
_cell_angle_alpha    68.3163
_cell_angle_beta     70.0098
_cell_angle_gamma    70.0093

_space_group_name_H-M_alt    "P 1"
_space_group_IT_number       1

loop_
  _space_group_symop_operation_xyz
  'x, y, z'

loop_
  _atom_site_type_symbol
  _atom_site_label
  _atom_site_symmetry_multiplicity
  _atom_site_fract_x
  _atom_site_fract_y
  _atom_site_fract_z
  _atom_site_occupancy
  H   H1        1.0  0.70096  0.42589  0.93581  1.0000
  H   H2        1.0  0.20096  0.93583  0.42587  1.0000
  H   H3        1.0  0.29904  0.57411  0.06418  1.0000
  H   H4        1.0  0.79904  0.06417  0.57412  1.0000
  H   H5        1.0  0.63436  0.34782  0.19204  1.0000
  H   H6        1.0  0.13436  0.19206  0.34779  1.0000
  H   H7        1.0  0.36563  0.65218  0.80795  1.0000
  H   H8        1.0  0.86562  0.80794  0.65221  1.0000
  H   H9        1.0  0.65485  0.09812  0.31274  1.0000
  H   H10       1.0  0.15486  0.31275  0.09810  1.0000
  H   H11       1.0  0.34514  0.90188  0.68726  1.0000
  H   H12       1.0  0.84514  0.68725  0.90190  1.0000
  H   H13       1.0  0.72165  0.94149  0.17831  1.0000
  H   H14       1.0  0.22166  0.17831  0.94148  1.0000
  H   H15       1.0  0.27835  0.05851  0.82169  1.0000
  H   H16       1.0  0.77834  0.82169  0.05853  1.0000
  Pb  Pb1       1.0  0.75002  0.33396  0.66603  1.0000
  Pb  Pb2       1.0  0.25000  0.66603  0.33397  1.0000
  C   C1        1.0  0.69849  0.31980  0.99399  1.0000
  C   C2        1.0  0.19850  0.99400  0.31978  1.0000
  C   C3        1.0  0.30149  0.68020  0.00601  1.0000
  C   C4        1.0  0.80150  0.00600  0.68022  1.0000
  C   C5        1.0  0.66416  0.27591  0.13564  1.0000
  C   C6        1.0  0.16416  0.13566  0.27589  1.0000
  C   C7        1.0  0.33583  0.72409  0.86435  1.0000
  C   C8        1.0  0.83583  0.86433  0.72411  1.0000
  C   C9        1.0  0.67468  0.13752  0.20225  1.0000
  C   C10       1.0  0.17469  0.20226  0.13750  1.0000
  C   C11       1.0  0.32531  0.86248  0.79774  1.0000
  C   C12       1.0  0.82530  0.79774  0.86250  1.0000
  C   C13       1.0  0.71216  0.04955  0.12617  1.0000
  C   C14       1.0  0.21216  0.12617  0.04954  1.0000
  C   C15       1.0  0.28784  0.95045  0.87383  1.0000
  C   C16       1.0  0.78784  0.87383  0.95046  1.0000
  C   C17       1.0  0.73600  0.10208  0.98429  1.0000
  C   C18       1.0  0.23599  0.98429  0.10207  1.0000
  C   C19       1.0  0.26401  0.89792  0.01571  1.0000
  C   C20       1.0  0.76401  0.01571  0.89793  1.0000
  C   C21       1.0  0.18166  0.45121  0.74875  1.0000
  C   C22       1.0  0.68161  0.74876  0.45121  1.0000
  C   C23       1.0  0.81835  0.54878  0.25125  1.0000
  C   C24       1.0  0.31839  0.25124  0.54879  1.0000
  S   S1        1.0  0.97221  0.53824  0.68347  1.0000
  S   S2        1.0  0.47217  0.68348  0.53824  1.0000
  S   S3        1.0  0.02780  0.46175  0.31653  1.0000
  S   S4        1.0  0.52784  0.31652  0.46176  1.0000
  N   N1        1.0  0.73443  0.23534  0.92024  1.0000
  N   N2        1.0  0.23441  0.92025  0.23534  1.0000
  N   N3        1.0  0.26558  0.76466  0.07976  1.0000
  N   N4        1.0  0.76559  0.07975  0.76466  1.0000
  N   N5        1.0  0.33570  0.39021  0.79588  1.0000
  N   N6        1.0  0.83565  0.79588  0.39022  1.0000
  N   N7        1.0  0.66433  0.60977  0.20412  1.0000
  N   N8        1.0  0.16437  0.20412  0.60977  1.0000
