data_image0
_chemical_formula_structural       H36Pb4C40Br8N12
_chemical_formula_sum              "H36 Pb4 C40 Br8 N12"
_cell_length_a       8.00225
_cell_length_b       9.68433
_cell_length_c       16.0567
_cell_angle_alpha    89.9983
_cell_angle_beta     93.8708
_cell_angle_gamma    89.9993

_space_group_name_H-M_alt    "P 1"
_space_group_IT_number       1

loop_
  _space_group_symop_operation_xyz
  'x, y, z'

loop_
  _atom_site_type_symbol
  _atom_site_label
  _atom_site_symmetry_multiplicity
  _atom_site_fract_x
  _atom_site_fract_y
  _atom_site_fract_z
  _atom_site_occupancy
  H   H1        1.0  0.86704  0.64406  0.61580  1.0000
  H   H2        1.0  0.63296  0.14406  0.38418  1.0000
  H   H3        1.0  0.13292  0.35592  0.38419  1.0000
  H   H4        1.0  0.36715  0.85591  0.61581  1.0000
  H   H5        1.0  0.72683  0.52351  0.49166  1.0000
  H   H6        1.0  0.77319  0.02351  0.50831  1.0000
  H   H7        1.0  0.27314  0.47647  0.50831  1.0000
  H   H8        1.0  0.22690  0.97646  0.49170  1.0000
  H   H9        1.0  0.79471  0.27399  0.46986  1.0000
  H   H10       1.0  0.70529  0.77400  0.53013  1.0000
  H   H11       1.0  0.20527  0.72600  0.53012  1.0000
  H   H12       1.0  0.29471  0.22600  0.46989  1.0000
  H   H13       1.0  0.98348  0.15248  0.57678  1.0000
  H   H14       1.0  0.51652  0.65248  0.42321  1.0000
  H   H15       1.0  0.01654  0.84751  0.42320  1.0000
  H   H16       1.0  0.48339  0.34753  0.57683  1.0000
  H   H17       1.0  0.10763  0.15523  0.70138  1.0000
  H   H18       1.0  0.39239  0.65522  0.29862  1.0000
  H   H19       1.0  0.89232  0.84475  0.29861  1.0000
  H   H20       1.0  0.60765  0.34476  0.70139  1.0000
  H   H21       1.0  0.30180  0.54430  0.91755  1.0000
  H   H22       1.0  0.19817  0.04429  0.08245  1.0000
  H   H23       1.0  0.69820  0.45571  0.08241  1.0000
  H   H24       1.0  0.80182  0.95575  0.91762  1.0000
  H   H25       1.0  0.41566  0.35055  0.00764  1.0000
  H   H26       1.0  0.08429  0.85056  0.99235  1.0000
  H   H27       1.0  0.58433  0.64944  0.99233  1.0000
  H   H28       1.0  0.91571  0.14948  0.00768  1.0000
  H   H29       1.0  0.38411  0.10766  0.95203  1.0000
  H   H30       1.0  0.11587  0.60766  0.04794  1.0000
  H   H31       1.0  0.61581  0.89234  0.04795  1.0000
  H   H32       1.0  0.88414  0.39239  0.95206  1.0000
  H   H33       1.0  0.23627  0.06974  0.81344  1.0000
  H   H34       1.0  0.26363  0.56970  0.18653  1.0000
  H   H35       1.0  0.76358  0.93026  0.18654  1.0000
  H   H36       1.0  0.73640  0.43029  0.81345  1.0000
  Pb  Pb1       1.0  0.15367  0.65249  0.75397  1.0000
  Pb  Pb2       1.0  0.34647  0.15252  0.24597  1.0000
  Pb  Pb3       1.0  0.84648  0.34745  0.24598  1.0000
  Pb  Pb4       1.0  0.65361  0.84750  0.75406  1.0000
  C   C1        1.0  0.88567  0.53383  0.60547  1.0000
  C   C2        1.0  0.61430  0.03383  0.39452  1.0000
  C   C3        1.0  0.11428  0.46614  0.39451  1.0000
  C   C4        1.0  0.38578  0.96614  0.60548  1.0000
  C   C5        1.0  0.80967  0.46804  0.53648  1.0000
  C   C6        1.0  0.69030  0.96806  0.46351  1.0000
  C   C7        1.0  0.19026  0.53193  0.46352  1.0000
  C   C8        1.0  0.30976  0.03192  0.53650  1.0000
  C   C9        1.0  0.84723  0.32865  0.52485  1.0000
  C   C10       1.0  0.65272  0.82867  0.47515  1.0000
  C   C11       1.0  0.15271  0.67131  0.47514  1.0000
  C   C12       1.0  0.34729  0.17132  0.52486  1.0000
  C   C13       1.0  0.95240  0.26129  0.58332  1.0000
  C   C14       1.0  0.54754  0.76131  0.41668  1.0000
  C   C15       1.0  0.04755  0.73868  0.41667  1.0000
  C   C16       1.0  0.45243  0.23869  0.58334  1.0000
  C   C17       1.0  0.01887  0.33446  0.65421  1.0000
  C   C18       1.0  0.48106  0.83448  0.34579  1.0000
  C   C19       1.0  0.98108  0.66553  0.34577  1.0000
  C   C20       1.0  0.51894  0.16553  0.65423  1.0000
  C   C21       1.0  0.28962  0.43705  0.89684  1.0000
  C   C22       1.0  0.21033  0.93704  0.10316  1.0000
  C   C23       1.0  0.71036  0.56296  0.10314  1.0000
  C   C24       1.0  0.78967  0.06300  0.89689  1.0000
  C   C25       1.0  0.35333  0.33038  0.94656  1.0000
  C   C26       1.0  0.14661  0.83039  0.05343  1.0000
  C   C27       1.0  0.64661  0.66962  0.05342  1.0000
  C   C28       1.0  0.85338  0.16966  0.94659  1.0000
  C   C29       1.0  0.33470  0.19554  0.91577  1.0000
  C   C30       1.0  0.16524  0.69555  0.08423  1.0000
  C   C31       1.0  0.66521  0.80445  0.08422  1.0000
  C   C32       1.0  0.83476  0.30450  0.91579  1.0000
  C   C33       1.0  0.25295  0.17409  0.83827  1.0000
  C   C34       1.0  0.24696  0.67408  0.16173  1.0000
  C   C35       1.0  0.74692  0.82591  0.16172  1.0000
  C   C36       1.0  0.75304  0.32594  0.83829  1.0000
  C   C37       1.0  0.19162  0.28863  0.79112  1.0000
  C   C38       1.0  0.30829  0.78861  0.20889  1.0000
  C   C39       1.0  0.80831  0.71137  0.20886  1.0000
  C   C40       1.0  0.69170  0.21140  0.79115  1.0000
  Br  Br1       1.0  0.47427  0.58869  0.66299  1.0000
  Br  Br2       1.0  0.02590  0.08860  0.33701  1.0000
  Br  Br3       1.0  0.52593  0.41151  0.33701  1.0000
  Br  Br4       1.0  0.97420  0.91145  0.66299  1.0000
  Br  Br5       1.0  0.89332  0.67890  0.87436  1.0000
  Br  Br6       1.0  0.60683  0.17883  0.12560  1.0000
  Br  Br7       1.0  0.10704  0.32111  0.12562  1.0000
  Br  Br8       1.0  0.39306  0.82105  0.87443  1.0000
  N   N1        1.0  0.98919  0.47038  0.66351  1.0000
  N   N2        1.0  0.51079  0.97040  0.33647  1.0000
  N   N3        1.0  0.01079  0.52961  0.33647  1.0000
  N   N4        1.0  0.48928  0.02960  0.66353  1.0000
  N   N5        1.0  0.11332  0.25909  0.71340  1.0000
  N   N6        1.0  0.38661  0.75908  0.28662  1.0000
  N   N7        1.0  0.88663  0.74091  0.28659  1.0000
  N   N8        1.0  0.61338  0.24091  0.71341  1.0000
  N   N9        1.0  0.21138  0.41845  0.82019  1.0000
  N   N10       1.0  0.28857  0.91843  0.17981  1.0000
  N   N11       1.0  0.78859  0.58155  0.17979  1.0000
  N   N12       1.0  0.71141  0.08158  0.82024  1.0000
