data_image0
_chemical_formula_structural       H48Pb2C48N12O8
_chemical_formula_sum              "H48 Pb2 C48 N12 O8"
_cell_length_a       7.654
_cell_length_b       10.6794
_cell_length_c       15.2481
_cell_angle_alpha    110.501
_cell_angle_beta     93.9009
_cell_angle_gamma    90.0052

_space_group_name_H-M_alt    "P 1"
_space_group_IT_number       1

loop_
  _space_group_symop_operation_xyz
  'x, y, z'

loop_
  _atom_site_type_symbol
  _atom_site_label
  _atom_site_symmetry_multiplicity
  _atom_site_fract_x
  _atom_site_fract_y
  _atom_site_fract_z
  _atom_site_occupancy
  H   H1        1.0  0.47393  0.67430  0.00631  1.0000
  H   H2        1.0  0.02626  0.66745  0.99350  1.0000
  H   H3        1.0  0.52617  0.32567  0.99367  1.0000
  H   H4        1.0  0.97389  0.33257  0.00648  1.0000
  H   H5        1.0  0.33849  0.51920  0.07534  1.0000
  H   H6        1.0  0.16163  0.44326  0.92440  1.0000
  H   H7        1.0  0.66152  0.48077  0.92464  1.0000
  H   H8        1.0  0.83837  0.55667  0.07556  1.0000
  H   H9        1.0  0.36808  0.58168  0.25138  1.0000
  H   H10       1.0  0.13198  0.32981  0.74835  1.0000
  H   H11       1.0  0.63192  0.41826  0.74859  1.0000
  H   H12       1.0  0.86796  0.67017  0.25159  1.0000
  H   H13       1.0  0.53143  0.79465  0.34916  1.0000
  H   H14       1.0  0.96865  0.44509  0.65064  1.0000
  H   H15       1.0  0.46866  0.20525  0.65082  1.0000
  H   H16       1.0  0.03144  0.55503  0.34934  1.0000
  H   H17       1.0  0.71941  0.01025  0.23090  1.0000
  H   H18       1.0  0.78088  0.77897  0.76900  1.0000
  H   H19       1.0  0.28056  0.98973  0.76910  1.0000
  H   H20       1.0  0.21906  0.22101  0.23102  1.0000
  H   H21       1.0  0.70445  0.99440  0.57249  1.0000
  H   H22       1.0  0.79560  0.42170  0.42733  1.0000
  H   H23       1.0  0.29576  0.00547  0.42750  1.0000
  H   H24       1.0  0.20439  0.57837  0.57266  1.0000
  H   H25       1.0  0.89983  0.19854  0.62626  1.0000
  H   H26       1.0  0.60043  0.57233  0.37366  1.0000
  H   H27       1.0  0.10030  0.80137  0.37373  1.0000
  H   H28       1.0  0.39949  0.42780  0.62637  1.0000
  H   H29       1.0  0.99842  0.28806  0.50406  1.0000
  H   H30       1.0  0.50171  0.78383  0.49597  1.0000
  H   H31       1.0  0.00157  0.71191  0.49594  1.0000
  H   H32       1.0  0.49816  0.21620  0.50410  1.0000
  H   H33       1.0  0.89216  0.17034  0.33559  1.0000
  H   H34       1.0  0.60792  0.83441  0.66443  1.0000
  H   H35       1.0  0.10768  0.82971  0.66443  1.0000
  H   H36       1.0  0.39191  0.16557  0.33562  1.0000
  H   H37       1.0  0.66656  0.32615  0.27940  1.0000
  H   H38       1.0  0.83387  0.04697  0.72056  1.0000
  H   H39       1.0  0.33351  0.67388  0.72060  1.0000
  H   H40       1.0  0.16619  0.95304  0.27945  1.0000
  H   H41       1.0  0.47144  0.31776  0.20535  1.0000
  H   H42       1.0  0.02892  0.11263  0.79469  1.0000
  H   H43       1.0  0.52856  0.68225  0.79469  1.0000
  H   H44       1.0  0.97111  0.88737  0.20536  1.0000
  H   H45       1.0  0.66675  0.38894  0.18524  1.0000
  H   H46       1.0  0.83357  0.20381  0.81484  1.0000
  H   H47       1.0  0.33322  0.61106  0.81474  1.0000
  H   H48       1.0  0.16647  0.79620  0.18517  1.0000
  Pb  Pb1       1.0  0.75004  0.90974  0.99992  1.0000
  Pb  Pb2       1.0  0.24962  0.09032  0.00004  1.0000
  C   C1        1.0  0.48686  0.69487  0.08195  1.0000
  C   C2        1.0  0.01338  0.61243  0.91786  1.0000
  C   C3        1.0  0.51316  0.30511  0.91804  1.0000
  C   C4        1.0  0.98670  0.38758  0.08213  1.0000
  C   C5        1.0  0.41033  0.60921  0.12022  1.0000
  C   C6        1.0  0.08987  0.48850  0.87954  1.0000
  C   C7        1.0  0.58970  0.39075  0.87975  1.0000
  C   C8        1.0  0.91013  0.51146  0.12043  1.0000
  C   C9        1.0  0.42766  0.64438  0.21790  1.0000
  C   C10       1.0  0.07249  0.42602  0.78186  1.0000
  C   C11       1.0  0.57234  0.35558  0.78208  1.0000
  C   C12       1.0  0.92752  0.57398  0.21811  1.0000
  C   C13       1.0  0.51697  0.76160  0.27306  1.0000
  C   C14       1.0  0.98321  0.48812  0.72673  1.0000
  C   C15       1.0  0.48305  0.23836  0.72693  1.0000
  C   C16       1.0  0.01688  0.51195  0.27325  1.0000
  C   C17       1.0  0.59161  0.84182  0.22805  1.0000
  C   C18       1.0  0.90860  0.61336  0.77180  1.0000
  C   C19       1.0  0.40835  0.15817  0.77195  1.0000
  C   C20       1.0  0.09146  0.38669  0.22821  1.0000
  C   C21       1.0  0.74942  0.03712  0.52232  1.0000
  C   C22       1.0  0.75067  0.51460  0.47754  1.0000
  C   C23       1.0  0.25073  0.96277  0.47767  1.0000
  C   C24       1.0  0.24931  0.48548  0.52246  1.0000
  C   C25       1.0  0.85822  0.15052  0.55223  1.0000
  C   C26       1.0  0.64199  0.59817  0.44768  1.0000
  C   C27       1.0  0.14189  0.84940  0.44776  1.0000
  C   C28       1.0  0.35796  0.40190  0.55234  1.0000
  C   C29       1.0  0.91188  0.20005  0.48427  1.0000
  C   C30       1.0  0.58827  0.71559  0.51571  1.0000
  C   C31       1.0  0.08813  0.79991  0.51573  1.0000
  C   C32       1.0  0.41163  0.28444  0.48434  1.0000
  C   C33       1.0  0.85367  0.13591  0.39109  1.0000
  C   C34       1.0  0.64641  0.74452  0.60889  1.0000
  C   C35       1.0  0.14626  0.86409  0.60892  1.0000
  C   C36       1.0  0.35346  0.25548  0.39116  1.0000
  C   C37       1.0  0.74163  0.02176  0.36798  1.0000
  C   C38       1.0  0.75848  0.65344  0.63193  1.0000
  C   C39       1.0  0.25837  0.97820  0.63202  1.0000
  C   C40       1.0  0.24149  0.34659  0.36810  1.0000
  C   C41       1.0  0.66520  0.17643  0.14081  1.0000
  C   C42       1.0  0.83509  0.03555  0.85904  1.0000
  C   C43       1.0  0.33475  0.82360  0.85920  1.0000
  C   C44       1.0  0.16489  0.96448  0.14096  1.0000
  C   C45       1.0  0.61424  0.31016  0.20766  1.0000
  C   C46       1.0  0.88612  0.10264  0.79233  1.0000
  C   C47       1.0  0.38577  0.68986  0.79235  1.0000
  C   C48       1.0  0.11391  0.89737  0.20768  1.0000
  N   N1        1.0  0.57741  0.80705  0.13328  1.0000
  N   N2        1.0  0.92283  0.67332  0.86657  1.0000
  N   N3        1.0  0.42255  0.19295  0.86671  1.0000
  N   N4        1.0  0.07727  0.32671  0.13344  1.0000
  N   N5        1.0  0.68448  0.95992  0.27407  1.0000
  N   N6        1.0  0.81573  0.68546  0.72580  1.0000
  N   N7        1.0  0.31549  0.04007  0.72593  1.0000
  N   N8        1.0  0.18428  0.31456  0.27421  1.0000
  N   N9        1.0  0.69101  0.97292  0.43244  1.0000
  N   N10       1.0  0.80905  0.54014  0.56741  1.0000
  N   N11       1.0  0.30911  0.02699  0.56755  1.0000
  N   N12       1.0  0.19097  0.45992  0.43259  1.0000
  O   O1        1.0  0.58811  0.13275  0.05801  1.0000
  O   O2        1.0  0.91198  0.07464  0.94190  1.0000
  O   O3        1.0  0.41179  0.86729  0.94200  1.0000
  O   O4        1.0  0.08796  0.92537  0.05811  1.0000
  O   O5        1.0  0.78486  0.11090  0.16624  1.0000
  O   O6        1.0  0.71554  0.94450  0.83349  1.0000
  O   O7        1.0  0.21511  0.88911  0.83374  1.0000
  O   O8        1.0  0.28441  0.05554  0.16650  1.0000
