data_image0
_chemical_formula_structural       H22Pb2C30N6Cl4O16
_chemical_formula_sum              "H22 Pb2 C30 N6 Cl4 O16"
_cell_length_a       9.96309
_cell_length_b       9.96293
_cell_length_c       10.2241
_cell_angle_alpha    96.2764
_cell_angle_beta     96.2728
_cell_angle_gamma    115.936

_space_group_name_H-M_alt    "P 1"
_space_group_IT_number       1

loop_
  _space_group_symop_operation_xyz
  'x, y, z'

loop_
  _atom_site_type_symbol
  _atom_site_label
  _atom_site_symmetry_multiplicity
  _atom_site_fract_x
  _atom_site_fract_y
  _atom_site_fract_z
  _atom_site_occupancy
  H   H1        1.0  0.18582  0.90178  0.68766  1.0000
  H   H2        1.0  0.59821  0.31422  0.81238  1.0000
  H   H3        1.0  0.81419  0.09822  0.31234  1.0000
  H   H4        1.0  0.40178  0.68580  0.18763  1.0000
  H   H5        1.0  0.46577  0.03427  0.75003  1.0000
  H   H6        1.0  0.53424  0.96575  0.24998  1.0000
  H   H7        1.0  0.96391  0.80380  0.64246  1.0000
  H   H8        1.0  0.69615  0.53608  0.85754  1.0000
  H   H9        1.0  0.03607  0.19617  0.35754  1.0000
  H   H10       1.0  0.30385  0.46393  0.14248  1.0000
  H   H11       1.0  0.68631  0.69334  0.57191  1.0000
  H   H12       1.0  0.80664  0.81369  0.92810  1.0000
  H   H13       1.0  0.31368  0.30665  0.42808  1.0000
  H   H14       1.0  0.19336  0.18631  0.07193  1.0000
  H   H15       1.0  0.56311  0.86529  0.57197  1.0000
  H   H16       1.0  0.63471  0.93691  0.92802  1.0000
  H   H17       1.0  0.43688  0.13470  0.42803  1.0000
  H   H18       1.0  0.36529  0.06310  0.07198  1.0000
  H   H19       1.0  0.72959  0.14634  0.64146  1.0000
  H   H20       1.0  0.35367  0.77047  0.85852  1.0000
  H   H21       1.0  0.27041  0.85365  0.35853  1.0000
  H   H22       1.0  0.64634  0.22955  0.14146  1.0000
  Pb  Pb1       1.0  0.08332  0.41666  0.75000  1.0000
  Pb  Pb2       1.0  0.91667  0.58333  0.24999  1.0000
  C   C1        1.0  0.16408  0.11025  0.71552  1.0000
  C   C2        1.0  0.38973  0.33593  0.78448  1.0000
  C   C3        1.0  0.83592  0.88975  0.28448  1.0000
  C   C4        1.0  0.61027  0.66407  0.21553  1.0000
  C   C5        1.0  0.24425  0.02447  0.71480  1.0000
  C   C6        1.0  0.47552  0.25577  0.78523  1.0000
  C   C7        1.0  0.75575  0.97553  0.28520  1.0000
  C   C8        1.0  0.52447  0.74423  0.21478  1.0000
  C   C9        1.0  0.40124  0.09878  0.75002  1.0000
  C   C10       1.0  0.59876  0.90123  0.24999  1.0000
  C   C11       1.0  0.99633  0.03623  0.67609  1.0000
  C   C12       1.0  0.46374  0.50368  0.82391  1.0000
  C   C13       1.0  0.00366  0.96376  0.32391  1.0000
  C   C14       1.0  0.53625  0.49632  0.17610  1.0000
  C   C15       1.0  0.91078  0.87848  0.64015  1.0000
  C   C16       1.0  0.62148  0.58922  0.85986  1.0000
  C   C17       1.0  0.08921  0.12150  0.35986  1.0000
  C   C18       1.0  0.37851  0.41078  0.14016  1.0000
  C   C19       1.0  0.75418  0.81559  0.60122  1.0000
  C   C20       1.0  0.68439  0.74583  0.89879  1.0000
  C   C21       1.0  0.24582  0.18439  0.39878  1.0000
  C   C22       1.0  0.31561  0.25417  0.10123  1.0000
  C   C23       1.0  0.68535  0.91087  0.60070  1.0000
  C   C24       1.0  0.58912  0.81468  0.89928  1.0000
  C   C25       1.0  0.31464  0.08912  0.39929  1.0000
  C   C26       1.0  0.41088  0.18533  0.10072  1.0000
  C   C27       1.0  0.77679  0.06617  0.63887  1.0000
  C   C28       1.0  0.43382  0.72324  0.86112  1.0000
  C   C29       1.0  0.22321  0.93381  0.36112  1.0000
  C   C30       1.0  0.56618  0.27677  0.13888  1.0000
  N   N1        1.0  0.23709  0.26289  0.75000  1.0000
  N   N2        1.0  0.76290  0.73710  0.25000  1.0000
  N   N3        1.0  0.92792  0.12696  0.67436  1.0000
  N   N4        1.0  0.37302  0.57211  0.82563  1.0000
  N   N5        1.0  0.07207  0.87302  0.32563  1.0000
  N   N6        1.0  0.62697  0.42790  0.17437  1.0000
  Cl  Cl1       1.0  0.08377  0.75796  0.97717  1.0000
  Cl  Cl2       1.0  0.74205  0.41625  0.52282  1.0000
  Cl  Cl3       1.0  0.91625  0.24205  0.02282  1.0000
  Cl  Cl4       1.0  0.25796  0.58375  0.47718  1.0000
  O   O1        1.0  0.10090  0.71585  0.84037  1.0000
  O   O2        1.0  0.78416  0.39913  0.65962  1.0000
  O   O3        1.0  0.89910  0.28415  0.15961  1.0000
  O   O4        1.0  0.21583  0.60088  0.34038  1.0000
  O   O5        1.0  0.94075  0.63564  0.00220  1.0000
  O   O6        1.0  0.86435  0.55927  0.49778  1.0000
  O   O7        1.0  0.05929  0.36436  0.99781  1.0000
  O   O8        1.0  0.13565  0.44072  0.50221  1.0000
  O   O9        1.0  0.21055  0.76984  0.07188  1.0000
  O   O10       1.0  0.73020  0.28947  0.42811  1.0000
  O   O11       1.0  0.78949  0.23019  0.92809  1.0000
  O   O12       1.0  0.26981  0.71053  0.57189  1.0000
  O   O13       1.0  0.07408  0.89950  0.99074  1.0000
  O   O14       1.0  0.60050  0.42591  0.50925  1.0000
  O   O15       1.0  0.92592  0.10050  0.00925  1.0000
  O   O16       1.0  0.39951  0.57409  0.49074  1.0000
