data_image0
_chemical_formula_structural       Zn2H64C50N8O8
_chemical_formula_sum              "Zn2 H64 C50 N8 O8"
_cell_length_a       6.92676
_cell_length_b       10.8748
_cell_length_c       16.1795
_cell_angle_alpha    77.8185
_cell_angle_beta     86.7476
_cell_angle_gamma    87.348

_space_group_name_H-M_alt    "P 1"
_space_group_IT_number       1

loop_
  _space_group_symop_operation_xyz
  'x, y, z'

loop_
  _atom_site_type_symbol
  _atom_site_label
  _atom_site_symmetry_multiplicity
  _atom_site_fract_x
  _atom_site_fract_y
  _atom_site_fract_z
  _atom_site_occupancy
  Zn  Zn1       1.0  0.31320  0.09870  0.25446  1.0000
  Zn  Zn2       1.0  0.68679  0.90130  0.74554  1.0000
  H   H1        1.0  0.42268  0.01285  0.08144  1.0000
  H   H2        1.0  0.57732  0.98714  0.91856  1.0000
  H   H3        1.0  0.77801  0.07859  0.99126  1.0000
  H   H4        1.0  0.22200  0.92141  0.00874  1.0000
  H   H5        1.0  0.59412  0.29465  0.25472  1.0000
  H   H6        1.0  0.40587  0.70534  0.74528  1.0000
  H   H7        1.0  0.78153  0.36694  0.18378  1.0000
  H   H8        1.0  0.21847  0.63306  0.81622  1.0000
  H   H9        1.0  0.83743  0.23060  0.26128  1.0000
  H   H10       1.0  0.16256  0.76940  0.73872  1.0000
  H   H11       1.0  0.05857  0.17803  0.02370  1.0000
  H   H12       1.0  0.94143  0.82197  0.97631  1.0000
  H   H13       1.0  0.07441  0.20646  0.12634  1.0000
  H   H14       1.0  0.92558  0.79354  0.87367  1.0000
  H   H15       1.0  0.23902  0.39442  0.10323  1.0000
  H   H16       1.0  0.76098  0.60557  0.89678  1.0000
  H   H17       1.0  0.25695  0.62389  0.04200  1.0000
  H   H18       1.0  0.74306  0.37611  0.95800  1.0000
  H   H19       1.0  0.74289  0.04304  0.33283  1.0000
  H   H20       1.0  0.25711  0.95695  0.66717  1.0000
  H   H21       1.0  0.79059  0.86566  0.48269  1.0000
  H   H22       1.0  0.20941  0.13434  0.51731  1.0000
  H   H23       1.0  0.06306  0.97848  0.40358  1.0000
  H   H24       1.0  0.93694  0.02153  0.59642  1.0000
  H   H25       1.0  0.09848  0.86110  0.49817  1.0000
  H   H26       1.0  0.90152  0.13891  0.50183  1.0000
  H   H27       1.0  0.09972  0.81784  0.39818  1.0000
  H   H28       1.0  0.90027  0.18217  0.60182  1.0000
  H   H29       1.0  0.30195  0.75742  0.57208  1.0000
  H   H30       1.0  0.69805  0.24258  0.42792  1.0000
  H   H31       1.0  0.54999  0.75490  0.59398  1.0000
  H   H32       1.0  0.45000  0.24510  0.40602  1.0000
  H   H33       1.0  0.75393  0.65722  0.45378  1.0000
  H   H34       1.0  0.24607  0.34279  0.54622  1.0000
  H   H35       1.0  0.20492  0.55356  0.58145  1.0000
  H   H36       1.0  0.79508  0.44644  0.41855  1.0000
  H   H37       1.0  0.14195  0.46810  0.38422  1.0000
  H   H38       1.0  0.85805  0.53191  0.61578  1.0000
  H   H39       1.0  0.00339  0.49331  0.29384  1.0000
  H   H40       1.0  0.99661  0.50669  0.70616  1.0000
  H   H41       1.0  0.44649  0.47022  0.28315  1.0000
  H   H42       1.0  0.55352  0.52978  0.71685  1.0000
  H   H43       1.0  0.29430  0.51894  0.19842  1.0000
  H   H44       1.0  0.70570  0.48106  0.80158  1.0000
  H   H45       1.0  0.36349  0.65917  0.33912  1.0000
  H   H46       1.0  0.63650  0.34083  0.66088  1.0000
  H   H47       1.0  0.18304  0.70735  0.26514  1.0000
  H   H48       1.0  0.81696  0.29265  0.73486  1.0000
  H   H49       1.0  0.42178  0.74626  0.14644  1.0000
  H   H50       1.0  0.57822  0.25373  0.85356  1.0000
  H   H51       1.0  0.47880  0.82698  0.22417  1.0000
  H   H52       1.0  0.52120  0.17301  0.77582  1.0000
  H   H53       1.0  0.68003  0.58877  0.18283  1.0000
  H   H54       1.0  0.31997  0.41123  0.81717  1.0000
  H   H55       1.0  0.71344  0.63327  0.27956  1.0000
  H   H56       1.0  0.28656  0.36672  0.72044  1.0000
  H   H57       1.0  0.97155  0.70745  0.16308  1.0000
  H   H58       1.0  0.02846  0.29255  0.83693  1.0000
  H   H59       1.0  0.79492  0.80632  0.10588  1.0000
  H   H60       1.0  0.20508  0.19368  0.89413  1.0000
  H   H61       1.0  0.87891  0.81683  0.28852  1.0000
  H   H62       1.0  0.12109  0.18317  0.71148  1.0000
  H   H63       1.0  0.73874  0.92498  0.21971  1.0000
  H   H64       1.0  0.26126  0.07501  0.78029  1.0000
  C   C1        1.0  0.53654  0.07230  0.09155  1.0000
  C   C2        1.0  0.46346  0.92769  0.90845  1.0000
  C   C3        1.0  0.70901  0.10264  0.04798  1.0000
  C   C4        1.0  0.29099  0.89736  0.95202  1.0000
  C   C5        1.0  0.67976  0.19725  0.15807  1.0000
  C   C6        1.0  0.32024  0.80275  0.84193  1.0000
  C   C7        1.0  0.72605  0.27626  0.21804  1.0000
  C   C8        1.0  0.27395  0.72374  0.78196  1.0000
  C   C9        1.0  0.99026  0.23036  0.06934  1.0000
  C   C10       1.0  0.00974  0.76963  0.93066  1.0000
  C   C11       1.0  0.99126  0.37023  0.03404  1.0000
  C   C12       1.0  0.00874  0.62976  0.96596  1.0000
  C   C13       1.0  0.13552  0.44086  0.05717  1.0000
  C   C14       1.0  0.86448  0.55913  0.94283  1.0000
  C   C15       1.0  0.14440  0.56958  0.02328  1.0000
  C   C16       1.0  0.85560  0.43041  0.97672  1.0000
  C   C17       1.0  0.63652  0.98676  0.37389  1.0000
  C   C18       1.0  0.36349  0.01324  0.62610  1.0000
  C   C19       1.0  0.66466  0.89820  0.44645  1.0000
  C   C20       1.0  0.33535  0.10180  0.55355  1.0000
  C   C21       1.0  0.35157  0.91150  0.41952  1.0000
  C   C22       1.0  0.64843  0.08850  0.58047  1.0000
  C   C23       1.0  0.14156  0.89089  0.43084  1.0000
  C   C24       1.0  0.85844  0.10912  0.56916  1.0000
  C   C25       1.0  0.44953  0.74646  0.54549  1.0000
  C   C26       1.0  0.55046  0.25355  0.45451  1.0000
  C   C27       1.0  0.47647  0.61970  0.52080  1.0000
  C   C28       1.0  0.52352  0.38030  0.47920  1.0000
  C   C29       1.0  0.64168  0.58867  0.47436  1.0000
  C   C30       1.0  0.35831  0.41134  0.52563  1.0000
  C   C31       1.0  0.33507  0.52973  0.54604  1.0000
  C   C32       1.0  0.66492  0.47027  0.45396  1.0000
  C   C33       1.0  0.14484  0.31218  0.32310  1.0000
  C   C34       1.0  0.85517  0.68782  0.67691  1.0000
  C   C35       1.0  0.14332  0.45390  0.31881  1.0000
  C   C36       1.0  0.85668  0.54610  0.68119  1.0000
  C   C37       1.0  0.31004  0.52215  0.26520  1.0000
  C   C38       1.0  0.68996  0.47784  0.73480  1.0000
  C   C39       1.0  0.32536  0.65832  0.27395  1.0000
  C   C40       1.0  0.67464  0.34168  0.72605  1.0000
  C   C41       1.0  0.47360  0.73198  0.21108  1.0000
  C   C42       1.0  0.52641  0.26802  0.78891  1.0000
  C   C43       1.0  0.67751  0.67064  0.21307  1.0000
  C   C44       1.0  0.32249  0.32936  0.78693  1.0000
  C   C45       1.0  0.83485  0.76063  0.17033  1.0000
  C   C46       1.0  0.16516  0.23937  0.82967  1.0000
  C   C47       1.0  0.86630  0.86069  0.22101  1.0000
  C   C48       1.0  0.13369  0.13931  0.77900  1.0000
  C   C49       1.0  0.04057  0.94227  0.19384  1.0000
  C   C50       1.0  0.95942  0.05773  0.80617  1.0000
  N   N1        1.0  0.51967  0.13120  0.15993  1.0000
  N   N2        1.0  0.48033  0.86879  0.84007  1.0000
  N   N3        1.0  0.79739  0.18052  0.09073  1.0000
  N   N4        1.0  0.20261  0.81947  0.90927  1.0000
  N   N5        1.0  0.44142  0.99451  0.35763  1.0000
  N   N6        1.0  0.55859  0.00549  0.64237  1.0000
  N   N7        1.0  0.48476  0.85140  0.47409  1.0000
  N   N8        1.0  0.51524  0.14861  0.52591  1.0000
  O   O1        1.0  0.25289  0.27452  0.26443  1.0000
  O   O2        1.0  0.74710  0.72549  0.73557  1.0000
  O   O3        1.0  0.04706  0.24189  0.38008  1.0000
  O   O4        1.0  0.95296  0.75811  0.61992  1.0000
  O   O5        1.0  0.07291  0.01490  0.24610  1.0000
  O   O6        1.0  0.92708  0.98510  0.75391  1.0000
  O   O7        1.0  0.13886  0.93831  0.12751  1.0000
  O   O8        1.0  0.86113  0.06170  0.87249  1.0000
