data_image0
_chemical_formula_structural       CuH24C40N6O6
_chemical_formula_sum              "Cu1 H24 C40 N6 O6"
_cell_length_a       8.90285
_cell_length_b       9.95641
_cell_length_c       11.7105
_cell_angle_alpha    109.518
_cell_angle_beta     97.491
_cell_angle_gamma    115.907

_space_group_name_H-M_alt    "P 1"
_space_group_IT_number       1

loop_
  _space_group_symop_operation_xyz
  'x, y, z'

loop_
  _atom_site_type_symbol
  _atom_site_label
  _atom_site_symmetry_multiplicity
  _atom_site_fract_x
  _atom_site_fract_y
  _atom_site_fract_z
  _atom_site_occupancy
  Cu  Cu1       1.0  0.00000  0.50000  0.00000  1.0000
  H   H1        1.0  0.99683  0.79028  0.99692  1.0000
  H   H2        1.0  0.00318  0.20972  0.00308  1.0000
  H   H3        1.0  0.22002  0.08796  0.04987  1.0000
  H   H4        1.0  0.77998  0.91204  0.95013  1.0000
  H   H5        1.0  0.53690  0.19856  0.15236  1.0000
  H   H6        1.0  0.46310  0.80145  0.84764  1.0000
  H   H7        1.0  0.39408  0.71227  0.12751  1.0000
  H   H8        1.0  0.60592  0.28773  0.87250  1.0000
  H   H9        1.0  0.93769  0.88945  0.33378  1.0000
  H   H10       1.0  0.06232  0.11055  0.66622  1.0000
  H   H11       1.0  0.25219  0.98079  0.42954  1.0000
  H   H12       1.0  0.74781  0.01921  0.57045  1.0000
  H   H13       1.0  0.41783  0.40793  0.34899  1.0000
  H   H14       1.0  0.58217  0.59207  0.65101  1.0000
  H   H15       1.0  0.10604  0.31770  0.25617  1.0000
  H   H16       1.0  0.89396  0.68230  0.74383  1.0000
  H   H17       1.0  0.74519  0.38685  0.75592  1.0000
  H   H18       1.0  0.25481  0.61315  0.24408  1.0000
  H   H19       1.0  0.00117  0.34471  0.46828  1.0000
  H   H20       1.0  0.99882  0.65528  0.53172  1.0000
  H   H21       1.0  0.27438  0.44021  0.64238  1.0000
  H   H22       1.0  0.72561  0.55978  0.35762  1.0000
  H   H23       1.0  0.26858  0.50346  0.86473  1.0000
  H   H24       1.0  0.73142  0.49653  0.13527  1.0000
  C   C1        1.0  0.13841  0.84447  0.03859  1.0000
  C   C2        1.0  0.86159  0.15553  0.96140  1.0000
  C   C3        1.0  0.26153  0.00843  0.07039  1.0000
  C   C4        1.0  0.73847  0.99156  0.92961  1.0000
  C   C5        1.0  0.43943  0.07033  0.12738  1.0000
  C   C6        1.0  0.56058  0.92968  0.87263  1.0000
  C   C7        1.0  0.49121  0.96469  0.15089  1.0000
  C   C8        1.0  0.50879  0.03531  0.84911  1.0000
  C   C9        1.0  0.35893  0.79902  0.11363  1.0000
  C   C10       1.0  0.64107  0.20099  0.88638  1.0000
  C   C11       1.0  0.66960  0.01624  0.20452  1.0000
  C   C12       1.0  0.33040  0.98377  0.79549  1.0000
  C   C13       1.0  0.82266  0.05288  0.24302  1.0000
  C   C14       1.0  0.17734  0.94712  0.75698  1.0000
  C   C15       1.0  0.00041  0.09824  0.28966  1.0000
  C   C16       1.0  0.99959  0.90176  0.71034  1.0000
  C   C17       1.0  0.04377  0.00246  0.33764  1.0000
  C   C18       1.0  0.95622  0.99754  0.66235  1.0000
  C   C19       1.0  0.21902  0.05344  0.39083  1.0000
  C   C20       1.0  0.78098  0.94656  0.60916  1.0000
  C   C21       1.0  0.35683  0.20079  0.39678  1.0000
  C   C22       1.0  0.64316  0.79922  0.60321  1.0000
  C   C23       1.0  0.31376  0.29490  0.34670  1.0000
  C   C24       1.0  0.68624  0.70510  0.65330  1.0000
  C   C25       1.0  0.13847  0.24407  0.29402  1.0000
  C   C26       1.0  0.86153  0.75593  0.70598  1.0000
  C   C27       1.0  0.53467  0.25365  0.45544  1.0000
  C   C28       1.0  0.46533  0.74636  0.54456  1.0000
  C   C29       1.0  0.68588  0.29805  0.51098  1.0000
  C   C30       1.0  0.31412  0.70196  0.48902  1.0000
  C   C31       1.0  0.85962  0.39475  0.72745  1.0000
  C   C32       1.0  0.14038  0.60526  0.27255  1.0000
  C   C33       1.0  0.85010  0.35449  0.59842  1.0000
  C   C34       1.0  0.14991  0.64551  0.40158  1.0000
  C   C35       1.0  0.00281  0.37322  0.56668  1.0000
  C   C36       1.0  0.99719  0.62678  0.43332  1.0000
  C   C37       1.0  0.15399  0.42687  0.66266  1.0000
  C   C38       1.0  0.84600  0.57313  0.33733  1.0000
  C   C39       1.0  0.15240  0.46250  0.78803  1.0000
  C   C40       1.0  0.84760  0.53750  0.21197  1.0000
  N   N1        1.0  0.18791  0.74181  0.05896  1.0000
  N   N2        1.0  0.81210  0.25819  0.94104  1.0000
  N   N3        1.0  0.00670  0.44738  0.81870  1.0000
  N   N4        1.0  0.99330  0.55262  0.18131  1.0000
  N   N5        1.0  0.38448  0.44702  0.10435  1.0000
  N   N6        1.0  0.61552  0.55298  0.89565  1.0000
  O   O1        1.0  0.24017  0.42243  0.03838  1.0000
  O   O2        1.0  0.75983  0.57757  0.96162  1.0000
  O   O3        1.0  0.46990  0.56866  0.21487  1.0000
  O   O4        1.0  0.53010  0.43134  0.78513  1.0000
  O   O5        1.0  0.43820  0.34952  0.05864  1.0000
  O   O6        1.0  0.56180  0.65047  0.94137  1.0000
