data_image0
_chemical_formula_structural       H28Pb5C20N4Cl2O18
_chemical_formula_sum              "H28 Pb5 C20 N4 Cl2 O18"
_cell_length_a       7.59059
_cell_length_b       8.9052
_cell_length_c       13.3488
_cell_angle_alpha    73.2222
_cell_angle_beta     80.8441
_cell_angle_gamma    75.2309

_space_group_name_H-M_alt    "P 1"
_space_group_IT_number       1

loop_
  _space_group_symop_operation_xyz
  'x, y, z'

loop_
  _atom_site_type_symbol
  _atom_site_label
  _atom_site_symmetry_multiplicity
  _atom_site_fract_x
  _atom_site_fract_y
  _atom_site_fract_z
  _atom_site_occupancy
  H   H1        1.0  0.82328  0.26379  0.69973  1.0000
  H   H2        1.0  0.17670  0.73624  0.30026  1.0000
  H   H3        1.0  0.70073  0.41245  0.60031  1.0000
  H   H4        1.0  0.29922  0.58755  0.39968  1.0000
  H   H5        1.0  0.69112  0.53278  0.74832  1.0000
  H   H6        1.0  0.30886  0.46722  0.25165  1.0000
  H   H7        1.0  0.49024  0.53030  0.83534  1.0000
  H   H8        1.0  0.50974  0.46974  0.16464  1.0000
  H   H9        1.0  0.20150  0.99640  0.96939  1.0000
  H   H10       1.0  0.79847  0.00365  0.03065  1.0000
  H   H11       1.0  0.38288  0.99842  0.86693  1.0000
  H   H12       1.0  0.61710  0.00158  0.13311  1.0000
  H   H13       1.0  0.65572  0.24798  0.89268  1.0000
  H   H14       1.0  0.34425  0.75205  0.10731  1.0000
  H   H15       1.0  0.58890  0.11972  0.83341  1.0000
  H   H16       1.0  0.41107  0.88029  0.16660  1.0000
  H   H17       1.0  0.02273  0.26805  0.99901  1.0000
  H   H18       1.0  0.97723  0.73199  0.00098  1.0000
  H   H19       1.0  0.93668  0.24908  0.88924  1.0000
  H   H20       1.0  0.06330  0.75088  0.11078  1.0000
  H   H21       1.0  0.38334  0.18039  0.99543  1.0000
  H   H22       1.0  0.61662  0.81966  0.00458  1.0000
  H   H23       1.0  0.32240  0.38275  0.92489  1.0000
  H   H24       1.0  0.67757  0.61729  0.07511  1.0000
  H   H25       1.0  0.61445  0.82336  0.75193  1.0000
  H   H26       1.0  0.38552  0.17670  0.24804  1.0000
  H   H27       1.0  0.75275  0.73231  0.84131  1.0000
  H   H28       1.0  0.24712  0.26771  0.15868  1.0000
  Pb  Pb1       1.0  0.22677  0.37244  0.66635  1.0000
  Pb  Pb2       1.0  0.77334  0.62746  0.33366  1.0000
  Pb  Pb3       1.0  0.00796  0.84765  0.67164  1.0000
  Pb  Pb4       1.0  0.99232  0.15237  0.32850  1.0000
  Pb  Pb5       1.0  0.50060  0.99979  0.49994  1.0000
  C   C1        1.0  0.65133  0.18001  0.62596  1.0000
  C   C2        1.0  0.34870  0.81996  0.37404  1.0000
  C   C3        1.0  0.44509  0.66059  0.67805  1.0000
  C   C4        1.0  0.55488  0.33939  0.32192  1.0000
  C   C5        1.0  0.68832  0.30889  0.66816  1.0000
  C   C6        1.0  0.31167  0.69111  0.33183  1.0000
  C   C7        1.0  0.54894  0.51833  0.75657  1.0000
  C   C8        1.0  0.45104  0.48168  0.24340  1.0000
  C   C9        1.0  0.23906  0.05414  0.88633  1.0000
  C   C10       1.0  0.76092  0.94587  0.11371  1.0000
  C   C11       1.0  0.97613  0.48212  0.87047  1.0000
  C   C12       1.0  0.02380  0.51788  0.12950  1.0000
  C   C13       1.0  0.54884  0.23964  0.84822  1.0000
  C   C14       1.0  0.45114  0.76038  0.15179  1.0000
  C   C15       1.0  0.12916  0.01244  0.81581  1.0000
  C   C16       1.0  0.87085  0.98755  0.18425  1.0000
  C   C17       1.0  0.03716  0.29992  0.91247  1.0000
  C   C18       1.0  0.96280  0.70009  0.08752  1.0000
  C   C19       1.0  0.36685  0.26006  0.91529  1.0000
  C   C20       1.0  0.63312  0.73998  0.08472  1.0000
  N   N1        1.0  0.54169  0.36083  0.74558  1.0000
  N   N2        1.0  0.45829  0.63916  0.25442  1.0000
  N   N3        1.0  0.22009  0.22793  0.86904  1.0000
  N   N4        1.0  0.77989  0.77209  0.13096  1.0000
  Cl  Cl1       1.0  0.83776  0.71262  0.54144  1.0000
  Cl  Cl2       1.0  0.16217  0.28757  0.45849  1.0000
  O   O1        1.0  0.77979  0.09954  0.57711  1.0000
  O   O2        1.0  0.22027  0.90044  0.42290  1.0000
  O   O3        1.0  0.36068  0.63809  0.61106  1.0000
  O   O4        1.0  0.63928  0.36185  0.38893  1.0000
  O   O5        1.0  0.06829  0.55128  0.78812  1.0000
  O   O6        1.0  0.93165  0.44874  0.21186  1.0000
  O   O7        1.0  0.09014  0.11325  0.72816  1.0000
  O   O8        1.0  0.90976  0.88674  0.27191  1.0000
  O   O9        1.0  0.44614  0.80003  0.68685  1.0000
  O   O10       1.0  0.55384  0.19998  0.31307  1.0000
  O   O11       1.0  0.48739  0.15893  0.63911  1.0000
  O   O12       1.0  0.51267  0.84097  0.36090  1.0000
  O   O13       1.0  0.71221  0.83857  0.78814  1.0000
  O   O14       1.0  0.28772  0.16147  0.21187  1.0000
  O   O15       1.0  0.83385  0.55129  0.91572  1.0000
  O   O16       1.0  0.16604  0.44869  0.08424  1.0000
  O   O17       1.0  0.08815  0.87609  0.84680  1.0000
  O   O18       1.0  0.91200  0.12383  0.15324  1.0000
