data_image0
_chemical_formula_structural       H28Pb5C20Br2N4O18
_chemical_formula_sum              "H28 Pb5 C20 Br2 N4 O18"
_cell_length_a       7.65768
_cell_length_b       8.88889
_cell_length_c       13.6028
_cell_angle_alpha    72.607
_cell_angle_beta     80.4014
_cell_angle_gamma    74.8425

_space_group_name_H-M_alt    "P 1"
_space_group_IT_number       1

loop_
  _space_group_symop_operation_xyz
  'x, y, z'

loop_
  _atom_site_type_symbol
  _atom_site_label
  _atom_site_symmetry_multiplicity
  _atom_site_fract_x
  _atom_site_fract_y
  _atom_site_fract_z
  _atom_site_occupancy
  H   H1        1.0  0.88306  0.17284  0.24832  1.0000
  H   H2        1.0  0.11697  0.82715  0.75166  1.0000
  H   H3        1.0  0.74838  0.26261  0.15884  1.0000
  H   H4        1.0  0.25163  0.73739  0.84115  1.0000
  H   H5        1.0  0.01152  0.47087  0.16518  1.0000
  H   H6        1.0  0.98847  0.52915  0.83482  1.0000
  H   H7        1.0  0.81137  0.47067  0.25086  1.0000
  H   H8        1.0  0.18862  0.52935  0.74914  1.0000
  H   H9        1.0  0.80879  0.58539  0.39807  1.0000
  H   H10       1.0  0.19122  0.41462  0.60194  1.0000
  H   H11       1.0  0.68600  0.73698  0.30134  1.0000
  H   H12       1.0  0.31400  0.26304  0.69867  1.0000
  H   H13       1.0  0.12425  0.00019  0.13284  1.0000
  H   H14       1.0  0.87574  0.99980  0.86715  1.0000
  H   H15       1.0  0.30338  0.00206  0.03110  1.0000
  H   H16       1.0  0.69661  0.99792  0.96890  1.0000
  H   H17       1.0  0.47687  0.72766  0.00108  1.0000
  H   H18       1.0  0.52313  0.27232  0.99892  1.0000
  H   H19       1.0  0.56520  0.74573  0.10751  1.0000
  H   H20       1.0  0.43478  0.25427  0.89249  1.0000
  H   H21       1.0  0.84761  0.75649  0.11081  1.0000
  H   H22       1.0  0.15238  0.24350  0.88919  1.0000
  H   H23       1.0  0.91887  0.88182  0.16813  1.0000
  H   H24       1.0  0.08113  0.11819  0.83186  1.0000
  H   H25       1.0  0.17756  0.61714  0.07584  1.0000
  H   H26       1.0  0.82242  0.38286  0.92416  1.0000
  H   H27       1.0  0.11814  0.82188  0.00700  1.0000
  H   H28       1.0  0.88186  0.17811  0.99300  1.0000
  Pb  Pb1       1.0  0.27813  0.61915  0.32953  1.0000
  Pb  Pb2       1.0  0.72186  0.38086  0.67048  1.0000
  Pb  Pb3       1.0  0.49325  0.14232  0.32421  1.0000
  Pb  Pb4       1.0  0.50678  0.85768  0.67578  1.0000
  Pb  Pb5       1.0  0.00003  0.00003  0.49999  1.0000
  C   C1        1.0  0.05493  0.33559  0.31956  1.0000
  C   C2        1.0  0.94506  0.66441  0.68044  1.0000
  C   C3        1.0  0.95360  0.48193  0.24285  1.0000
  C   C4        1.0  0.04640  0.51810  0.75715  1.0000
  C   C5        1.0  0.82060  0.69047  0.33131  1.0000
  C   C6        1.0  0.17941  0.30955  0.66869  1.0000
  C   C7        1.0  0.85922  0.81739  0.37333  1.0000
  C   C8        1.0  0.14079  0.18263  0.62668  1.0000
  C   C9        1.0  0.37756  0.98153  0.18168  1.0000
  C   C10       1.0  0.62242  0.01846  0.81832  1.0000
  C   C11       1.0  0.26654  0.94293  0.11301  1.0000
  C   C12       1.0  0.73345  0.05706  0.88699  1.0000
  C   C13       1.0  0.52476  0.51215  0.12815  1.0000
  C   C14       1.0  0.47524  0.48784  0.87186  1.0000
  C   C15       1.0  0.46428  0.69547  0.08622  1.0000
  C   C16       1.0  0.53571  0.30452  0.91378  1.0000
  C   C17       1.0  0.95621  0.76198  0.15322  1.0000
  C   C18       1.0  0.04378  0.23803  0.84678  1.0000
  C   C19       1.0  0.13553  0.73998  0.08559  1.0000
  C   C20       1.0  0.86445  0.26001  0.91441  1.0000
  Br  Br1       1.0  0.64504  0.29472  0.46017  1.0000
  Br  Br2       1.0  0.35499  0.70527  0.53983  1.0000
  N   N1        1.0  0.96429  0.63841  0.25400  1.0000
  N   N2        1.0  0.03571  0.36160  0.74600  1.0000
  N   N3        1.0  0.28354  0.76884  0.12988  1.0000
  N   N4        1.0  0.71645  0.23115  0.87012  1.0000
  O   O1        1.0  0.14238  0.35428  0.38459  1.0000
  O   O2        1.0  0.85759  0.64571  0.61542  1.0000
  O   O3        1.0  0.78862  0.15619  0.21217  1.0000
  O   O4        1.0  0.21139  0.84380  0.78782  1.0000
  O   O5        1.0  0.04847  0.19698  0.31177  1.0000
  O   O6        1.0  0.95155  0.80304  0.68820  1.0000
  O   O7        1.0  0.02317  0.83340  0.36358  1.0000
  O   O8        1.0  0.97684  0.16661  0.63643  1.0000
  O   O9        1.0  0.73103  0.90035  0.41984  1.0000
  O   O10       1.0  0.26898  0.09967  0.58017  1.0000
  O   O11       1.0  0.41937  0.87733  0.26683  1.0000
  O   O12       1.0  0.58061  0.12265  0.73317  1.0000
  O   O13       1.0  0.41653  0.11920  0.15166  1.0000
  O   O14       1.0  0.58348  0.88077  0.84834  1.0000
  O   O15       1.0  0.43116  0.44203  0.20834  1.0000
  O   O16       1.0  0.56885  0.55797  0.79167  1.0000
  O   O17       1.0  0.66790  0.44290  0.08462  1.0000
  O   O18       1.0  0.33209  0.55710  0.91539  1.0000
