data_image0
_chemical_formula_structural       Cu2H28C26I2N8
_chemical_formula_sum              "Cu2 H28 C26 I2 N8"
_cell_length_a       4.11567
_cell_length_b       11.3512
_cell_length_c       14.7012
_cell_angle_alpha    101.151
_cell_angle_beta     93.8809
_cell_angle_gamma    96.6087

_space_group_name_H-M_alt    "P 1"
_space_group_IT_number       1

loop_
  _space_group_symop_operation_xyz
  'x, y, z'

loop_
  _atom_site_type_symbol
  _atom_site_label
  _atom_site_symmetry_multiplicity
  _atom_site_fract_x
  _atom_site_fract_y
  _atom_site_fract_z
  _atom_site_occupancy
  Cu  Cu1       1.0  0.21546  0.98740  0.56443  1.0000
  Cu  Cu2       1.0  0.78453  0.01260  0.43557  1.0000
  H   H1        1.0  0.66007  0.19348  0.66258  1.0000
  H   H2        1.0  0.33991  0.80652  0.33742  1.0000
  H   H3        1.0  0.92817  0.27610  0.82503  1.0000
  H   H4        1.0  0.07180  0.72390  0.17496  1.0000
  H   H5        1.0  0.34986  0.98442  0.91351  1.0000
  H   H6        1.0  0.65014  0.01558  0.08649  1.0000
  H   H7        1.0  0.09149  0.91862  0.74920  1.0000
  H   H8        1.0  0.90849  0.08139  0.25080  1.0000
  H   H9        1.0  0.12386  0.15182  0.12139  1.0000
  H   H10       1.0  0.87614  0.84818  0.87862  1.0000
  H   H11       1.0  0.48125  0.23465  0.26550  1.0000
  H   H12       1.0  0.51875  0.76535  0.73450  1.0000
  H   H13       1.0  0.61327  0.58448  0.18370  1.0000
  H   H14       1.0  0.38675  0.41552  0.81631  1.0000
  H   H15       1.0  0.23917  0.50066  0.04426  1.0000
  H   H16       1.0  0.76085  0.49934  0.95574  1.0000
  H   H17       1.0  0.73785  0.39147  0.43642  1.0000
  H   H18       1.0  0.26215  0.60853  0.56358  1.0000
  H   H19       1.0  0.14878  0.42603  0.40823  1.0000
  H   H20       1.0  0.85122  0.57397  0.59177  1.0000
  H   H21       1.0  0.89649  0.29656  0.34411  1.0000
  H   H22       1.0  0.10351  0.70344  0.65590  1.0000
  H   H23       1.0  0.10085  0.60611  0.27860  1.0000
  H   H24       1.0  0.89916  0.39388  0.72140  1.0000
  H   H25       1.0  0.08088  0.61225  0.40006  1.0000
  H   H26       1.0  0.91912  0.38776  0.59994  1.0000
  H   H27       1.0  0.74902  0.65168  0.33460  1.0000
  H   H28       1.0  0.25098  0.34832  0.66539  1.0000
  C   C1        1.0  0.59312  0.15229  0.72101  1.0000
  C   C2        1.0  0.40688  0.84771  0.27898  1.0000
  C   C3        1.0  0.74069  0.19753  0.81003  1.0000
  C   C4        1.0  0.25931  0.80249  0.18997  1.0000
  C   C5        1.0  0.65711  0.13794  0.88249  1.0000
  C   C6        1.0  0.34288  0.86206  0.11751  1.0000
  C   C7        1.0  0.42177  0.03422  0.85996  1.0000
  C   C8        1.0  0.57824  0.96578  0.14004  1.0000
  C   C9        1.0  0.28038  0.99702  0.76883  1.0000
  C   C10       1.0  0.71962  0.00298  0.23117  1.0000
  C   C11       1.0  0.15334  0.32045  0.07305  1.0000
  C   C12       1.0  0.84668  0.67956  0.92694  1.0000
  C   C13       1.0  0.22812  0.24687  0.13717  1.0000
  C   C14       1.0  0.77185  0.75311  0.86282  1.0000
  C   C15       1.0  0.43346  0.29343  0.21703  1.0000
  C   C16       1.0  0.56655  0.70657  0.78298  1.0000
  C   C17       1.0  0.58192  0.41681  0.23668  1.0000
  C   C18       1.0  0.41807  0.58318  0.76332  1.0000
  C   C19       1.0  0.50478  0.49027  0.17206  1.0000
  C   C20       1.0  0.49523  0.50973  0.82794  1.0000
  C   C21       1.0  0.29618  0.44290  0.09280  1.0000
  C   C22       1.0  0.70385  0.55709  0.90720  1.0000
  C   C23       1.0  0.89644  0.39086  0.37882  1.0000
  C   C24       1.0  0.10355  0.60914  0.62118  1.0000
  C   C25       1.0  0.93682  0.58995  0.33224  1.0000
  C   C26       1.0  0.06319  0.41005  0.66776  1.0000
  I   I1        1.0  0.67889  0.83561  0.52753  1.0000
  I   I2        1.0  0.32113  0.16438  0.47247  1.0000
  N   N1        1.0  0.36317  0.05355  0.69912  1.0000
  N   N2        1.0  0.63681  0.94646  0.30087  1.0000
  N   N3        1.0  0.81248  0.17262  0.97310  1.0000
  N   N4        1.0  0.18752  0.82738  0.02690  1.0000
  N   N5        1.0  0.95880  0.28205  0.99026  1.0000
  N   N6        1.0  0.04121  0.71795  0.00974  1.0000
  N   N7        1.0  0.79222  0.46379  0.31415  1.0000
  N   N8        1.0  0.20778  0.53620  0.68585  1.0000
