data_image0
_chemical_formula_structural       Cu2H24C20N4O10
_chemical_formula_sum              "Cu2 H24 C20 N4 O10"
_cell_length_a       8.0016
_cell_length_b       8.09151
_cell_length_c       9.64818
_cell_angle_alpha    113.183
_cell_angle_beta     89.9997
_cell_angle_gamma    90.0003

_space_group_name_H-M_alt    "P 1"
_space_group_IT_number       1

loop_
  _space_group_symop_operation_xyz
  'x, y, z'

loop_
  _atom_site_type_symbol
  _atom_site_label
  _atom_site_symmetry_multiplicity
  _atom_site_fract_x
  _atom_site_fract_y
  _atom_site_fract_z
  _atom_site_occupancy
  Cu  Cu1       1.0  0.97810  0.60143  0.07814  1.0000
  Cu  Cu2       1.0  0.47811  0.39857  0.92186  1.0000
  H   H1        1.0  0.67074  0.86513  0.10416  1.0000
  H   H2        1.0  0.17073  0.13487  0.89584  1.0000
  H   H3        1.0  0.76740  0.96274  0.98506  1.0000
  H   H4        1.0  0.26740  0.03727  0.01494  1.0000
  H   H5        1.0  0.99062  0.17372  0.43321  1.0000
  H   H6        1.0  0.49062  0.82628  0.56679  1.0000
  H   H7        1.0  0.14323  0.10919  0.53541  1.0000
  H   H8        1.0  0.64322  0.89080  0.46458  1.0000
  H   H9        1.0  0.93057  0.10771  0.58068  1.0000
  H   H10       1.0  0.43057  0.89229  0.41932  1.0000
  H   H11       1.0  0.22710  0.33050  0.34117  1.0000
  H   H12       1.0  0.72711  0.66950  0.65882  1.0000
  H   H13       1.0  0.03456  0.99169  0.11740  1.0000
  H   H14       1.0  0.53456  0.00832  0.88261  1.0000
  H   H15       1.0  0.87350  0.09509  0.25192  1.0000
  H   H16       1.0  0.37350  0.90492  0.74808  1.0000
  H   H17       1.0  0.22746  0.42889  0.62001  1.0000
  H   H18       1.0  0.72746  0.57110  0.37999  1.0000
  H   H19       1.0  0.11016  0.72815  0.78237  1.0000
  H   H20       1.0  0.61015  0.27185  0.21764  1.0000
  H   H21       1.0  0.01480  0.93348  0.66746  1.0000
  H   H22       1.0  0.51479  0.06652  0.33254  1.0000
  H   H23       1.0  0.75475  0.62511  0.89336  1.0000
  H   H24       1.0  0.25475  0.37489  0.10664  1.0000
  C   C1        1.0  0.11622  0.57383  0.34346  1.0000
  C   C2        1.0  0.61623  0.42617  0.65654  1.0000
  C   C3        1.0  0.06089  0.75142  0.43664  1.0000
  C   C4        1.0  0.56090  0.24857  0.56336  1.0000
  C   C5        1.0  0.17865  0.46230  0.41354  1.0000
  C   C6        1.0  0.67866  0.53769  0.58645  1.0000
  C   C7        1.0  0.00965  0.88558  0.37802  1.0000
  C   C8        1.0  0.50965  0.11442  0.62198  1.0000
  C   C9        1.0  0.92070  0.96643  0.17015  1.0000
  C   C10       1.0  0.42071  0.03357  0.82985  1.0000
  C   C11       1.0  0.17942  0.51795  0.56895  1.0000
  C   C12       1.0  0.67943  0.48205  0.43105  1.0000
  C   C13       1.0  0.11668  0.68760  0.66084  1.0000
  C   C14       1.0  0.61668  0.31240  0.33915  1.0000
  C   C15       1.0  0.06216  0.80184  0.59471  1.0000
  C   C16       1.0  0.56216  0.19816  0.40529  1.0000
  C   C17       1.0  0.78815  0.88092  0.05139  1.0000
  C   C18       1.0  0.28815  0.11909  0.94861  1.0000
  C   C19       1.0  0.01750  0.07981  0.48599  1.0000
  C   C20       1.0  0.51750  0.92019  0.51401  1.0000
  N   N1        1.0  0.96393  0.83867  0.23791  1.0000
  N   N2        1.0  0.46393  0.16133  0.76209  1.0000
  N   N3        1.0  0.85061  0.26797  0.92163  1.0000
  N   N4        1.0  0.35061  0.73203  0.07837  1.0000
  O   O1        1.0  0.11699  0.50812  0.19337  1.0000
  O   O2        1.0  0.61699  0.49188  0.80663  1.0000
  O   O3        1.0  0.97630  0.36088  0.90490  1.0000
  O   O4        1.0  0.47630  0.63912  0.09510  1.0000
  O   O5        1.0  0.85042  0.70623  0.95347  1.0000
  O   O6        1.0  0.35041  0.29378  0.04653  1.0000
  O   O7        1.0  0.75231  0.34164  0.03087  1.0000
  O   O8        1.0  0.25231  0.65836  0.96913  1.0000
  O   O9        1.0  0.83222  0.11032  0.82833  1.0000
  O   O10       1.0  0.33221  0.88968  0.17167  1.0000
