data_image0
_chemical_formula_structural       Cd4H36C40N12O24
_chemical_formula_sum              "Cd4 H36 C40 N12 O24"
_cell_length_a       10.5434
_cell_length_b       11.1309
_cell_length_c       12.9716
_cell_angle_alpha    67.1403
_cell_angle_beta     66.0212
_cell_angle_gamma    61.7311

_space_group_name_H-M_alt    "P 1"
_space_group_IT_number       1

loop_
  _space_group_symop_operation_xyz
  'x, y, z'

loop_
  _atom_site_type_symbol
  _atom_site_label
  _atom_site_symmetry_multiplicity
  _atom_site_fract_x
  _atom_site_fract_y
  _atom_site_fract_z
  _atom_site_occupancy
  Cd  Cd1       1.0  0.33753  0.91824  0.68934  1.0000
  Cd  Cd2       1.0  0.94520  0.58178  0.81071  1.0000
  Cd  Cd3       1.0  0.66247  0.08176  0.31066  1.0000
  Cd  Cd4       1.0  0.05480  0.41822  0.18929  1.0000
  H   H1        1.0  0.61476  0.22194  0.01617  1.0000
  H   H2        1.0  0.85292  0.27795  0.48399  1.0000
  H   H3        1.0  0.38524  0.77806  0.98383  1.0000
  H   H4        1.0  0.14709  0.72204  0.51601  1.0000
  H   H5        1.0  0.80944  0.01172  0.74005  1.0000
  H   H6        1.0  0.56118  0.48832  0.75999  1.0000
  H   H7        1.0  0.19056  0.98829  0.25995  1.0000
  H   H8        1.0  0.43882  0.51168  0.24001  1.0000
  H   H9        1.0  0.83337  0.24543  0.95934  1.0000
  H   H10       1.0  0.03813  0.25422  0.54114  1.0000
  H   H11       1.0  0.16663  0.75457  0.04066  1.0000
  H   H12       1.0  0.96187  0.74578  0.45886  1.0000
  H   H13       1.0  0.14542  0.14705  0.87729  1.0000
  H   H14       1.0  0.16968  0.35272  0.62317  1.0000
  H   H15       1.0  0.85458  0.85295  0.12271  1.0000
  H   H16       1.0  0.83032  0.64728  0.37683  1.0000
  H   H17       1.0  0.33401  0.15201  0.89832  1.0000
  H   H18       1.0  0.38438  0.34785  0.60176  1.0000
  H   H19       1.0  0.66599  0.84799  0.10168  1.0000
  H   H20       1.0  0.61562  0.65215  0.39824  1.0000
  H   H21       1.0  0.38596  0.15366  0.50608  1.0000
  H   H22       1.0  0.04559  0.34631  0.99383  1.0000
  H   H23       1.0  0.61403  0.84634  0.49392  1.0000
  H   H24       1.0  0.95442  0.65369  0.00617  1.0000
  H   H25       1.0  0.32826  0.08647  0.45369  1.0000
  H   H26       1.0  0.86833  0.41349  0.04625  1.0000
  H   H27       1.0  0.67174  0.91353  0.54631  1.0000
  H   H28       1.0  0.13168  0.58651  0.95376  1.0000
  H   H29       1.0  0.50290  0.68099  0.84755  1.0000
  H   H30       1.0  0.03141  0.81901  0.65237  1.0000
  H   H31       1.0  0.49710  0.31901  0.15245  1.0000
  H   H32       1.0  0.96858  0.18099  0.34763  1.0000
  H   H33       1.0  0.37797  0.63990  0.83796  1.0000
  H   H34       1.0  0.85578  0.86011  0.66205  1.0000
  H   H35       1.0  0.62203  0.36010  0.16204  1.0000
  H   H36       1.0  0.14422  0.13989  0.33795  1.0000
  C   C1        1.0  0.60186  0.18208  0.95810  1.0000
  C   C2        1.0  0.74209  0.31778  0.54208  1.0000
  C   C3        1.0  0.39814  0.81792  0.04190  1.0000
  C   C4        1.0  0.25791  0.68222  0.45792  1.0000
  C   C5        1.0  0.72540  0.11429  0.87764  1.0000
  C   C6        1.0  0.71736  0.38557  0.62253  1.0000
  C   C7        1.0  0.27460  0.88571  0.12236  1.0000
  C   C8        1.0  0.28264  0.61443  0.37747  1.0000
  C   C9        1.0  0.71087  0.06128  0.80348  1.0000
  C   C10       1.0  0.57561  0.43868  0.69661  1.0000
  C   C11       1.0  0.28912  0.93873  0.19652  1.0000
  C   C12       1.0  0.42439  0.56132  0.30339  1.0000
  C   C13       1.0  0.91170  0.16913  0.90826  1.0000
  C   C14       1.0  0.98906  0.33063  0.59211  1.0000
  C   C15       1.0  0.08830  0.83087  0.09174  1.0000
  C   C16       1.0  0.01094  0.66937  0.40789  1.0000
  C   C17       1.0  0.55384  0.01244  0.73411  1.0000
  C   C18       1.0  0.30043  0.48760  0.76598  1.0000
  C   C19       1.0  0.44616  0.98756  0.26590  1.0000
  C   C20       1.0  0.69957  0.51240  0.23402  1.0000
  C   C21       1.0  0.45944  0.19733  0.96433  1.0000
  C   C22       1.0  0.62118  0.30254  0.53582  1.0000
  C   C23       1.0  0.54057  0.80267  0.03567  1.0000
  C   C24       1.0  0.37882  0.69746  0.46418  1.0000
  C   C25       1.0  0.32489  0.27286  0.04881  1.0000
  C   C26       1.0  0.64670  0.22716  0.45121  1.0000
  C   C27       1.0  0.67511  0.72714  0.95119  1.0000
  C   C28       1.0  0.35330  0.77284  0.54879  1.0000
  C   C29       1.0  0.06551  0.11967  0.86815  1.0000
  C   C30       1.0  0.05328  0.38015  0.63220  1.0000
  C   C31       1.0  0.93449  0.88033  0.13185  1.0000
  C   C32       1.0  0.94672  0.61984  0.36780  1.0000
  C   C33       1.0  0.56981  0.07322  0.81167  1.0000
  C   C34       1.0  0.45471  0.42670  0.68842  1.0000
  C   C35       1.0  0.43019  0.92678  0.18833  1.0000
  C   C36       1.0  0.54529  0.57330  0.31158  1.0000
  C   C37       1.0  0.44432  0.14179  0.89212  1.0000
  C   C38       1.0  0.47822  0.35808  0.60800  1.0000
  C   C39       1.0  0.55568  0.85821  0.10788  1.0000
  C   C40       1.0  0.52178  0.64192  0.39199  1.0000
  N   N1        1.0  0.87097  0.10027  0.86757  1.0000
  N   N2        1.0  0.83878  0.39964  0.63264  1.0000
  N   N3        1.0  0.12903  0.89973  0.13242  1.0000
  N   N4        1.0  0.16122  0.60036  0.36736  1.0000
  N   N5        1.0  0.99158  0.01202  0.80605  1.0000
  N   N6        1.0  0.80959  0.48804  0.69405  1.0000
  N   N7        1.0  0.00842  0.98798  0.19395  1.0000
  N   N8        1.0  0.19041  0.51196  0.30596  1.0000
  N   N9        1.0  0.10874  0.02457  0.80702  1.0000
  N   N10       1.0  0.94026  0.47542  0.69315  1.0000
  N   N11       1.0  0.89126  0.97543  0.19298  1.0000
  N   N12       1.0  0.05974  0.52457  0.30685  1.0000
  O   O1        1.0  0.31317  0.11071  0.52576  1.0000
  O   O2        1.0  0.94952  0.38916  0.97418  1.0000
  O   O3        1.0  0.68683  0.88929  0.47424  1.0000
  O   O4        1.0  0.05048  0.61084  0.02582  1.0000
  O   O5        1.0  0.40091  0.71631  0.83969  1.0000
  O   O6        1.0  0.95687  0.78369  0.66026  1.0000
  O   O7        1.0  0.59909  0.28369  0.16031  1.0000
  O   O8        1.0  0.04312  0.21631  0.33974  1.0000
  O   O9        1.0  0.19620  0.28080  0.05507  1.0000
  O   O10       1.0  0.53216  0.21945  0.44479  1.0000
  O   O11       1.0  0.80380  0.71920  0.94494  1.0000
  O   O12       1.0  0.46785  0.78055  0.55521  1.0000
  O   O13       1.0  0.67039  0.95297  0.66095  1.0000
  O   O14       1.0  0.28444  0.54703  0.83913  1.0000
  O   O15       1.0  0.32960  0.04703  0.33904  1.0000
  O   O16       1.0  0.71556  0.45297  0.16087  1.0000
  O   O17       1.0  0.42118  0.02623  0.74845  1.0000
  O   O18       1.0  0.19587  0.47388  0.75165  1.0000
  O   O19       1.0  0.57882  0.97377  0.25155  1.0000
  O   O20       1.0  0.80413  0.52612  0.24835  1.0000
  O   O21       1.0  0.33921  0.32588  0.11230  1.0000
  O   O22       1.0  0.77755  0.17405  0.38776  1.0000
  O   O23       1.0  0.66079  0.67411  0.88770  1.0000
  O   O24       1.0  0.22245  0.82595  0.61224  1.0000
