data_image0
_chemical_formula_structural       Cu2H32C50S2N8O10
_chemical_formula_sum              "Cu2 H32 C50 S2 N8 O10"
_cell_length_a       8.87937
_cell_length_b       10.7527
_cell_length_c       13.3612
_cell_angle_alpha    75.8471
_cell_angle_beta     85.705
_cell_angle_gamma    66.3359

_space_group_name_H-M_alt    "P 1"
_space_group_IT_number       1

loop_
  _space_group_symop_operation_xyz
  'x, y, z'

loop_
  _atom_site_type_symbol
  _atom_site_label
  _atom_site_symmetry_multiplicity
  _atom_site_fract_x
  _atom_site_fract_y
  _atom_site_fract_z
  _atom_site_occupancy
  Cu  Cu1       1.0  0.49079  0.36011  0.19622  1.0000
  Cu  Cu2       1.0  0.50921  0.63988  0.80378  1.0000
  H   H1        1.0  0.21384  0.55957  0.51137  1.0000
  H   H2        1.0  0.78617  0.44043  0.48863  1.0000
  H   H3        1.0  0.16407  0.37037  0.64445  1.0000
  H   H4        1.0  0.83593  0.62963  0.35555  1.0000
  H   H5        1.0  0.16825  0.16255  0.59184  1.0000
  H   H6        1.0  0.83174  0.83746  0.40816  1.0000
  H   H7        1.0  0.23420  0.13723  0.41185  1.0000
  H   H8        1.0  0.76579  0.86278  0.58815  1.0000
  H   H9        1.0  0.57766  0.21399  0.87718  1.0000
  H   H10       1.0  0.42234  0.78602  0.12282  1.0000
  H   H11       1.0  0.49664  0.14171  0.73281  1.0000
  H   H12       1.0  0.50336  0.85830  0.26719  1.0000
  H   H13       1.0  0.26447  0.06661  0.75115  1.0000
  H   H14       1.0  0.73554  0.93339  0.24885  1.0000
  H   H15       1.0  0.10653  0.05998  0.91368  1.0000
  H   H16       1.0  0.89347  0.94002  0.08632  1.0000
  H   H17       1.0  0.54255  0.29565  0.44183  1.0000
  H   H18       1.0  0.45745  0.70434  0.55817  1.0000
  H   H19       1.0  0.76202  0.14812  0.57109  1.0000
  H   H20       1.0  0.23798  0.85187  0.42891  1.0000
  H   H21       1.0  0.05664  0.97566  0.32533  1.0000
  H   H22       1.0  0.94336  0.02433  0.67468  1.0000
  H   H23       1.0  0.82546  0.13158  0.20709  1.0000
  H   H24       1.0  0.17454  0.86841  0.79291  1.0000
  H   H25       1.0  0.70858  0.48580  0.24502  1.0000
  H   H26       1.0  0.29142  0.51420  0.75499  1.0000
  H   H27       1.0  0.94063  0.54534  0.16840  1.0000
  H   H28       1.0  0.05937  0.45466  0.83160  1.0000
  H   H29       1.0  0.87748  0.40780  0.89998  1.0000
  H   H30       1.0  0.12252  0.59221  0.10002  1.0000
  H   H31       1.0  0.65173  0.35557  0.98844  1.0000
  H   H32       1.0  0.34827  0.64443  0.01156  1.0000
  C   C1        1.0  0.24907  0.45441  0.38933  1.0000
  C   C2        1.0  0.75093  0.54559  0.61066  1.0000
  C   C3        1.0  0.21930  0.46535  0.49165  1.0000
  C   C4        1.0  0.78070  0.53465  0.50834  1.0000
  C   C5        1.0  0.19177  0.36024  0.56530  1.0000
  C   C6        1.0  0.80823  0.63977  0.43470  1.0000
  C   C7        1.0  0.19382  0.24357  0.53578  1.0000
  C   C8        1.0  0.80618  0.75644  0.46421  1.0000
  C   C9        1.0  0.22790  0.22965  0.43479  1.0000
  C   C10       1.0  0.77210  0.77035  0.56521  1.0000
  C   C11       1.0  0.25685  0.33420  0.36003  1.0000
  C   C12       1.0  0.74315  0.66581  0.63998  1.0000
  C   C13       1.0  0.27261  0.20587  0.13750  1.0000
  C   C14       1.0  0.72738  0.79412  0.86250  1.0000
  C   C15       1.0  0.40136  0.21923  0.06906  1.0000
  C   C16       1.0  0.59863  0.78078  0.93094  1.0000
  C   C17       1.0  0.38735  0.17567  0.97528  1.0000
  C   C18       1.0  0.61265  0.82433  0.02472  1.0000
  C   C19       1.0  0.47709  0.17895  0.88558  1.0000
  C   C20       1.0  0.52291  0.82105  0.11443  1.0000
  C   C21       1.0  0.43046  0.13867  0.80488  1.0000
  C   C22       1.0  0.56954  0.86133  0.19512  1.0000
  C   C23       1.0  0.29880  0.09638  0.81542  1.0000
  C   C24       1.0  0.70120  0.90362  0.18458  1.0000
  C   C25       1.0  0.20958  0.09206  0.90649  1.0000
  C   C26       1.0  0.79042  0.90794  0.09351  1.0000
  C   C27       1.0  0.25572  0.13230  0.98637  1.0000
  C   C28       1.0  0.74428  0.86770  0.01363  1.0000
  C   C29       1.0  0.18382  0.14177  0.09078  1.0000
  C   C30       1.0  0.81617  0.85824  0.90922  1.0000
  C   C31       1.0  0.65734  0.22137  0.41918  1.0000
  C   C32       1.0  0.34266  0.77862  0.58082  1.0000
  C   C33       1.0  0.78212  0.13658  0.49215  1.0000
  C   C34       1.0  0.21789  0.86342  0.50785  1.0000
  C   C35       1.0  0.93192  0.04462  0.46200  1.0000
  C   C36       1.0  0.06808  0.95538  0.53800  1.0000
  C   C37       1.0  0.94582  0.04287  0.35685  1.0000
  C   C38       1.0  0.05418  0.95712  0.64316  1.0000
  C   C39       1.0  0.81419  0.13043  0.28897  1.0000
  C   C40       1.0  0.18582  0.86955  0.71104  1.0000
  C   C41       1.0  0.75178  0.46989  0.16885  1.0000
  C   C42       1.0  0.24822  0.53011  0.83115  1.0000
  C   C43       1.0  0.88133  0.50323  0.12483  1.0000
  C   C44       1.0  0.11867  0.49677  0.87517  1.0000
  C   C45       1.0  0.93180  0.48301  0.02553  1.0000
  C   C46       1.0  0.06820  0.51700  0.97446  1.0000
  C   C47       1.0  0.84660  0.42887  0.97624  1.0000
  C   C48       1.0  0.15339  0.57113  0.02376  1.0000
  C   C49       1.0  0.71837  0.39832  0.02549  1.0000
  C   C50       1.0  0.28163  0.60168  0.97452  1.0000
  S   S1        1.0  0.25178  0.60409  0.29581  1.0000
  S   S2        1.0  0.74822  0.39592  0.70419  1.0000
  N   N1        1.0  0.30009  0.31530  0.25856  1.0000
  N   N2        1.0  0.69991  0.68471  0.74144  1.0000
  N   N3        1.0  0.23329  0.24460  0.22646  1.0000
  N   N4        1.0  0.76670  0.75540  0.77354  1.0000
  N   N5        1.0  0.67113  0.21885  0.31858  1.0000
  N   N6        1.0  0.32887  0.78114  0.68142  1.0000
  N   N7        1.0  0.67091  0.41780  0.12038  1.0000
  N   N8        1.0  0.32910  0.58220  0.87963  1.0000
  O   O1        1.0  0.50985  0.26036  0.08442  1.0000
  O   O2        1.0  0.49014  0.73965  0.91558  1.0000
  O   O3        1.0  0.07508  0.10225  0.12821  1.0000
  O   O4        1.0  0.92490  0.89776  0.87178  1.0000
  O   O5        1.0  0.26892  0.69856  0.35127  1.0000
  O   O6        1.0  0.73110  0.30144  0.64873  1.0000
  O   O7        1.0  0.09805  0.65836  0.23595  1.0000
  O   O8        1.0  0.90196  0.34165  0.76404  1.0000
  O   O9        1.0  0.40082  0.55014  0.23310  1.0000
  O   O10       1.0  0.59918  0.44985  0.76690  1.0000
