data_image0
_chemical_formula_structural       Cd8H32C48N8Cl8O16
_chemical_formula_sum              "Cd8 H32 C48 N8 Cl8 O16"
_cell_length_a       9.92731
_cell_length_b       9.9273
_cell_length_c       15.8113
_cell_angle_alpha    89.9999
_cell_angle_beta     89.9999
_cell_angle_gamma    90

_space_group_name_H-M_alt    "P 1"
_space_group_IT_number       1

loop_
  _space_group_symop_operation_xyz
  'x, y, z'

loop_
  _atom_site_type_symbol
  _atom_site_label
  _atom_site_symmetry_multiplicity
  _atom_site_fract_x
  _atom_site_fract_y
  _atom_site_fract_z
  _atom_site_occupancy
  Cd  Cd1       1.0  0.56771  0.25785  0.21976  1.0000
  Cd  Cd2       1.0  0.74215  0.06771  0.71976  1.0000
  Cd  Cd3       1.0  0.75784  0.43229  0.71976  1.0000
  Cd  Cd4       1.0  0.93229  0.24216  0.21976  1.0000
  Cd  Cd5       1.0  0.43229  0.74216  0.78024  1.0000
  Cd  Cd6       1.0  0.25784  0.93229  0.28024  1.0000
  Cd  Cd7       1.0  0.24215  0.56771  0.28024  1.0000
  Cd  Cd8       1.0  0.06771  0.75784  0.78024  1.0000
  H   H1        1.0  0.28315  0.46720  0.97029  1.0000
  H   H2        1.0  0.53280  0.78315  0.47029  1.0000
  H   H3        1.0  0.96720  0.71685  0.47029  1.0000
  H   H4        1.0  0.21685  0.03280  0.97029  1.0000
  H   H5        1.0  0.71685  0.53280  0.02971  1.0000
  H   H6        1.0  0.46720  0.21685  0.52971  1.0000
  H   H7        1.0  0.03280  0.28315  0.52971  1.0000
  H   H8        1.0  0.78315  0.96720  0.02971  1.0000
  H   H9        1.0  0.38352  0.33640  0.84976  1.0000
  H   H10       1.0  0.66360  0.88352  0.34976  1.0000
  H   H11       1.0  0.83640  0.61648  0.34976  1.0000
  H   H12       1.0  0.11648  0.16360  0.84976  1.0000
  H   H13       1.0  0.61648  0.66360  0.15023  1.0000
  H   H14       1.0  0.33640  0.11648  0.65024  1.0000
  H   H15       1.0  0.16360  0.38352  0.65023  1.0000
  H   H16       1.0  0.88352  0.83640  0.15024  1.0000
  H   H17       1.0  0.55373  0.15524  0.88310  1.0000
  H   H18       1.0  0.84476  0.05374  0.38310  1.0000
  H   H19       1.0  0.65524  0.44627  0.38311  1.0000
  H   H20       1.0  0.94627  0.34475  0.88310  1.0000
  H   H21       1.0  0.44627  0.84476  0.11690  1.0000
  H   H22       1.0  0.15524  0.94626  0.61690  1.0000
  H   H23       1.0  0.34476  0.55373  0.61690  1.0000
  H   H24       1.0  0.05373  0.65524  0.11690  1.0000
  H   H25       1.0  0.61834  0.11743  0.03411  1.0000
  H   H26       1.0  0.88257  0.11834  0.53411  1.0000
  H   H27       1.0  0.61743  0.38166  0.53411  1.0000
  H   H28       1.0  0.88166  0.38257  0.03411  1.0000
  H   H29       1.0  0.38166  0.88257  0.96589  1.0000
  H   H30       1.0  0.11743  0.88166  0.46589  1.0000
  H   H31       1.0  0.38257  0.61834  0.46589  1.0000
  H   H32       1.0  0.11834  0.61743  0.96589  1.0000
  C   C1        1.0  0.39878  0.36083  0.06376  1.0000
  C   C2        1.0  0.63917  0.89878  0.56376  1.0000
  C   C3        1.0  0.86083  0.60122  0.56376  1.0000
  C   C4        1.0  0.10122  0.13917  0.06376  1.0000
  C   C5        1.0  0.60122  0.63917  0.93624  1.0000
  C   C6        1.0  0.36083  0.10122  0.43624  1.0000
  C   C7        1.0  0.13917  0.39878  0.43624  1.0000
  C   C8        1.0  0.89878  0.86083  0.93624  1.0000
  C   C9        1.0  0.35737  0.38864  0.98138  1.0000
  C   C10       1.0  0.61136  0.85737  0.48138  1.0000
  C   C11       1.0  0.88864  0.64263  0.48138  1.0000
  C   C12       1.0  0.14264  0.11136  0.98138  1.0000
  C   C13       1.0  0.64263  0.61136  0.01862  1.0000
  C   C14       1.0  0.38864  0.14263  0.51862  1.0000
  C   C15       1.0  0.11136  0.35737  0.51862  1.0000
  C   C16       1.0  0.85737  0.88864  0.01862  1.0000
  C   C17       1.0  0.41303  0.31513  0.91481  1.0000
  C   C18       1.0  0.68487  0.91303  0.41481  1.0000
  C   C19       1.0  0.81513  0.58697  0.41481  1.0000
  C   C20       1.0  0.08697  0.18487  0.91481  1.0000
  C   C21       1.0  0.58697  0.68487  0.08519  1.0000
  C   C22       1.0  0.31513  0.08696  0.58519  1.0000
  C   C23       1.0  0.18487  0.41303  0.58519  1.0000
  C   C24       1.0  0.91303  0.81513  0.08519  1.0000
  C   C25       1.0  0.50725  0.21507  0.93272  1.0000
  C   C26       1.0  0.78493  0.00726  0.43272  1.0000
  C   C27       1.0  0.71507  0.49274  0.43273  1.0000
  C   C28       1.0  0.99274  0.28493  0.93272  1.0000
  C   C29       1.0  0.49274  0.78493  0.06728  1.0000
  C   C30       1.0  0.21506  0.99274  0.56728  1.0000
  C   C31       1.0  0.28493  0.50726  0.56727  1.0000
  C   C32       1.0  0.00725  0.71507  0.06727  1.0000
  C   C33       1.0  0.54409  0.19352  0.01677  1.0000
  C   C34       1.0  0.80648  0.04409  0.51677  1.0000
  C   C35       1.0  0.69352  0.45591  0.51677  1.0000
  C   C36       1.0  0.95591  0.30648  0.01677  1.0000
  C   C37       1.0  0.45591  0.80648  0.98323  1.0000
  C   C38       1.0  0.19352  0.95591  0.48323  1.0000
  C   C39       1.0  0.30648  0.54409  0.48323  1.0000
  C   C40       1.0  0.04409  0.69352  0.98323  1.0000
  C   C41       1.0  0.34254  0.43709  0.13803  1.0000
  C   C42       1.0  0.56291  0.84254  0.63803  1.0000
  C   C43       1.0  0.93709  0.65746  0.63803  1.0000
  C   C44       1.0  0.15746  0.06291  0.13803  1.0000
  C   C45       1.0  0.65746  0.56291  0.86197  1.0000
  C   C46       1.0  0.43709  0.15746  0.36197  1.0000
  C   C47       1.0  0.06291  0.34254  0.36197  1.0000
  C   C48       1.0  0.84254  0.93709  0.86197  1.0000
  N   N1        1.0  0.49164  0.26514  0.08062  1.0000
  N   N2        1.0  0.73486  0.99164  0.58062  1.0000
  N   N3        1.0  0.76514  0.50836  0.58062  1.0000
  N   N4        1.0  0.00836  0.23486  0.08062  1.0000
  N   N5        1.0  0.50836  0.73486  0.91938  1.0000
  N   N6        1.0  0.26514  0.00836  0.41938  1.0000
  N   N7        1.0  0.23486  0.49164  0.41938  1.0000
  N   N8        1.0  0.99164  0.76514  0.91938  1.0000
  Cl  Cl1       1.0  0.74166  0.06502  0.20723  1.0000
  Cl  Cl2       1.0  0.93498  0.24166  0.70723  1.0000
  Cl  Cl3       1.0  0.56502  0.25834  0.70723  1.0000
  Cl  Cl4       1.0  0.75834  0.43498  0.20723  1.0000
  Cl  Cl5       1.0  0.25834  0.93498  0.79277  1.0000
  Cl  Cl6       1.0  0.06502  0.75834  0.29277  1.0000
  Cl  Cl7       1.0  0.43498  0.74166  0.29277  1.0000
  Cl  Cl8       1.0  0.24166  0.56502  0.79277  1.0000
  O   O1        1.0  0.24877  0.52096  0.12672  1.0000
  O   O2        1.0  0.47904  0.74876  0.62672  1.0000
  O   O3        1.0  0.02096  0.75123  0.62672  1.0000
  O   O4        1.0  0.25124  0.97904  0.12672  1.0000
  O   O5        1.0  0.75124  0.47904  0.87328  1.0000
  O   O6        1.0  0.52096  0.25124  0.37328  1.0000
  O   O7        1.0  0.97904  0.24876  0.37328  1.0000
  O   O8        1.0  0.74876  0.02096  0.87328  1.0000
  O   O9        1.0  0.39254  0.41347  0.21165  1.0000
  O   O10       1.0  0.58653  0.89254  0.71165  1.0000
  O   O11       1.0  0.91347  0.60746  0.71165  1.0000
  O   O12       1.0  0.10746  0.08653  0.21165  1.0000
  O   O13       1.0  0.60746  0.58653  0.78835  1.0000
  O   O14       1.0  0.41347  0.10746  0.28835  1.0000
  O   O15       1.0  0.08653  0.39254  0.28835  1.0000
  O   O16       1.0  0.89254  0.91347  0.78835  1.0000
