data_image0
_chemical_formula_structural       Zn12H24C24O48
_chemical_formula_sum              "Zn12 H24 C24 O48"
_cell_length_a       7.70109
_cell_length_b       12.6088
_cell_length_c       13.6697
_cell_angle_alpha    90
_cell_angle_beta     90
_cell_angle_gamma    101.368

_space_group_name_H-M_alt    "P 1"
_space_group_IT_number       1

loop_
  _space_group_symop_operation_xyz
  'x, y, z'

loop_
  _atom_site_type_symbol
  _atom_site_label
  _atom_site_symmetry_multiplicity
  _atom_site_fract_x
  _atom_site_fract_y
  _atom_site_fract_z
  _atom_site_occupancy
  Zn  Zn1       1.0  0.49958  0.10325  0.51167  1.0000
  Zn  Zn2       1.0  0.50042  0.89675  0.01167  1.0000
  Zn  Zn3       1.0  0.80196  0.99846  0.61691  1.0000
  Zn  Zn4       1.0  0.19804  0.00154  0.11691  1.0000
  Zn  Zn5       1.0  0.09375  0.92460  0.49566  1.0000
  Zn  Zn6       1.0  0.90625  0.07540  0.99566  1.0000
  Zn  Zn7       1.0  0.26948  0.42577  0.26229  1.0000
  Zn  Zn8       1.0  0.73052  0.57423  0.76229  1.0000
  Zn  Zn9       1.0  0.63110  0.52332  0.37670  1.0000
  Zn  Zn10      1.0  0.36890  0.47668  0.87670  1.0000
  Zn  Zn11      1.0  0.01603  0.41505  0.74543  1.0000
  Zn  Zn12      1.0  0.98397  0.58495  0.24543  1.0000
  H   H1        1.0  0.67548  0.29229  0.63683  1.0000
  H   H2        1.0  0.32452  0.70771  0.13683  1.0000
  H   H3        1.0  0.47774  0.79548  0.62566  1.0000
  H   H4        1.0  0.52226  0.20452  0.12566  1.0000
  H   H5        1.0  0.26285  0.24858  0.42089  1.0000
  H   H6        1.0  0.73715  0.75142  0.92089  1.0000
  H   H7        1.0  0.87921  0.04508  0.32013  1.0000
  H   H8        1.0  0.12079  0.95492  0.82013  1.0000
  H   H9        1.0  0.42608  0.09153  0.29771  1.0000
  H   H10       1.0  0.57392  0.90847  0.79771  1.0000
  H   H11       1.0  0.95589  0.71106  0.63093  1.0000
  H   H12       1.0  0.04411  0.28894  0.13093  1.0000
  H   H13       1.0  0.14150  0.15691  0.71142  1.0000
  H   H14       1.0  0.85850  0.84309  0.21142  1.0000
  H   H15       1.0  0.25721  0.70522  0.41326  1.0000
  H   H16       1.0  0.74279  0.29478  0.91326  1.0000
  H   H17       1.0  0.05486  0.53900  0.02053  1.0000
  H   H18       1.0  0.94514  0.46100  0.52053  1.0000
  H   H19       1.0  0.54094  0.49615  0.08258  1.0000
  H   H20       1.0  0.45906  0.50385  0.58258  1.0000
  H   H21       1.0  0.78743  0.29797  0.38282  1.0000
  H   H22       1.0  0.21257  0.70203  0.88282  1.0000
  H   H23       1.0  0.75911  0.77103  0.42953  1.0000
  H   H24       1.0  0.24089  0.22897  0.92953  1.0000
  C   C1        1.0  0.77242  0.23845  0.64155  1.0000
  C   C2        1.0  0.22758  0.76155  0.14155  1.0000
  C   C3        1.0  0.42135  0.86012  0.59028  1.0000
  C   C4        1.0  0.57865  0.13988  0.09028  1.0000
  C   C5        1.0  0.39741  0.29913  0.42527  1.0000
  C   C6        1.0  0.60259  0.70087  0.92527  1.0000
  C   C7        1.0  0.80593  0.04349  0.39004  1.0000
  C   C8        1.0  0.19407  0.95651  0.89004  1.0000
  C   C9        1.0  0.30177  0.04114  0.32468  1.0000
  C   C10       1.0  0.69823  0.95886  0.82468  1.0000
  C   C11       1.0  0.84961  0.75752  0.64085  1.0000
  C   C12       1.0  0.15039  0.24248  0.14085  1.0000
  C   C13       1.0  0.19595  0.11537  0.65111  1.0000
  C   C14       1.0  0.80405  0.88463  0.15111  1.0000
  C   C15       1.0  0.31518  0.63670  0.38752  1.0000
  C   C16       1.0  0.68482  0.36330  0.88752  1.0000
  C   C17       1.0  0.14967  0.50046  0.06154  1.0000
  C   C18       1.0  0.85033  0.49954  0.56154  1.0000
  C   C19       1.0  0.62008  0.52010  0.14905  1.0000
  C   C20       1.0  0.37993  0.47990  0.64905  1.0000
  C   C21       1.0  0.88893  0.35850  0.34527  1.0000
  C   C22       1.0  0.11107  0.64150  0.84527  1.0000
  C   C23       1.0  0.87067  0.74548  0.39164  1.0000
  C   C24       1.0  0.12933  0.25452  0.89164  1.0000
  O   O1        1.0  0.72643  0.14625  0.59958  1.0000
  O   O2        1.0  0.27357  0.85375  0.09958  1.0000
  O   O3        1.0  0.91688  0.26756  0.68506  1.0000
  O   O4        1.0  0.08312  0.73244  0.18506  1.0000
  O   O5        1.0  0.52745  0.95163  0.57941  1.0000
  O   O6        1.0  0.47255  0.04837  0.07941  1.0000
  O   O7        1.0  0.26167  0.83805  0.56442  1.0000
  O   O8        1.0  0.73834  0.16195  0.06442  1.0000
  O   O9        1.0  0.52176  0.26368  0.46444  1.0000
  O   O10       1.0  0.47824  0.73632  0.96444  1.0000
  O   O11       1.0  0.41464  0.39395  0.38792  1.0000
  O   O12       1.0  0.58536  0.60605  0.88792  1.0000
  O   O13       1.0  0.67268  0.08739  0.39215  1.0000
  O   O14       1.0  0.32732  0.91261  0.89215  1.0000
  O   O15       1.0  0.86529  0.99645  0.46191  1.0000
  O   O16       1.0  0.13471  0.00355  0.96190  1.0000
  O   O17       1.0  0.28874  0.03110  0.41854  1.0000
  O   O18       1.0  0.71126  0.96890  0.91854  1.0000
  O   O19       1.0  0.18327  0.99720  0.26669  1.0000
  O   O20       1.0  0.81673  0.00280  0.76669  1.0000
  O   O21       1.0  0.87388  0.84862  0.59720  1.0000
  O   O22       1.0  0.12612  0.15138  0.09720  1.0000
  O   O23       1.0  0.71580  0.71916  0.69229  1.0000
  O   O24       1.0  0.28420  0.28084  0.19229  1.0000
  O   O25       1.0  0.08588  0.04042  0.60804  1.0000
  O   O26       1.0  0.91412  0.95958  0.10804  1.0000
  O   O27       1.0  0.35673  0.14515  0.62988  1.0000
  O   O28       1.0  0.64327  0.85485  0.12988  1.0000
  O   O29       1.0  0.21921  0.57091  0.32803  1.0000
  O   O30       1.0  0.78079  0.42909  0.82803  1.0000
  O   O31       1.0  0.46622  0.62952  0.41841  1.0000
  O   O32       1.0  0.53378  0.37048  0.91841  1.0000
  O   O33       1.0  0.12359  0.49133  0.15414  1.0000
  O   O34       1.0  0.87641  0.50867  0.65414  1.0000
  O   O35       1.0  0.27258  0.46702  0.01880  1.0000
  O   O36       1.0  0.72742  0.53298  0.51880  1.0000
  O   O37       1.0  0.53337  0.50805  0.23032  1.0000
  O   O38       1.0  0.46663  0.49195  0.73032  1.0000
  O   O39       1.0  0.78308  0.55602  0.13972  1.0000
  O   O40       1.0  0.21692  0.44398  0.63972  1.0000
  O   O41       1.0  0.84478  0.44923  0.32510  1.0000
  O   O42       1.0  0.15522  0.55077  0.82510  1.0000
  O   O43       1.0  0.03533  0.33376  0.32596  1.0000
  O   O44       1.0  0.96466  0.66624  0.82596  1.0000
  O   O45       1.0  0.83124  0.65901  0.34046  1.0000
  O   O46       1.0  0.16876  0.34099  0.84046  1.0000
  O   O47       1.0  0.02555  0.79973  0.39983  1.0000
  O   O48       1.0  0.97445  0.20027  0.89983  1.0000
