data_image0
_chemical_formula_structural       Fe2Ag4H16C36N12
_chemical_formula_sum              "Fe2 Ag4 H16 C36 N12"
_cell_length_a       10.231
_cell_length_b       10.231
_cell_length_c       10.231
_cell_angle_alpha    67.9364
_cell_angle_beta     75.5978
_cell_angle_gamma    112.064

_space_group_name_H-M_alt    "P 1"
_space_group_IT_number       1

loop_
  _space_group_symop_operation_xyz
  'x, y, z'

loop_
  _atom_site_type_symbol
  _atom_site_label
  _atom_site_symmetry_multiplicity
  _atom_site_fract_x
  _atom_site_fract_y
  _atom_site_fract_z
  _atom_site_occupancy
  Fe  Fe1       1.0  0.00000  1.00000  1.00000  1.0000
  Fe  Fe2       1.0  0.25000  0.50000  0.25000  1.0000
  Ag  Ag1       1.0  0.52547  0.50000  0.52547  1.0000
  Ag  Ag2       1.0  0.97453  0.50000  0.97453  1.0000
  Ag  Ag3       1.0  0.27546  0.55091  0.72454  1.0000
  Ag  Ag4       1.0  0.72454  0.44908  0.27546  1.0000
  H   H1        1.0  0.00572  0.25638  0.73681  1.0000
  H   H2        1.0  0.00681  0.74362  0.25066  1.0000
  H   H3        1.0  0.24321  0.24254  0.51317  1.0000
  H   H4        1.0  0.24429  0.75747  0.99933  1.0000
  H   H5        1.0  0.25066  0.25638  0.00681  1.0000
  H   H6        1.0  0.73681  0.74362  0.00572  1.0000
  H   H7        1.0  0.99933  0.24253  0.24429  1.0000
  H   H8        1.0  0.51318  0.75747  0.24320  1.0000
  H   H9        1.0  0.85824  0.26769  0.57889  1.0000
  H   H10       1.0  0.15341  0.73231  0.40946  1.0000
  H   H11       1.0  0.09661  0.93714  0.67109  1.0000
  H   H12       1.0  0.39178  0.06287  0.84053  1.0000
  H   H13       1.0  0.40946  0.26769  0.15341  1.0000
  H   H14       1.0  0.57889  0.73230  0.85824  1.0000
  H   H15       1.0  0.84053  0.93714  0.39178  1.0000
  H   H16       1.0  0.67109  0.06287  0.09660  1.0000
  C   C1        1.0  0.90987  0.14314  0.76078  1.0000
  C   C2        1.0  0.09607  0.85686  0.23327  1.0000
  C   C3        1.0  0.15393  0.17065  0.48921  1.0000
  C   C4        1.0  0.34014  0.82936  0.01671  1.0000
  C   C5        1.0  0.23327  0.14314  0.09608  1.0000
  C   C6        1.0  0.76078  0.85686  0.90987  1.0000
  C   C7        1.0  0.01672  0.17065  0.34014  1.0000
  C   C8        1.0  0.48921  0.82936  0.15393  1.0000
  C   C9        1.0  0.82684  0.14878  0.67291  1.0000
  C   C10       1.0  0.17830  0.85121  0.32194  1.0000
  C   C11       1.0  0.07171  0.99976  0.57708  1.0000
  C   C12       1.0  0.42316  0.00024  0.92805  1.0000
  C   C13       1.0  0.32194  0.14878  0.17831  1.0000
  C   C14       1.0  0.67291  0.85121  0.82684  1.0000
  C   C15       1.0  0.92805  0.99976  0.42316  1.0000
  C   C16       1.0  0.57708  0.00024  0.07170  1.0000
  C   C17       1.0  0.70453  1.00000  0.70453  1.0000
  C   C18       1.0  0.29547  0.00000  0.29547  1.0000
  C   C19       1.0  0.95453  0.90906  0.54547  1.0000
  C   C20       1.0  0.54547  0.09095  0.95453  1.0000
  C   C21       1.0  0.61751  1.00000  0.61751  1.0000
  C   C22       1.0  0.38249  1.00000  0.38249  1.0000
  C   C23       1.0  0.86751  0.73503  0.63249  1.0000
  C   C24       1.0  0.63249  0.26498  0.86751  1.0000
  C   C25       1.0  0.54157  1.00000  0.54157  1.0000
  C   C26       1.0  0.45843  1.00000  0.45843  1.0000
  C   C27       1.0  0.79157  0.58314  0.70843  1.0000
  C   C28       1.0  0.70844  0.41687  0.79157  1.0000
  C   C29       1.0  0.32394  0.27978  0.71461  1.0000
  C   C30       1.0  0.00561  0.72022  0.95585  1.0000
  C   C31       1.0  0.24437  0.53853  0.53540  1.0000
  C   C32       1.0  0.92607  0.46147  0.29416  1.0000
  C   C33       1.0  0.95584  0.27978  0.00561  1.0000
  C   C34       1.0  0.71461  0.72022  0.32393  1.0000
  C   C35       1.0  0.29415  0.53853  0.92607  1.0000
  C   C36       1.0  0.53540  0.46147  0.24437  1.0000
  N   N1        1.0  0.87836  1.00000  0.87835  1.0000
  N   N2        1.0  0.12164  1.00000  0.12164  1.0000
  N   N3        1.0  0.12836  0.25671  0.37164  1.0000
  N   N4        1.0  0.37164  0.74329  0.12836  1.0000
  N   N5        1.0  0.19703  0.16862  0.81532  1.0000
  N   N6        1.0  0.01605  0.83138  0.97160  1.0000
  N   N7        1.0  0.23394  0.51234  0.43468  1.0000
  N   N8        1.0  0.05297  0.48766  0.27840  1.0000
  N   N9        1.0  0.97160  0.16862  0.01605  1.0000
  N   N10       1.0  0.81532  0.83138  0.19703  1.0000
  N   N11       1.0  0.27840  0.51234  0.05297  1.0000
  N   N12       1.0  0.43468  0.48766  0.23394  1.0000
