data_image0
_chemical_formula_structural       Fe2H48Pd2C76N12
_chemical_formula_sum              "Fe2 H48 Pd2 C76 N12"
_cell_length_a       7.19249
_cell_length_b       13.7519
_cell_length_c       16.2505
_cell_angle_alpha    73.9941
_cell_angle_beta     83.3154
_cell_angle_gamma    90.0473

_space_group_name_H-M_alt    "P 1"
_space_group_IT_number       1

loop_
  _space_group_symop_operation_xyz
  'x, y, z'

loop_
  _atom_site_type_symbol
  _atom_site_label
  _atom_site_symmetry_multiplicity
  _atom_site_fract_x
  _atom_site_fract_y
  _atom_site_fract_z
  _atom_site_occupancy
  Fe  Fe1       1.0  0.50000  1.00000  0.50000  1.0000
  Fe  Fe2       1.0  0.50000  0.50000  0.50000  1.0000
  H   H1        1.0  0.44415  0.02203  0.67459  1.0000
  H   H2        1.0  0.55586  0.97797  0.32541  1.0000
  H   H3        1.0  0.42734  0.91164  0.82404  1.0000
  H   H4        1.0  0.57267  0.08836  0.17596  1.0000
  H   H5        1.0  0.49941  0.65608  0.71773  1.0000
  H   H6        1.0  0.50059  0.34392  0.28227  1.0000
  H   H7        1.0  0.50833  0.77723  0.57230  1.0000
  H   H8        1.0  0.49167  0.22277  0.42770  1.0000
  H   H9        1.0  0.21916  0.49249  0.38404  1.0000
  H   H10       1.0  0.78084  0.50751  0.61597  1.0000
  H   H11       1.0  0.21156  0.52383  0.22629  1.0000
  H   H12       1.0  0.78843  0.47617  0.77371  1.0000
  H   H13       1.0  0.80701  0.59051  0.19121  1.0000
  H   H14       1.0  0.19298  0.40949  0.80879  1.0000
  H   H15       1.0  0.79140  0.55190  0.35092  1.0000
  H   H16       1.0  0.20860  0.44810  0.64908  1.0000
  H   H17       1.0  0.51783  0.91126  0.97599  1.0000
  H   H18       1.0  0.48216  0.08874  0.02401  1.0000
  H   H19       1.0  0.20324  0.85893  0.95162  1.0000
  H   H20       1.0  0.79675  0.14107  0.04838  1.0000
  H   H21       1.0  0.97364  0.76803  0.07599  1.0000
  H   H22       1.0  0.02636  0.23197  0.92401  1.0000
  H   H23       1.0  0.05644  0.72997  0.22518  1.0000
  H   H24       1.0  0.94356  0.27003  0.77482  1.0000
  H   H25       1.0  0.28467  0.73818  0.32550  1.0000
  H   H26       1.0  0.71534  0.26182  0.67450  1.0000
  H   H27       1.0  0.59642  0.79006  0.35135  1.0000
  H   H28       1.0  0.40359  0.20994  0.64865  1.0000
  H   H29       1.0  0.82730  0.88306  0.22738  1.0000
  H   H30       1.0  0.17270  0.11694  0.77261  1.0000
  H   H31       1.0  0.74691  0.92155  0.07796  1.0000
  H   H32       1.0  0.25309  0.07845  0.92203  1.0000
  H   H33       1.0  0.85126  0.83142  0.95253  1.0000
  H   H34       1.0  0.14873  0.16858  0.04747  1.0000
  H   H35       1.0  0.82445  0.01283  0.87577  1.0000
  H   H36       1.0  0.17554  0.98716  0.12423  1.0000
  H   H37       1.0  0.87822  0.07096  0.71493  1.0000
  H   H38       1.0  0.12178  0.92904  0.28507  1.0000
  H   H39       1.0  0.96315  0.94883  0.63107  1.0000
  H   H40       1.0  0.03685  0.05118  0.36893  1.0000
  H   H41       1.0  0.02975  0.77366  0.62705  1.0000
  H   H42       1.0  0.97025  0.22634  0.37295  1.0000
  H   H43       1.0  0.06597  0.59421  0.70288  1.0000
  H   H44       1.0  0.93404  0.40579  0.29712  1.0000
  H   H45       1.0  0.01601  0.53501  0.86503  1.0000
  H   H46       1.0  0.98399  0.46499  0.13497  1.0000
  H   H47       1.0  0.92882  0.65673  0.94868  1.0000
  H   H48       1.0  0.07117  0.34327  0.05132  1.0000
  Pd  Pd1       1.0  0.00730  0.76347  0.46564  1.0000
  Pd  Pd2       1.0  0.99270  0.23653  0.53437  1.0000
  C   C1        1.0  0.45417  0.94057  0.68695  1.0000
  C   C2        1.0  0.54584  0.05943  0.31305  1.0000
  C   C3        1.0  0.44479  0.87830  0.77033  1.0000
  C   C4        1.0  0.55521  0.12170  0.22967  1.0000
  C   C5        1.0  0.46326  0.77314  0.78416  1.0000
  C   C6        1.0  0.53674  0.22686  0.21584  1.0000
  C   C7        1.0  0.48543  0.73655  0.71096  1.0000
  C   C8        1.0  0.51457  0.26345  0.28904  1.0000
  C   C9        1.0  0.49157  0.80384  0.62970  1.0000
  C   C10       1.0  0.50842  0.19616  0.37030  1.0000
  C   C11       1.0  0.46484  0.70930  0.86830  1.0000
  C   C12       1.0  0.53515  0.29070  0.13170  1.0000
  C   C13       1.0  0.47517  0.66168  0.94342  1.0000
  C   C14       1.0  0.52483  0.33832  0.05658  1.0000
  C   C15       1.0  0.20777  0.86196  0.46424  1.0000
  C   C16       1.0  0.79224  0.13804  0.53576  1.0000
  C   C17       1.0  0.80403  0.66451  0.47231  1.0000
  C   C18       1.0  0.19597  0.33549  0.52770  1.0000
  C   C19       1.0  0.19296  0.65563  0.48451  1.0000
  C   C20       1.0  0.80704  0.34437  0.51549  1.0000
  C   C21       1.0  0.81906  0.86898  0.45827  1.0000
  C   C22       1.0  0.18094  0.13102  0.54174  1.0000
  C   C23       1.0  0.34641  0.51329  0.33919  1.0000
  C   C24       1.0  0.65359  0.48671  0.66081  1.0000
  C   C25       1.0  0.34283  0.53120  0.25140  1.0000
  C   C26       1.0  0.65716  0.46880  0.74860  1.0000
  C   C27       1.0  0.50914  0.56065  0.19429  1.0000
  C   C28       1.0  0.49085  0.43936  0.80571  1.0000
  C   C29       1.0  0.67419  0.56731  0.23171  1.0000
  C   C30       1.0  0.32580  0.43269  0.76829  1.0000
  C   C31       1.0  0.66652  0.54644  0.32046  1.0000
  C   C32       1.0  0.33348  0.45357  0.67954  1.0000
  C   C33       1.0  0.50518  0.58719  0.10454  1.0000
  C   C34       1.0  0.49481  0.41282  0.89546  1.0000
  C   C35       1.0  0.49046  0.61827  0.02719  1.0000
  C   C36       1.0  0.50954  0.38173  0.97281  1.0000
  C   C37       1.0  0.46872  0.85075  0.11510  1.0000
  C   C38       1.0  0.53128  0.14925  0.88489  1.0000
  C   C39       1.0  0.41679  0.87177  0.03044  1.0000
  C   C40       1.0  0.58322  0.12823  0.96956  1.0000
  C   C41       1.0  0.24210  0.84254  0.01682  1.0000
  C   C42       1.0  0.75789  0.15747  0.98318  1.0000
  C   C43       1.0  0.11175  0.79037  0.08736  1.0000
  C   C44       1.0  0.88825  0.20963  0.91264  1.0000
  C   C45       1.0  0.15757  0.76887  0.17041  1.0000
  C   C46       1.0  0.84243  0.23113  0.82958  1.0000
  C   C47       1.0  0.33587  0.79822  0.18663  1.0000
  C   C48       1.0  0.66413  0.20178  0.81337  1.0000
  C   C49       1.0  0.38626  0.77758  0.27134  1.0000
  C   C50       1.0  0.61375  0.22242  0.72866  1.0000
  C   C51       1.0  0.56009  0.80682  0.28574  1.0000
  C   C52       1.0  0.43992  0.19319  0.71426  1.0000
  C   C53       1.0  0.69103  0.85897  0.21539  1.0000
  C   C54       1.0  0.30897  0.14103  0.78461  1.0000
  C   C55       1.0  0.64631  0.88051  0.13205  1.0000
  C   C56       1.0  0.35370  0.11949  0.86794  1.0000
  C   C57       1.0  0.93027  0.78596  0.83623  1.0000
  C   C58       1.0  0.06972  0.21404  0.16377  1.0000
  C   C59       1.0  0.87923  0.85772  0.88234  1.0000
  C   C60       1.0  0.12076  0.14228  0.11766  1.0000
  C   C61       1.0  0.86288  0.95840  0.83952  1.0000
  C   C62       1.0  0.13711  0.04160  0.16048  1.0000
  C   C63       1.0  0.89440  0.99155  0.74830  1.0000
  C   C64       1.0  0.10560  0.00844  0.25170  1.0000
  C   C65       1.0  0.94090  0.92366  0.70136  1.0000
  C   C66       1.0  0.05910  0.07634  0.29864  1.0000
  C   C67       1.0  0.96008  0.81975  0.74368  1.0000
  C   C68       1.0  0.03992  0.18025  0.25632  1.0000
  C   C69       1.0  0.00745  0.74786  0.69739  1.0000
  C   C70       1.0  0.99255  0.25214  0.30260  1.0000
  C   C71       1.0  0.02665  0.64758  0.74008  1.0000
  C   C72       1.0  0.97335  0.35243  0.25992  1.0000
  C   C73       1.0  0.99934  0.61439  0.83135  1.0000
  C   C74       1.0  0.00067  0.38560  0.16865  1.0000
  C   C75       1.0  0.95163  0.68219  0.87833  1.0000
  C   C76       1.0  0.04837  0.31782  0.12167  1.0000
  N   N1        1.0  0.47857  0.90503  0.61694  1.0000
  N   N2        1.0  0.52143  0.09497  0.38305  1.0000
  N   N3        1.0  0.32412  0.91725  0.47172  1.0000
  N   N4        1.0  0.67588  0.08275  0.52828  1.0000
  N   N5        1.0  0.68270  0.60454  0.48040  1.0000
  N   N6        1.0  0.31730  0.39546  0.51960  1.0000
  N   N7        1.0  0.30812  0.59473  0.49479  1.0000
  N   N8        1.0  0.69188  0.40526  0.50521  1.0000
  N   N9        1.0  0.50553  0.52064  0.37453  1.0000
  N   N10       1.0  0.49446  0.47936  0.62547  1.0000
  N   N11       1.0  0.69867  0.92370  0.46729  1.0000
  N   N12       1.0  0.30133  0.07630  0.53271  1.0000
