data_image0
_chemical_formula_structural       Fe2Ni2H48C76N12
_chemical_formula_sum              "Fe2 Ni2 H48 C76 N12"
_cell_length_a       6.97153
_cell_length_b       13.5589
_cell_length_c       16.4235
_cell_angle_alpha    106.858
_cell_angle_beta     96.6079
_cell_angle_gamma    89.9889

_space_group_name_H-M_alt    "P 1"
_space_group_IT_number       1

loop_
  _space_group_symop_operation_xyz
  'x, y, z'

loop_
  _atom_site_type_symbol
  _atom_site_label
  _atom_site_symmetry_multiplicity
  _atom_site_fract_x
  _atom_site_fract_y
  _atom_site_fract_z
  _atom_site_occupancy
  Fe  Fe1       1.0  0.00000  0.00000  0.00000  1.0000
  Fe  Fe2       1.0  1.00000  0.50000  1.00000  1.0000
  Ni  Ni1       1.0  0.50667  0.76246  0.03065  1.0000
  Ni  Ni2       1.0  0.49334  0.23755  0.96936  1.0000
  H   H1        1.0  0.94306  0.02591  0.82876  1.0000
  H   H2        1.0  0.05694  0.97409  0.17124  1.0000
  H   H3        1.0  0.92627  0.91653  0.67871  1.0000
  H   H4        1.0  0.07372  0.08347  0.32129  1.0000
  H   H5        1.0  0.99596  0.65241  0.77591  1.0000
  H   H6        1.0  0.00404  0.34759  0.22409  1.0000
  H   H7        1.0  0.00474  0.77306  0.92225  1.0000
  H   H8        1.0  0.99527  0.22695  0.07775  1.0000
  H   H9        1.0  0.71367  0.49118  0.11600  1.0000
  H   H10       1.0  0.28633  0.50882  0.88401  1.0000
  H   H11       1.0  0.70868  0.52405  0.27260  1.0000
  H   H12       1.0  0.29131  0.47595  0.72740  1.0000
  H   H13       1.0  0.31893  0.60101  0.30662  1.0000
  H   H14       1.0  0.68107  0.39898  0.69338  1.0000
  H   H15       1.0  0.30100  0.56085  0.14812  1.0000
  H   H16       1.0  0.69900  0.43915  0.85188  1.0000
  H   H17       1.0  0.02611  0.91238  0.51838  1.0000
  H   H18       1.0  0.97390  0.08762  0.48161  1.0000
  H   H19       1.0  0.70719  0.86082  0.54911  1.0000
  H   H20       1.0  0.29282  0.13917  0.45089  1.0000
  H   H21       1.0  0.45926  0.76800  0.42955  1.0000
  H   H22       1.0  0.54074  0.23199  0.57045  1.0000
  H   H23       1.0  0.52829  0.72845  0.27891  1.0000
  H   H24       1.0  0.47171  0.27155  0.72109  1.0000
  H   H25       1.0  0.74967  0.73497  0.17425  1.0000
  H   H26       1.0  0.25032  0.26503  0.82575  1.0000
  H   H27       1.0  0.06635  0.78492  0.14173  1.0000
  H   H28       1.0  0.93365  0.21508  0.85826  1.0000
  H   H29       1.0  0.31590  0.87919  0.26068  1.0000
  H   H30       1.0  0.68410  0.12081  0.73932  1.0000
  H   H31       1.0  0.24989  0.92063  0.41160  1.0000
  H   H32       1.0  0.75012  0.07936  0.58840  1.0000
  H   H33       1.0  0.36372  0.82788  0.55380  1.0000
  H   H34       1.0  0.63628  0.17211  0.44619  1.0000
  H   H35       1.0  0.33972  0.01313  0.63108  1.0000
  H   H36       1.0  0.66028  0.98687  0.36892  1.0000
  H   H37       1.0  0.38778  0.07287  0.79102  1.0000
  H   H38       1.0  0.61223  0.92713  0.20898  1.0000
  H   H39       1.0  0.46397  0.94842  0.87330  1.0000
  H   H40       1.0  0.53603  0.05158  0.12670  1.0000
  H   H41       1.0  0.52427  0.76963  0.87624  1.0000
  H   H42       1.0  0.47575  0.23037  0.12376  1.0000
  H   H43       1.0  0.56235  0.58681  0.80003  1.0000
  H   H44       1.0  0.43766  0.41319  0.19997  1.0000
  H   H45       1.0  0.52055  0.52588  0.63886  1.0000
  H   H46       1.0  0.47944  0.47412  0.36114  1.0000
  H   H47       1.0  0.43964  0.64944  0.55652  1.0000
  H   H48       1.0  0.56035  0.35056  0.44348  1.0000
  C   C1        1.0  0.95236  0.94279  0.81420  1.0000
  C   C2        1.0  0.04763  0.05721  0.18580  1.0000
  C   C3        1.0  0.94300  0.88093  0.73039  1.0000
  C   C4        1.0  0.05700  0.11908  0.26962  1.0000
  C   C5        1.0  0.96114  0.77353  0.71365  1.0000
  C   C6        1.0  0.03886  0.22647  0.28636  1.0000
  C   C7        1.0  0.98257  0.73460  0.78471  1.0000
  C   C8        1.0  0.01743  0.26540  0.21530  1.0000
  C   C9        1.0  0.98871  0.80167  0.86659  1.0000
  C   C10       1.0  0.01129  0.19833  0.13341  1.0000
  C   C11       1.0  0.96370  0.71012  0.62900  1.0000
  C   C12       1.0  0.03628  0.28989  0.37100  1.0000
  C   C13       1.0  0.97625  0.66325  0.55385  1.0000
  C   C14       1.0  0.02373  0.33676  0.44615  1.0000
  C   C15       1.0  0.69779  0.85661  0.03162  1.0000
  C   C16       1.0  0.30221  0.14340  0.96838  1.0000
  C   C17       1.0  0.68735  0.33161  0.97459  1.0000
  C   C18       1.0  0.31265  0.66840  0.02542  1.0000
  C   C19       1.0  0.68516  0.66019  0.01429  1.0000
  C   C20       1.0  0.31484  0.33981  0.98571  1.0000
  C   C21       1.0  0.32517  0.86192  0.03616  1.0000
  C   C22       1.0  0.67482  0.13808  0.96384  1.0000
  C   C23       1.0  0.84501  0.51448  0.16034  1.0000
  C   C24       1.0  0.15499  0.48552  0.83966  1.0000
  C   C25       1.0  0.84289  0.53320  0.24755  1.0000
  C   C26       1.0  0.15710  0.46680  0.75245  1.0000
  C   C27       1.0  0.01396  0.56559  0.30418  1.0000
  C   C28       1.0  0.98604  0.43441  0.69583  1.0000
  C   C29       1.0  0.18224  0.57517  0.26669  1.0000
  C   C30       1.0  0.81776  0.42483  0.73330  1.0000
  C   C31       1.0  0.17326  0.55338  0.17851  1.0000
  C   C32       1.0  0.82674  0.44661  0.82149  1.0000
  C   C33       1.0  0.01051  0.59149  0.39338  1.0000
  C   C34       1.0  0.98950  0.40851  0.60662  1.0000
  C   C35       1.0  0.99378  0.62103  0.47027  1.0000
  C   C36       1.0  0.00622  0.37898  0.52973  1.0000
  C   C37       1.0  0.96109  0.85018  0.38042  1.0000
  C   C38       1.0  0.03891  0.14982  0.61958  1.0000
  C   C39       1.0  0.91693  0.87244  0.46604  1.0000
  C   C40       1.0  0.08307  0.12756  0.53396  1.0000
  C   C41       1.0  0.73972  0.84366  0.48319  1.0000
  C   C42       1.0  0.26029  0.15633  0.51680  1.0000
  C   C43       1.0  0.59901  0.79059  0.41545  1.0000
  C   C44       1.0  0.40100  0.20941  0.58455  1.0000
  C   C45       1.0  0.63711  0.76799  0.33163  1.0000
  C   C46       1.0  0.36290  0.23201  0.66837  1.0000
  C   C47       1.0  0.81735  0.79712  0.31179  1.0000
  C   C48       1.0  0.18265  0.20287  0.68821  1.0000
  C   C49       1.0  0.85954  0.77509  0.22613  1.0000
  C   C50       1.0  0.14046  0.22491  0.77387  1.0000
  C   C51       1.0  0.03600  0.80319  0.20804  1.0000
  C   C52       1.0  0.96399  0.19681  0.79196  1.0000
  C   C53       1.0  0.17764  0.85590  0.27556  1.0000
  C   C54       1.0  0.82236  0.14410  0.72444  1.0000
  C   C55       1.0  0.14090  0.87920  0.35975  1.0000
  C   C56       1.0  0.85910  0.12080  0.64025  1.0000
  C   C57       1.0  0.43738  0.78169  0.66878  1.0000
  C   C58       1.0  0.56261  0.21831  0.33122  1.0000
  C   C59       1.0  0.39032  0.85483  0.62357  1.0000
  C   C60       1.0  0.60967  0.14517  0.37643  1.0000
  C   C61       1.0  0.37508  0.95770  0.66667  1.0000
  C   C62       1.0  0.62491  0.04231  0.33333  1.0000
  C   C63       1.0  0.40322  0.99171  0.75735  1.0000
  C   C64       1.0  0.59678  0.00829  0.24265  1.0000
  C   C65       1.0  0.44464  0.92248  0.80344  1.0000
  C   C66       1.0  0.55535  0.07752  0.19656  1.0000
  C   C67       1.0  0.46282  0.81637  0.76078  1.0000
  C   C68       1.0  0.53718  0.18363  0.23921  1.0000
  C   C69       1.0  0.50546  0.74322  0.80630  1.0000
  C   C70       1.0  0.49454  0.25678  0.19370  1.0000
  C   C71       1.0  0.52562  0.64098  0.76337  1.0000
  C   C72       1.0  0.47438  0.35902  0.23663  1.0000
  C   C73       1.0  0.50314  0.60690  0.67268  1.0000
  C   C74       1.0  0.49685  0.39310  0.32732  1.0000
  C   C75       1.0  0.45896  0.67576  0.62646  1.0000
  C   C76       1.0  0.54103  0.32424  0.37354  1.0000
  N   N1        1.0  0.97650  0.90498  0.88210  1.0000
  N   N2        1.0  0.02350  0.09502  0.11790  1.0000
  N   N3        1.0  0.81639  0.91446  0.02555  1.0000
  N   N4        1.0  0.18361  0.08555  0.97445  1.0000
  N   N5        1.0  0.00767  0.52387  0.12496  1.0000
  N   N6        1.0  0.99233  0.47613  0.87503  1.0000
  N   N7        1.0  0.80195  0.59682  0.00495  1.0000
  N   N8        1.0  0.19805  0.40319  0.99505  1.0000
  N   N9        1.0  0.81112  0.39323  0.98155  1.0000
  N   N10       1.0  0.18887  0.60677  0.01845  1.0000
  N   N11       1.0  0.20325  0.91962  0.02937  1.0000
  N   N12       1.0  0.79675  0.08039  0.97063  1.0000
