data_image0
_chemical_formula_structural       Fe2Ni2H36C60N16O8
_chemical_formula_sum              "Fe2 Ni2 H36 C60 N16 O8"
_cell_length_a       6.93416
_cell_length_b       13.4609
_cell_length_c       15.6282
_cell_angle_alpha    100.768
_cell_angle_beta     89.9997
_cell_angle_gamma    90.0001

_space_group_name_H-M_alt    "P 1"
_space_group_IT_number       1

loop_
  _space_group_symop_operation_xyz
  'x, y, z'

loop_
  _atom_site_type_symbol
  _atom_site_label
  _atom_site_symmetry_multiplicity
  _atom_site_fract_x
  _atom_site_fract_y
  _atom_site_fract_z
  _atom_site_occupancy
  Fe  Fe1       1.0  0.00000  0.00000  1.00000  1.0000
  Fe  Fe2       1.0  0.00000  0.50000  1.00000  1.0000
  Ni  Ni1       1.0  0.50000  0.76056  0.03538  1.0000
  Ni  Ni2       1.0  0.50000  0.23945  0.96462  1.0000
  H   H1        1.0  1.00000  0.97169  0.18134  1.0000
  H   H2        1.0  1.00000  0.02831  0.81866  1.0000
  H   H3        1.0  0.00001  0.08103  0.32916  1.0000
  H   H4        1.0  0.99997  0.91897  0.67084  1.0000
  H   H5        1.0  1.00000  0.34020  0.20180  1.0000
  H   H6        1.0  0.99998  0.65980  0.79819  1.0000
  H   H7        1.0  0.99999  0.22138  0.06070  1.0000
  H   H8        1.0  0.00000  0.77862  0.93930  1.0000
  H   H9        1.0  0.31174  0.45453  0.70299  1.0000
  H   H10       1.0  0.31171  0.54547  0.29701  1.0000
  H   H11       1.0  0.68828  0.54546  0.29701  1.0000
  H   H12       1.0  0.68831  0.45453  0.70298  1.0000
  H   H13       1.0  0.29899  0.49020  0.86472  1.0000
  H   H14       1.0  0.29897  0.50981  0.13528  1.0000
  H   H15       1.0  0.70102  0.50980  0.13527  1.0000
  H   H16       1.0  0.70103  0.49019  0.86472  1.0000
  H   H17       1.0  0.49999  0.22089  0.13770  1.0000
  H   H18       1.0  0.49999  0.77910  0.86231  1.0000
  H   H19       1.0  0.50000  0.03237  0.11519  1.0000
  H   H20       1.0  0.49999  0.96762  0.88482  1.0000
  H   H21       1.0  0.50000  0.94722  0.24299  1.0000
  H   H22       1.0  0.49999  0.05278  0.75703  1.0000
  H   H23       1.0  0.50000  0.04933  0.39390  1.0000
  H   H24       1.0  0.50000  0.95068  0.60611  1.0000
  H   H25       1.0  0.50000  0.23825  0.41556  1.0000
  H   H26       1.0  0.50001  0.76175  0.58445  1.0000
  H   H27       1.0  0.30933  0.15936  0.62448  1.0000
  H   H28       1.0  0.30934  0.84063  0.37551  1.0000
  H   H29       1.0  0.69067  0.84064  0.37551  1.0000
  H   H30       1.0  0.69066  0.15936  0.62449  1.0000
  H   H31       1.0  0.30990  0.21743  0.78787  1.0000
  H   H32       1.0  0.30990  0.78257  0.21213  1.0000
  H   H33       1.0  0.69010  0.78257  0.21213  1.0000
  H   H34       1.0  0.69010  0.21743  0.78787  1.0000
  H   H35       1.0  0.00000  0.24572  0.86731  1.0000
  H   H36       1.0  1.00000  0.75428  0.13269  1.0000
  C   C1        1.0  0.31313  0.85774  0.04095  1.0000
  C   C2        1.0  0.31313  0.14227  0.95905  1.0000
  C   C3        1.0  0.68688  0.14227  0.95905  1.0000
  C   C4        1.0  0.68687  0.85774  0.04095  1.0000
  C   C5        1.0  0.31262  0.33725  0.97898  1.0000
  C   C6        1.0  0.31262  0.66276  0.02103  1.0000
  C   C7        1.0  0.68739  0.66276  0.02102  1.0000
  C   C8        1.0  0.68739  0.33725  0.97898  1.0000
  C   C9        1.0  1.00000  0.05368  0.18912  1.0000
  C   C10       1.0  0.99999  0.94631  0.81088  1.0000
  C   C11       1.0  0.00000  0.11452  0.27097  1.0000
  C   C12       1.0  0.99998  0.88548  0.72903  1.0000
  C   C13       1.0  0.00000  0.22057  0.27818  1.0000
  C   C14       1.0  0.99997  0.77942  0.72181  1.0000
  C   C15       1.0  0.00000  0.25912  0.20044  1.0000
  C   C16       1.0  0.99999  0.74088  0.79956  1.0000
  C   C17       1.0  1.00000  0.19292  0.12129  1.0000
  C   C18       1.0  0.99999  0.80708  0.87871  1.0000
  C   C19       1.0  0.00001  0.28432  0.36060  1.0000
  C   C20       1.0  0.99996  0.71569  0.63940  1.0000
  C   C21       1.0  0.00001  0.33413  0.43484  1.0000
  C   C22       1.0  0.99998  0.66586  0.56515  1.0000
  C   C23       1.0  0.00001  0.38052  0.51888  1.0000
  C   C24       1.0  0.99997  0.61947  0.48110  1.0000
  C   C25       1.0  0.00002  0.41533  0.59731  1.0000
  C   C26       1.0  0.99999  0.58467  0.40270  1.0000
  C   C27       1.0  0.00002  0.44573  0.68843  1.0000
  C   C28       1.0  0.99999  0.55427  0.31157  1.0000
  C   C29       1.0  0.17342  0.45943  0.73630  1.0000
  C   C30       1.0  0.17339  0.54056  0.26370  1.0000
  C   C31       1.0  0.82659  0.54056  0.26370  1.0000
  C   C32       1.0  0.82662  0.45943  0.73629  1.0000
  C   C33       1.0  0.16728  0.47973  0.82644  1.0000
  C   C34       1.0  0.16726  0.52027  0.17356  1.0000
  C   C35       1.0  0.83273  0.52027  0.17356  1.0000
  C   C36       1.0  0.83275  0.47973  0.82644  1.0000
  C   C37       1.0  0.50000  0.23749  0.27759  1.0000
  C   C38       1.0  0.50000  0.76251  0.72241  1.0000
  C   C39       1.0  0.50000  0.18179  0.19269  1.0000
  C   C40       1.0  0.50000  0.81821  0.80732  1.0000
  C   C41       1.0  0.50000  0.07695  0.18079  1.0000
  C   C42       1.0  0.49999  0.92304  0.81922  1.0000
  C   C43       1.0  0.50000  0.02955  0.25317  1.0000
  C   C44       1.0  0.49999  0.97045  0.74683  1.0000
  C   C45       1.0  0.50000  0.08643  0.33766  1.0000
  C   C46       1.0  0.50000  0.91357  0.66235  1.0000
  C   C47       1.0  0.50000  0.19171  0.35069  1.0000
  C   C48       1.0  0.50000  0.80828  0.64932  1.0000
  C   C49       1.0  0.99999  0.15714  0.61816  1.0000
  C   C50       1.0  0.00001  0.84286  0.38183  1.0000
  C   C51       1.0  0.17625  0.17245  0.66177  1.0000
  C   C52       1.0  0.17626  0.82754  0.33822  1.0000
  C   C53       1.0  0.82376  0.82754  0.33822  1.0000
  C   C54       1.0  0.82375  0.17245  0.66178  1.0000
  C   C55       1.0  0.17471  0.20446  0.75183  1.0000
  C   C56       1.0  0.17471  0.79554  0.24816  1.0000
  C   C57       1.0  0.82529  0.79554  0.24817  1.0000
  C   C58       1.0  0.82529  0.20446  0.75183  1.0000
  C   C59       1.0  0.00000  0.22047  0.79694  1.0000
  C   C60       1.0  0.00000  0.77953  0.20306  1.0000
  N   N1        1.0  0.19332  0.91721  0.03410  1.0000
  N   N2        1.0  0.19332  0.08279  0.96590  1.0000
  N   N3        1.0  0.80668  0.08279  0.96589  1.0000
  N   N4        1.0  0.80668  0.91721  0.03410  1.0000
  N   N5        1.0  1.00000  0.09126  0.11478  1.0000
  N   N6        1.0  0.00000  0.90874  0.88522  1.0000
  N   N7        1.0  0.00001  0.48709  0.87193  1.0000
  N   N8        1.0  1.00000  0.51291  0.12807  1.0000
  N   N9        1.0  0.19208  0.39943  0.98938  1.0000
  N   N10       1.0  0.19208  0.60058  0.01062  1.0000
  N   N11       1.0  0.80793  0.60058  0.01062  1.0000
  N   N12       1.0  0.80793  0.39943  0.98938  1.0000
  N   N13       1.0  0.50000  0.34785  0.28907  1.0000
  N   N14       1.0  0.50001  0.65216  0.71093  1.0000
  N   N15       1.0  1.00000  0.12442  0.52322  1.0000
  N   N16       1.0  0.00002  0.87558  0.47678  1.0000
  O   O1        1.0  0.50000  0.39889  0.36409  1.0000
  O   O2        1.0  0.49999  0.60111  0.63591  1.0000
  O   O3        1.0  0.49999  0.38566  0.22201  1.0000
  O   O4        1.0  0.50004  0.61434  0.77799  1.0000
  O   O5        1.0  0.15807  0.11131  0.48528  1.0000
  O   O6        1.0  0.15810  0.88867  0.51472  1.0000
  O   O7        1.0  0.84192  0.88869  0.51472  1.0000
  O   O8        1.0  0.84190  0.11133  0.48528  1.0000
