data_image0
_chemical_formula_structural       H24Pb2C40N12O16
_chemical_formula_sum              "H24 Pb2 C40 N12 O16"
_cell_length_a       7.37702
_cell_length_b       8.52965
_cell_length_c       18.2062
_cell_angle_alpha    86.3517
_cell_angle_beta     81.5651
_cell_angle_gamma    64.4343

_space_group_name_H-M_alt    "P 1"
_space_group_IT_number       1

loop_
  _space_group_symop_operation_xyz
  'x, y, z'

loop_
  _atom_site_type_symbol
  _atom_site_label
  _atom_site_symmetry_multiplicity
  _atom_site_fract_x
  _atom_site_fract_y
  _atom_site_fract_z
  _atom_site_occupancy
  H   H1        1.0  0.93660  0.90443  0.41920  1.0000
  H   H2        1.0  0.15884  0.90459  0.08093  1.0000
  H   H3        1.0  0.06342  0.09555  0.58080  1.0000
  H   H4        1.0  0.84110  0.09544  0.91909  1.0000
  H   H5        1.0  0.69222  0.57268  0.95944  1.0000
  H   H6        1.0  0.73550  0.57250  0.54056  1.0000
  H   H7        1.0  0.30777  0.42734  0.04056  1.0000
  H   H8        1.0  0.26453  0.42750  0.45944  1.0000
  H   H9        1.0  0.70798  0.95333  0.09180  1.0000
  H   H10       1.0  0.33845  0.95343  0.40858  1.0000
  H   H11       1.0  0.29197  0.04669  0.90822  1.0000
  H   H12       1.0  0.66151  0.04657  0.59144  1.0000
  H   H13       1.0  0.63509  0.86000  0.97444  1.0000
  H   H14       1.0  0.50563  0.85969  0.52572  1.0000
  H   H15       1.0  0.36486  0.14004  0.02557  1.0000
  H   H16       1.0  0.49438  0.14029  0.47428  1.0000
  H   H17       1.0  0.81785  0.35214  0.04763  1.0000
  H   H18       1.0  0.82897  0.35199  0.45241  1.0000
  H   H19       1.0  0.18215  0.64788  0.95236  1.0000
  H   H20       1.0  0.17106  0.64802  0.54757  1.0000
  H   H21       1.0  0.89629  0.42258  0.16793  1.0000
  H   H22       1.0  0.67925  0.42277  0.33236  1.0000
  H   H23       1.0  0.10373  0.57741  0.83206  1.0000
  H   H24       1.0  0.32076  0.57723  0.66764  1.0000
  Pb  Pb1       1.0  0.33192  0.33528  0.25015  1.0000
  Pb  Pb2       1.0  0.66817  0.66473  0.74985  1.0000
  C   C1        1.0  0.06252  0.63592  0.37864  1.0000
  C   C2        1.0  0.30088  0.63607  0.12153  1.0000
  C   C3        1.0  0.93751  0.36408  0.62135  1.0000
  C   C4        1.0  0.69913  0.36393  0.87847  1.0000
  C   C5        1.0  0.95720  0.71783  0.31411  1.0000
  C   C6        1.0  0.32389  0.71800  0.18616  1.0000
  C   C7        1.0  0.04282  0.28216  0.68588  1.0000
  C   C8        1.0  0.67611  0.28200  0.81384  1.0000
  C   C9        1.0  0.83344  0.89553  0.29920  1.0000
  C   C10       1.0  0.26983  0.89574  0.20115  1.0000
  C   C11       1.0  0.16655  0.10445  0.70080  1.0000
  C   C12       1.0  0.73015  0.10426  0.79886  1.0000
  C   C13       1.0  0.76719  0.05197  0.34447  1.0000
  C   C14       1.0  0.17971  0.05224  0.15591  1.0000
  C   C15       1.0  0.23283  0.94801  0.65553  1.0000
  C   C16       1.0  0.82024  0.94778  0.84410  1.0000
  C   C17       1.0  0.85026  0.74061  0.20820  1.0000
  C   C18       1.0  0.40787  0.74075  0.29214  1.0000
  C   C19       1.0  0.14975  0.25938  0.79180  1.0000
  C   C20       1.0  0.59211  0.25925  0.70787  1.0000
  C   C21       1.0  0.80710  0.69462  0.13963  1.0000
  C   C22       1.0  0.49722  0.69475  0.36068  1.0000
  C   C23       1.0  0.19290  0.30536  0.86036  1.0000
  C   C24       1.0  0.50276  0.30525  0.63933  1.0000
  C   C25       1.0  0.72994  0.82045  0.08439  1.0000
  C   C26       1.0  0.44919  0.82050  0.41589  1.0000
  C   C27       1.0  0.27003  0.17955  0.91562  1.0000
  C   C28       1.0  0.55079  0.17950  0.58412  1.0000
  C   C29       1.0  0.68886  0.77198  0.02027  1.0000
  C   C30       1.0  0.53927  0.77181  0.47990  1.0000
  C   C31       1.0  0.31109  0.22806  0.97974  1.0000
  C   C32       1.0  0.46074  0.22819  0.52010  1.0000
  C   C33       1.0  0.79536  0.48196  0.06156  1.0000
  C   C34       1.0  0.72190  0.48189  0.43857  1.0000
  C   C35       1.0  0.20465  0.51804  0.93843  1.0000
  C   C36       1.0  0.27812  0.51811  0.56143  1.0000
  C   C37       1.0  0.83757  0.52363  0.12702  1.0000
  C   C38       1.0  0.63747  0.52375  0.37323  1.0000
  C   C39       1.0  0.16245  0.47636  0.87297  1.0000
  C   C40       1.0  0.36253  0.47625  0.62677  1.0000
  N   N1        1.0  0.96626  0.62106  0.25599  1.0000
  N   N2        1.0  0.41156  0.62116  0.24428  1.0000
  N   N3        1.0  0.03376  0.37894  0.74400  1.0000
  N   N4        1.0  0.58846  0.37883  0.75571  1.0000
  N   N5        1.0  0.76904  0.90712  0.23211  1.0000
  N   N6        1.0  0.32259  0.90728  0.26826  1.0000
  N   N7        1.0  0.23096  0.09286  0.76789  1.0000
  N   N8        1.0  0.67737  0.09271  0.73175  1.0000
  N   N9        1.0  0.72231  0.60585  0.00996  1.0000
  N   N10       1.0  0.67180  0.60569  0.49012  1.0000
  N   N11       1.0  0.27767  0.39417  0.99004  1.0000
  N   N12       1.0  0.32823  0.39431  0.50987  1.0000
  O   O1        1.0  0.17131  0.47069  0.37850  1.0000
  O   O2        1.0  0.35724  0.47081  0.12169  1.0000
  O   O3        1.0  0.82876  0.52931  0.62148  1.0000
  O   O4        1.0  0.64280  0.52919  0.87830  1.0000
  O   O5        1.0  0.04295  0.72962  0.43395  1.0000
  O   O6        1.0  0.22733  0.72973  0.06612  1.0000
  O   O7        1.0  0.95708  0.27036  0.56604  1.0000
  O   O8        1.0  0.77266  0.27028  0.93387  1.0000
  O   O9        1.0  0.84441  0.03837  0.40682  1.0000
  O   O10       1.0  0.11689  0.03855  0.09340  1.0000
  O   O11       1.0  0.15562  0.96160  0.59318  1.0000
  O   O12       1.0  0.88304  0.96148  0.90662  1.0000
  O   O13       1.0  0.63827  0.19611  0.32603  1.0000
  O   O14       1.0  0.16397  0.19654  0.17447  1.0000
  O   O15       1.0  0.36177  0.80389  0.67396  1.0000
  O   O16       1.0  0.83600  0.80346  0.82554  1.0000
