data_image0
_chemical_formula_structural       Ca2H18C20N6O12
_chemical_formula_sum              "Ca2 H18 C20 N6 O12"
_cell_length_a       6.79057
_cell_length_b       7.67197
_cell_length_c       12.8631
_cell_angle_alpha    70.7362
_cell_angle_beta     73.5617
_cell_angle_gamma    74.113

_space_group_name_H-M_alt    "P 1"
_space_group_IT_number       1

loop_
  _space_group_symop_operation_xyz
  'x, y, z'

loop_
  _atom_site_type_symbol
  _atom_site_label
  _atom_site_symmetry_multiplicity
  _atom_site_fract_x
  _atom_site_fract_y
  _atom_site_fract_z
  _atom_site_occupancy
  Ca  Ca1       1.0  0.24374  0.39062  0.56368  1.0000
  Ca  Ca2       1.0  0.75625  0.60938  0.43632  1.0000
  H   H1        1.0  0.44326  0.07588  0.76771  1.0000
  H   H2        1.0  0.55674  0.92412  0.23229  1.0000
  H   H3        1.0  0.75740  0.59109  0.05069  1.0000
  H   H4        1.0  0.24260  0.40891  0.94930  1.0000
  H   H5        1.0  0.21967  0.94712  0.91770  1.0000
  H   H6        1.0  0.78033  0.05287  0.08231  1.0000
  H   H7        1.0  0.99672  0.75954  0.07833  1.0000
  H   H8        1.0  0.00328  0.24046  0.92167  1.0000
  H   H9        1.0  0.51001  0.42321  0.20953  1.0000
  H   H10       1.0  0.48999  0.57679  0.79047  1.0000
  H   H11       1.0  0.11060  0.66567  0.70169  1.0000
  H   H12       1.0  0.88940  0.33434  0.29831  1.0000
  H   H13       1.0  0.93582  0.52881  0.75015  1.0000
  H   H14       1.0  0.06418  0.47119  0.24985  1.0000
  H   H15       1.0  0.20838  0.26479  0.38322  1.0000
  H   H16       1.0  0.79162  0.73522  0.61678  1.0000
  H   H17       1.0  0.45941  0.20075  0.37372  1.0000
  H   H18       1.0  0.54059  0.79925  0.62628  1.0000
  C   C1        1.0  0.51034  0.78334  0.96922  1.0000
  C   C2        1.0  0.48966  0.21666  0.03078  1.0000
  C   C3        1.0  0.93253  0.97388  0.76547  1.0000
  C   C4        1.0  0.06746  0.02612  0.23453  1.0000
  C   C5        1.0  0.65187  0.88185  0.87405  1.0000
  C   C6        1.0  0.34813  0.11815  0.12595  1.0000
  C   C7        1.0  0.16224  0.96773  0.72275  1.0000
  C   C8        1.0  0.83776  0.03227  0.27725  1.0000
  C   C9        1.0  0.58937  0.63452  0.05482  1.0000
  C   C10       1.0  0.41063  0.36548  0.94518  1.0000
  C   C11       1.0  0.29211  0.83134  0.97964  1.0000
  C   C12       1.0  0.70790  0.16866  0.02037  1.0000
  C   C13       1.0  0.16609  0.72716  0.07028  1.0000
  C   C14       1.0  0.83391  0.27284  0.92972  1.0000
  C   C15       1.0  0.45065  0.53994  0.14313  1.0000
  C   C16       1.0  0.54935  0.46005  0.85687  1.0000
  C   C17       1.0  0.75170  0.26668  0.62469  1.0000
  C   C18       1.0  0.24830  0.73332  0.37531  1.0000
  C   C19       1.0  0.76409  0.09714  0.72029  1.0000
  C   C20       1.0  0.23591  0.90286  0.27971  1.0000
  N   N1        1.0  0.58904  0.03278  0.78992  1.0000
  N   N2        1.0  0.41096  0.96722  0.21008  1.0000
  N   N3        1.0  0.86172  0.84147  0.85994  1.0000
  N   N4        1.0  0.13828  0.15853  0.14006  1.0000
  N   N5        1.0  0.24188  0.58296  0.15105  1.0000
  N   N6        1.0  0.75813  0.41704  0.84895  1.0000
  O   O1        1.0  0.27410  0.81645  0.70237  1.0000
  O   O2        1.0  0.72590  0.18354  0.29763  1.0000
  O   O3        1.0  0.23075  0.11315  0.71344  1.0000
  O   O4        1.0  0.76925  0.88685  0.28656  1.0000
  O   O5        1.0  0.91660  0.33259  0.57268  1.0000
  O   O6        1.0  0.08339  0.66741  0.42732  1.0000
  O   O7        1.0  0.57567  0.34820  0.59648  1.0000
  O   O8        1.0  0.42433  0.65180  0.40352  1.0000
  O   O9        1.0  0.03950  0.58839  0.68114  1.0000
  O   O10       1.0  0.96050  0.41162  0.31886  1.0000
  O   O11       1.0  0.32173  0.22854  0.42467  1.0000
  O   O12       1.0  0.67827  0.77146  0.57533  1.0000
