data_image0
_chemical_formula_structural       Ba2H28C40N12Cl4O16
_chemical_formula_sum              "Ba2 H28 C40 N12 Cl4 O16"
_cell_length_a       8.15605
_cell_length_b       8.95732
_cell_length_c       15.8655
_cell_angle_alpha    90
_cell_angle_beta     102.71
_cell_angle_gamma    90

_space_group_name_H-M_alt    "P 1"
_space_group_IT_number       1

loop_
  _space_group_symop_operation_xyz
  'x, y, z'

loop_
  _atom_site_type_symbol
  _atom_site_label
  _atom_site_symmetry_multiplicity
  _atom_site_fract_x
  _atom_site_fract_y
  _atom_site_fract_z
  _atom_site_occupancy
  Ba  Ba1       1.0  0.00000  0.82716  0.25000  1.0000
  Ba  Ba2       1.0  0.00000  0.17284  0.75000  1.0000
  H   H1        1.0  0.40774  0.34040  0.32365  1.0000
  H   H2        1.0  0.59227  0.34040  0.17635  1.0000
  H   H3        1.0  0.59227  0.65960  0.67635  1.0000
  H   H4        1.0  0.40773  0.65960  0.82365  1.0000
  H   H5        1.0  0.99086  0.48090  0.11008  1.0000
  H   H6        1.0  0.00914  0.48090  0.38992  1.0000
  H   H7        1.0  0.00914  0.51910  0.88992  1.0000
  H   H8        1.0  0.99086  0.51910  0.61008  1.0000
  H   H9        1.0  0.45859  0.10496  0.85818  1.0000
  H   H10       1.0  0.54141  0.10496  0.64182  1.0000
  H   H11       1.0  0.54140  0.89504  0.14182  1.0000
  H   H12       1.0  0.45859  0.89504  0.35818  1.0000
  H   H13       1.0  0.87804  0.96798  0.04330  1.0000
  H   H14       1.0  0.12196  0.96798  0.45670  1.0000
  H   H15       1.0  0.12196  0.03202  0.95670  1.0000
  H   H16       1.0  0.87804  0.03202  0.54330  1.0000
  H   H17       1.0  0.62777  0.91409  0.92430  1.0000
  H   H18       1.0  0.37223  0.91410  0.57569  1.0000
  H   H19       1.0  0.37223  0.08591  0.07569  1.0000
  H   H20       1.0  0.62777  0.08590  0.42431  1.0000
  H   H21       1.0  0.50151  0.36216  0.89380  1.0000
  H   H22       1.0  0.49849  0.36216  0.60620  1.0000
  H   H23       1.0  0.49849  0.63784  0.10620  1.0000
  H   H24       1.0  0.50151  0.63784  0.39380  1.0000
  H   H25       1.0  0.74661  0.43856  0.01212  1.0000
  H   H26       1.0  0.25339  0.43856  0.48788  1.0000
  H   H27       1.0  0.25339  0.56144  0.98788  1.0000
  H   H28       1.0  0.74661  0.56144  0.51212  1.0000
  C   C1        1.0  0.31274  0.11829  0.28072  1.0000
  C   C2        1.0  0.68726  0.11829  0.21928  1.0000
  C   C3        1.0  0.68726  0.88171  0.71928  1.0000
  C   C4        1.0  0.31274  0.88171  0.78072  1.0000
  C   C5        1.0  0.18927  0.20285  0.21501  1.0000
  C   C6        1.0  0.81073  0.20285  0.28499  1.0000
  C   C7        1.0  0.81073  0.79715  0.78499  1.0000
  C   C8        1.0  0.18927  0.79715  0.71501  1.0000
  C   C9        1.0  0.17348  0.35807  0.20212  1.0000
  C   C10       1.0  0.82652  0.35807  0.29788  1.0000
  C   C11       1.0  0.82652  0.64193  0.79788  1.0000
  C   C12       1.0  0.17348  0.64193  0.70212  1.0000
  C   C13       1.0  0.26497  0.48820  0.24704  1.0000
  C   C14       1.0  0.73502  0.48819  0.25296  1.0000
  C   C15       1.0  0.73502  0.51181  0.75296  1.0000
  C   C16       1.0  0.26497  0.51181  0.74704  1.0000
  C   C17       1.0  0.97675  0.23891  0.10803  1.0000
  C   C18       1.0  0.02325  0.23891  0.39197  1.0000
  C   C19       1.0  0.02325  0.76109  0.89197  1.0000
  C   C20       1.0  0.97675  0.76109  0.60803  1.0000
  C   C21       1.0  0.83317  0.20868  0.03765  1.0000
  C   C22       1.0  0.16683  0.20868  0.46235  1.0000
  C   C23       1.0  0.16683  0.79132  0.96235  1.0000
  C   C24       1.0  0.83317  0.79132  0.53765  1.0000
  C   C25       1.0  0.79930  0.05945  0.01258  1.0000
  C   C26       1.0  0.20070  0.05945  0.48742  1.0000
  C   C27       1.0  0.20070  0.94055  0.98742  1.0000
  C   C28       1.0  0.79930  0.94055  0.51258  1.0000
  C   C29       1.0  0.66282  0.02660  0.94713  1.0000
  C   C30       1.0  0.33718  0.02660  0.55287  1.0000
  C   C31       1.0  0.33718  0.97341  0.05287  1.0000
  C   C32       1.0  0.66282  0.97340  0.44713  1.0000
  C   C33       1.0  0.59008  0.28158  0.92963  1.0000
  C   C34       1.0  0.40992  0.28158  0.57037  1.0000
  C   C35       1.0  0.40992  0.71842  0.07037  1.0000
  C   C36       1.0  0.59008  0.71842  0.42963  1.0000
  C   C37       1.0  0.72591  0.32093  0.99479  1.0000
  C   C38       1.0  0.27409  0.32093  0.50521  1.0000
  C   C39       1.0  0.27409  0.67907  0.00521  1.0000
  C   C40       1.0  0.72591  0.67907  0.49479  1.0000
  N   N1        1.0  0.06608  0.13136  0.15674  1.0000
  N   N2        1.0  0.93392  0.13136  0.34326  1.0000
  N   N3        1.0  0.93392  0.86864  0.84326  1.0000
  N   N4        1.0  0.06608  0.86864  0.65673  1.0000
  N   N5        1.0  0.03836  0.37681  0.13445  1.0000
  N   N6        1.0  0.96164  0.37681  0.36555  1.0000
  N   N7        1.0  0.96164  0.62319  0.86555  1.0000
  N   N8        1.0  0.03836  0.62319  0.63445  1.0000
  N   N9        1.0  0.56201  0.13685  0.90754  1.0000
  N   N10       1.0  0.43799  0.13685  0.59246  1.0000
  N   N11       1.0  0.43799  0.86315  0.09246  1.0000
  N   N12       1.0  0.56201  0.86315  0.40754  1.0000
  Cl  Cl1       1.0  0.13988  0.68343  0.42926  1.0000
  Cl  Cl2       1.0  0.86012  0.68343  0.07074  1.0000
  Cl  Cl3       1.0  0.86012  0.31657  0.57074  1.0000
  Cl  Cl4       1.0  0.13988  0.31657  0.92926  1.0000
  O   O1        1.0  0.30083  0.97708  0.28230  1.0000
  O   O2        1.0  0.69917  0.97708  0.21770  1.0000
  O   O3        1.0  0.69917  0.02292  0.71770  1.0000
  O   O4        1.0  0.30083  0.02292  0.78230  1.0000
  O   O5        1.0  0.42510  0.19180  0.33361  1.0000
  O   O6        1.0  0.57490  0.19180  0.16639  1.0000
  O   O7        1.0  0.57490  0.80820  0.66639  1.0000
  O   O8        1.0  0.42510  0.80820  0.83361  1.0000
  O   O9        1.0  0.38778  0.46067  0.31368  1.0000
  O   O10       1.0  0.61222  0.46067  0.18632  1.0000
  O   O11       1.0  0.61222  0.53933  0.68632  1.0000
  O   O12       1.0  0.38778  0.53933  0.81368  1.0000
  O   O13       1.0  0.22271  0.61678  0.22213  1.0000
  O   O14       1.0  0.77729  0.61678  0.27787  1.0000
  O   O15       1.0  0.77729  0.38322  0.77787  1.0000
  O   O16       1.0  0.22271  0.38322  0.72213  1.0000
