data_image0
_chemical_formula_structural       Mg4H28C40N12O20
_chemical_formula_sum              "Mg4 H28 C40 N12 O20"
_cell_length_a       7.6072
_cell_length_b       10.0928
_cell_length_c       15.949
_cell_angle_alpha    89.9999
_cell_angle_beta     90.0002
_cell_angle_gamma    90.0005

_space_group_name_H-M_alt    "P 1"
_space_group_IT_number       1

loop_
  _space_group_symop_operation_xyz
  'x, y, z'

loop_
  _atom_site_type_symbol
  _atom_site_label
  _atom_site_symmetry_multiplicity
  _atom_site_fract_x
  _atom_site_fract_y
  _atom_site_fract_z
  _atom_site_occupancy
  Mg  Mg1       1.0  0.15186  0.97595  0.20978  1.0000
  Mg  Mg2       1.0  0.84814  0.02405  0.70978  1.0000
  Mg  Mg3       1.0  0.65186  0.52405  0.20978  1.0000
  Mg  Mg4       1.0  0.34814  0.47595  0.70978  1.0000
  H   H1        1.0  0.42716  0.12125  0.27540  1.0000
  H   H2        1.0  0.57284  0.87875  0.77540  1.0000
  H   H3        1.0  0.92716  0.37875  0.27540  1.0000
  H   H4        1.0  0.07284  0.62125  0.77540  1.0000
  H   H5        1.0  0.24835  0.20447  0.28095  1.0000
  H   H6        1.0  0.75166  0.79553  0.78095  1.0000
  H   H7        1.0  0.74835  0.29553  0.28095  1.0000
  H   H8        1.0  0.25166  0.70447  0.78095  1.0000
  H   H9        1.0  0.06764  0.53240  0.39744  1.0000
  H   H10       1.0  0.93237  0.46760  0.89743  1.0000
  H   H11       1.0  0.56764  0.96760  0.39743  1.0000
  H   H12       1.0  0.43236  0.03240  0.89743  1.0000
  H   H13       1.0  0.83345  0.73333  0.63505  1.0000
  H   H14       1.0  0.16654  0.26668  0.13505  1.0000
  H   H15       1.0  0.33346  0.76667  0.63505  1.0000
  H   H16       1.0  0.66654  0.23333  0.13505  1.0000
  H   H17       1.0  0.93211  0.10178  0.53107  1.0000
  H   H18       1.0  0.06788  0.89822  0.03108  1.0000
  H   H19       1.0  0.43211  0.39822  0.53108  1.0000
  H   H20       1.0  0.56788  0.60178  0.03108  1.0000
  H   H21       1.0  0.95221  0.61650  0.51157  1.0000
  H   H22       1.0  0.04779  0.38349  0.01156  1.0000
  H   H23       1.0  0.45221  0.88349  0.51156  1.0000
  H   H24       1.0  0.54779  0.11651  0.01156  1.0000
  H   H25       1.0  0.06241  0.00101  0.40175  1.0000
  H   H26       1.0  0.93759  0.99898  0.90176  1.0000
  H   H27       1.0  0.56240  0.49898  0.40176  1.0000
  H   H28       1.0  0.43759  0.50102  0.90176  1.0000
  C   C1        1.0  0.10346  0.73947  0.37341  1.0000
  C   C2        1.0  0.89653  0.26052  0.87340  1.0000
  C   C3        1.0  0.60347  0.76052  0.37341  1.0000
  C   C4        1.0  0.39653  0.23948  0.87340  1.0000
  C   C5        1.0  0.23233  0.58305  0.29640  1.0000
  C   C6        1.0  0.76767  0.41695  0.79640  1.0000
  C   C7        1.0  0.73233  0.91695  0.29640  1.0000
  C   C8        1.0  0.26767  0.08306  0.79640  1.0000
  C   C9        1.0  0.27361  0.70849  0.26533  1.0000
  C   C10       1.0  0.72639  0.29151  0.76532  1.0000
  C   C11       1.0  0.77361  0.79151  0.26532  1.0000
  C   C12       1.0  0.22639  0.20849  0.76532  1.0000
  C   C13       1.0  0.01776  0.79992  0.44506  1.0000
  C   C14       1.0  0.98224  0.20007  0.94506  1.0000
  C   C15       1.0  0.51776  0.70007  0.44506  1.0000
  C   C16       1.0  0.48224  0.29993  0.94506  1.0000
  C   C17       1.0  0.88243  0.78930  0.58139  1.0000
  C   C18       1.0  0.11757  0.21070  0.08138  1.0000
  C   C19       1.0  0.38243  0.71070  0.58138  1.0000
  C   C20       1.0  0.61757  0.28930  0.08138  1.0000
  C   C21       1.0  0.93763  0.99468  0.52294  1.0000
  C   C22       1.0  0.06236  0.00532  0.02294  1.0000
  C   C23       1.0  0.43764  0.50531  0.52295  1.0000
  C   C24       1.0  0.56236  0.49469  0.02295  1.0000
  C   C25       1.0  0.94961  0.72446  0.51153  1.0000
  C   C26       1.0  0.05039  0.27554  0.01153  1.0000
  C   C27       1.0  0.44961  0.77554  0.51153  1.0000
  C   C28       1.0  0.55039  0.22446  0.01153  1.0000
  C   C29       1.0  0.28154  0.44420  0.27571  1.0000
  C   C30       1.0  0.71845  0.55580  0.77571  1.0000
  C   C31       1.0  0.78155  0.05580  0.27571  1.0000
  C   C32       1.0  0.21846  0.94420  0.77570  1.0000
  C   C33       1.0  0.00971  0.93851  0.45143  1.0000
  C   C34       1.0  0.99028  0.06149  0.95143  1.0000
  C   C35       1.0  0.50972  0.56149  0.45143  1.0000
  C   C36       1.0  0.49028  0.43851  0.95143  1.0000
  C   C37       1.0  0.38196  0.75030  0.19176  1.0000
  C   C38       1.0  0.61803  0.24972  0.69176  1.0000
  C   C39       1.0  0.88197  0.74971  0.19176  1.0000
  C   C40       1.0  0.11804  0.25031  0.69176  1.0000
  N   N1        1.0  0.87764  0.92215  0.58807  1.0000
  N   N2        1.0  0.12236  0.07785  0.08808  1.0000
  N   N3        1.0  0.37764  0.57784  0.58808  1.0000
  N   N4        1.0  0.62236  0.42216  0.08808  1.0000
  N   N5        1.0  0.19003  0.80359  0.31250  1.0000
  N   N6        1.0  0.80997  0.19640  0.81249  1.0000
  N   N7        1.0  0.69003  0.69640  0.31250  1.0000
  N   N8        1.0  0.30997  0.30360  0.81250  1.0000
  N   N9        1.0  0.12264  0.60616  0.36297  1.0000
  N   N10       1.0  0.87736  0.39384  0.86296  1.0000
  N   N11       1.0  0.62264  0.89384  0.36296  1.0000
  N   N12       1.0  0.37736  0.10616  0.86296  1.0000
  O   O1        1.0  0.36225  0.86907  0.16729  1.0000
  O   O2        1.0  0.63775  0.13092  0.66728  1.0000
  O   O3        1.0  0.86225  0.63092  0.16728  1.0000
  O   O4        1.0  0.13775  0.36908  0.66729  1.0000
  O   O5        1.0  0.48772  0.66756  0.16014  1.0000
  O   O6        1.0  0.51229  0.33244  0.66014  1.0000
  O   O7        1.0  0.98772  0.83244  0.16014  1.0000
  O   O8        1.0  0.01227  0.16756  0.66014  1.0000
  O   O9        1.0  0.43577  0.42022  0.25027  1.0000
  O   O10       1.0  0.56423  0.57978  0.75027  1.0000
  O   O11       1.0  0.93577  0.07978  0.25027  1.0000
  O   O12       1.0  0.06423  0.92021  0.75026  1.0000
  O   O13       1.0  0.29764  0.11280  0.27342  1.0000
  O   O14       1.0  0.70237  0.88720  0.77342  1.0000
  O   O15       1.0  0.79764  0.38720  0.27342  1.0000
  O   O16       1.0  0.20237  0.61280  0.77342  1.0000
  O   O17       1.0  0.16366  0.35697  0.28943  1.0000
  O   O18       1.0  0.83634  0.64303  0.78943  1.0000
  O   O19       1.0  0.66366  0.14303  0.28943  1.0000
  O   O20       1.0  0.33634  0.85697  0.78942  1.0000
