data_image0
_chemical_formula_structural       Cd4H32C52S4N4O18
_chemical_formula_sum              "Cd4 H32 C52 S4 N4 O18"
_cell_length_a       10.2163
_cell_length_b       12.0155
_cell_length_c       12.0155
_cell_angle_alpha    71.6202
_cell_angle_beta     73.7436
_cell_angle_gamma    73.7436

_space_group_name_H-M_alt    "P 1"
_space_group_IT_number       1

loop_
  _space_group_symop_operation_xyz
  'x, y, z'

loop_
  _atom_site_type_symbol
  _atom_site_label
  _atom_site_symmetry_multiplicity
  _atom_site_fract_x
  _atom_site_fract_y
  _atom_site_fract_z
  _atom_site_occupancy
  Cd  Cd1       1.0  0.91801  0.56826  0.29602  1.0000
  Cd  Cd2       1.0  0.58199  0.70398  0.43174  1.0000
  Cd  Cd3       1.0  0.08199  0.43174  0.70398  1.0000
  Cd  Cd4       1.0  0.41801  0.29602  0.56826  1.0000
  H   H1        1.0  0.71508  0.44551  0.48917  1.0000
  H   H2        1.0  0.78492  0.51083  0.55449  1.0000
  H   H3        1.0  0.28492  0.55449  0.51083  1.0000
  H   H4        1.0  0.21508  0.48917  0.44551  1.0000
  H   H5        1.0  0.37917  0.55810  0.28724  1.0000
  H   H6        1.0  0.12083  0.71276  0.44190  1.0000
  H   H7        1.0  0.62083  0.44190  0.71276  1.0000
  H   H8        1.0  0.87917  0.28724  0.55810  1.0000
  H   H9        1.0  0.75804  0.39897  0.07913  1.0000
  H   H10       1.0  0.74196  0.92087  0.60103  1.0000
  H   H11       1.0  0.24196  0.60103  0.92087  1.0000
  H   H12       1.0  0.25804  0.07913  0.39897  1.0000
  H   H13       1.0  0.62559  0.28772  0.02162  1.0000
  H   H14       1.0  0.87441  0.97838  0.71228  1.0000
  H   H15       1.0  0.37441  0.71228  0.97838  1.0000
  H   H16       1.0  0.12559  0.02162  0.28772  1.0000
  H   H17       1.0  0.36296  0.02909  0.06856  1.0000
  H   H18       1.0  0.13704  0.93144  0.97091  1.0000
  H   H19       1.0  0.63704  0.97091  0.93144  1.0000
  H   H20       1.0  0.86295  0.06856  0.02909  1.0000
  H   H21       1.0  0.46240  0.82470  0.18618  1.0000
  H   H22       1.0  0.03760  0.81382  0.17530  1.0000
  H   H23       1.0  0.53760  0.17530  0.81382  1.0000
  H   H24       1.0  0.96240  0.18618  0.82469  1.0000
  H   H25       1.0  0.59674  0.96813  0.39528  1.0000
  H   H26       1.0  0.90326  0.60472  0.03187  1.0000
  H   H27       1.0  0.40326  0.03187  0.60472  1.0000
  H   H28       1.0  0.09674  0.39528  0.96813  1.0000
  H   H29       1.0  0.51142  0.17506  0.28700  1.0000
  H   H30       1.0  0.98858  0.71300  0.82494  1.0000
  H   H31       1.0  0.48858  0.82494  0.71300  1.0000
  H   H32       1.0  0.01142  0.28700  0.17506  1.0000
  C   C1        1.0  0.20037  0.45810  0.24200  1.0000
  C   C2        1.0  0.29963  0.75800  0.54190  1.0000
  C   C3        1.0  0.79963  0.54190  0.75800  1.0000
  C   C4        1.0  0.70037  0.24200  0.45810  1.0000
  C   C5        1.0  0.65709  0.54020  0.23445  1.0000
  C   C6        1.0  0.84291  0.76555  0.45980  1.0000
  C   C7        1.0  0.34291  0.45980  0.76555  1.0000
  C   C8        1.0  0.15709  0.23445  0.54020  1.0000
  C   C9        1.0  0.35584  0.43399  0.20104  1.0000
  C   C10       1.0  0.14416  0.79896  0.56601  1.0000
  C   C11       1.0  0.64416  0.56601  0.79896  1.0000
  C   C12       1.0  0.85584  0.20104  0.43399  1.0000
  C   C13       1.0  0.43235  0.49646  0.23106  1.0000
  C   C14       1.0  0.06765  0.76894  0.50354  1.0000
  C   C15       1.0  0.56765  0.50354  0.76894  1.0000
  C   C16       1.0  0.93235  0.23106  0.49646  1.0000
  C   C17       1.0  0.57673  0.48141  0.19075  1.0000
  C   C18       1.0  0.92327  0.80925  0.51860  1.0000
  C   C19       1.0  0.42327  0.51860  0.80925  1.0000
  C   C20       1.0  0.07673  0.19075  0.48140  1.0000
  C   C21       1.0  0.64619  0.40759  0.11336  1.0000
  C   C22       1.0  0.85381  0.88664  0.59241  1.0000
  C   C23       1.0  0.35381  0.59241  0.88664  1.0000
  C   C24       1.0  0.14619  0.11336  0.40759  1.0000
  C   C25       1.0  0.57191  0.34614  0.08121  1.0000
  C   C26       1.0  0.92809  0.91879  0.65386  1.0000
  C   C27       1.0  0.42809  0.65386  0.91879  1.0000
  C   C28       1.0  0.07191  0.08121  0.34614  1.0000
  C   C29       1.0  0.42834  0.35567  0.12712  1.0000
  C   C30       1.0  0.07166  0.87288  0.64433  1.0000
  C   C31       1.0  0.57166  0.64433  0.87288  1.0000
  C   C32       1.0  0.92834  0.12712  0.35567  1.0000
  C   C33       1.0  0.42900  0.12090  0.16678  1.0000
  C   C34       1.0  0.07100  0.83322  0.87910  1.0000
  C   C35       1.0  0.57100  0.87910  0.83322  1.0000
  C   C36       1.0  0.92900  0.16678  0.12090  1.0000
  C   C37       1.0  0.41493  0.01928  0.13998  1.0000
  C   C38       1.0  0.08507  0.86002  0.98072  1.0000
  C   C39       1.0  0.58507  0.98072  0.86002  1.0000
  C   C40       1.0  0.91493  0.13998  0.01928  1.0000
  C   C41       1.0  0.46903  0.90574  0.20519  1.0000
  C   C42       1.0  0.03098  0.79481  0.09426  1.0000
  C   C43       1.0  0.53097  0.09426  0.79481  1.0000
  C   C44       1.0  0.96902  0.20520  0.90574  1.0000
  C   C45       1.0  0.54683  0.98515  0.32064  1.0000
  C   C46       1.0  0.95317  0.67936  0.01486  1.0000
  C   C47       1.0  0.45317  0.01485  0.67936  1.0000
  C   C48       1.0  0.04683  0.32064  0.98514  1.0000
  C   C49       1.0  0.49825  0.10179  0.25920  1.0000
  C   C50       1.0  0.00175  0.74080  0.89821  1.0000
  C   C51       1.0  0.50175  0.89821  0.74080  1.0000
  C   C52       1.0  0.99825  0.25920  0.10179  1.0000
  S   S1        1.0  0.34696  0.26211  0.09209  1.0000
  S   S2        1.0  0.15304  0.90791  0.73789  1.0000
  S   S3        1.0  0.65304  0.73789  0.90791  1.0000
  S   S4        1.0  0.84696  0.09210  0.26211  1.0000
  N   N1        1.0  0.53354  0.88806  0.29497  1.0000
  N   N2        1.0  0.96646  0.70503  0.11194  1.0000
  N   N3        1.0  0.46646  0.11194  0.70503  1.0000
  N   N4        1.0  0.03354  0.29497  0.88806  1.0000
  O   O1        1.0  0.12639  0.44496  0.18095  1.0000
  O   O2        1.0  0.37361  0.81905  0.55504  1.0000
  O   O3        1.0  0.87361  0.55504  0.81905  1.0000
  O   O4        1.0  0.62638  0.18095  0.44496  1.0000
  O   O5        1.0  0.14508  0.49976  0.33596  1.0000
  O   O6        1.0  0.35493  0.66404  0.50024  1.0000
  O   O7        1.0  0.85493  0.50024  0.66404  1.0000
  O   O8        1.0  0.64507  0.33596  0.49976  1.0000
  O   O9        1.0  0.59067  0.63040  0.27489  1.0000
  O   O10       1.0  0.90933  0.72512  0.36960  1.0000
  O   O11       1.0  0.40933  0.36960  0.72512  1.0000
  O   O12       1.0  0.09067  0.27488  0.63040  1.0000
  O   O13       1.0  0.78649  0.49237  0.22862  1.0000
  O   O14       1.0  0.71351  0.77138  0.50763  1.0000
  O   O15       1.0  0.21351  0.50763  0.77138  1.0000
  O   O16       1.0  0.28649  0.22862  0.49237  1.0000
  O   O17       1.0  0.75000  0.51972  0.48028  1.0000
  O   O18       1.0  0.25000  0.48028  0.51972  1.0000
