data_image0
_chemical_formula_structural       Gd2H30C18O24
_chemical_formula_sum              "Gd2 H30 C18 O24"
_cell_length_a       7.11298
_cell_length_b       10.0174
_cell_length_c       10.5114
_cell_angle_alpha    115.008
_cell_angle_beta     105.238
_cell_angle_gamma    99.1492

_space_group_name_H-M_alt    "P 1"
_space_group_IT_number       1

loop_
  _space_group_symop_operation_xyz
  'x, y, z'

loop_
  _atom_site_type_symbol
  _atom_site_label
  _atom_site_symmetry_multiplicity
  _atom_site_fract_x
  _atom_site_fract_y
  _atom_site_fract_z
  _atom_site_occupancy
  Gd  Gd1       1.0  0.16065  0.65654  0.66418  1.0000
  Gd  Gd2       1.0  0.99640  0.99232  0.33575  1.0000
  H   H1        1.0  0.91274  0.88436  0.73273  1.0000
  H   H2        1.0  0.67995  0.15150  0.26720  1.0000
  H   H3        1.0  0.26405  0.55688  0.98317  1.0000
  H   H4        1.0  0.78038  0.57381  0.01691  1.0000
  H   H5        1.0  0.22443  0.07851  0.73784  1.0000
  H   H6        1.0  0.98649  0.34070  0.26208  1.0000
  H   H7        1.0  0.46324  0.31619  0.22340  1.0000
  H   H8        1.0  0.74037  0.09312  0.77656  1.0000
  H   H9        1.0  0.49755  0.72481  0.54574  1.0000
  H   H10       1.0  0.45185  0.17894  0.45421  1.0000
  H   H11       1.0  0.73288  0.46296  0.58608  1.0000
  H   H12       1.0  0.64678  0.87697  0.41406  1.0000
  H   H13       1.0  0.33817  0.48205  0.44136  1.0000
  H   H14       1.0  0.39676  0.04093  0.55876  1.0000
  H   H15       1.0  0.27234  0.35059  0.48026  1.0000
  H   H16       1.0  0.29233  0.87056  0.51996  1.0000
  H   H17       1.0  0.54834  0.72973  0.93987  1.0000
  H   H18       1.0  0.10842  0.78990  0.06013  1.0000
  H   H19       1.0  0.89345  0.61459  0.82869  1.0000
  H   H20       1.0  0.56459  0.78577  0.17148  1.0000
  H   H21       1.0  0.53877  0.57931  0.79447  1.0000
  H   H22       1.0  0.24391  0.78460  0.20552  1.0000
  H   H23       1.0  0.70567  0.52219  0.46604  1.0000
  H   H24       1.0  0.73966  0.05629  0.53399  1.0000
  H   H25       1.0  0.57452  0.84305  0.72355  1.0000
  H   H26       1.0  0.35096  0.11922  0.27636  1.0000
  H   H27       1.0  0.93115  0.79402  0.87661  1.0000
  H   H28       1.0  0.55430  0.91715  0.12338  1.0000
  H   H29       1.0  0.90113  0.85912  0.57209  1.0000
  H   H30       1.0  0.82904  0.28693  0.42789  1.0000
  C   C1        1.0  0.44394  0.59626  0.26912  1.0000
  C   C2        1.0  0.67495  0.32731  0.73089  1.0000
  C   C3        1.0  0.23296  0.31799  0.84627  1.0000
  C   C4        1.0  0.88644  0.47178  0.15373  1.0000
  C   C5        1.0  0.14854  0.32298  0.70120  1.0000
  C   C6        1.0  0.94711  0.62176  0.29886  1.0000
  C   C7        1.0  0.34412  0.18094  0.98112  1.0000
  C   C8        1.0  0.86311  0.19995  0.01882  1.0000
  C   C9        1.0  0.37613  0.03750  0.98415  1.0000
  C   C10       1.0  0.89210  0.05349  0.01578  1.0000
  C   C11       1.0  0.37312  0.45282  0.12038  1.0000
  C   C12       1.0  0.75275  0.33263  0.87964  1.0000
  C   C13       1.0  0.28767  0.45264  0.98432  1.0000
  C   C14       1.0  0.80309  0.46846  0.01571  1.0000
  C   C15       1.0  0.26347  0.18268  0.84505  1.0000
  C   C16       1.0  0.91828  0.33767  0.15488  1.0000
  C   C17       1.0  0.39853  0.31633  0.11759  1.0000
  C   C18       1.0  0.78117  0.19896  0.88238  1.0000
  O   O1        1.0  0.93957  0.81866  0.64259  1.0000
  O   O2        1.0  0.79705  0.17599  0.35731  1.0000
  O   O3        1.0  0.00246  0.71143  0.86341  1.0000
  O   O4        1.0  0.63882  0.84780  0.13667  1.0000
  O   O5        1.0  0.79780  0.48220  0.51899  1.0000
  O   O6        1.0  0.77881  0.96333  0.48106  1.0000
  O   O7        1.0  0.09174  0.43919  0.70901  1.0000
  O   O8        1.0  0.88252  0.73023  0.29118  1.0000
  O   O9        1.0  0.14258  0.21155  0.58058  1.0000
  O   O10       1.0  0.06180  0.63083  0.41943  1.0000
  O   O11       1.0  0.50445  0.58547  0.38908  1.0000
  O   O12       1.0  0.61549  0.19656  0.61093  1.0000
  O   O13       1.0  0.44488  0.72548  0.27241  1.0000
  O   O14       1.0  0.67269  0.45323  0.72757  1.0000
  O   O15       1.0  0.45095  0.04678  0.11431  1.0000
  O   O16       1.0  0.83674  0.93263  0.88557  1.0000
  O   O17       1.0  0.32982  0.91576  0.86100  1.0000
  O   O18       1.0  0.96874  0.05481  0.13890  1.0000
  O   O19       1.0  0.47405  0.66118  0.82973  1.0000
  O   O20       1.0  0.14381  0.83112  0.17019  1.0000
  O   O21       1.0  0.27184  0.45630  0.50294  1.0000
  O   O22       1.0  0.26895  0.95344  0.49708  1.0000
  O   O23       1.0  0.45412  0.79074  0.62824  1.0000
  O   O24       1.0  0.32585  0.16224  0.37162  1.0000
