data_image0
_chemical_formula_structural       Cd2P2H42C38N4O12
_chemical_formula_sum              "Cd2 P2 H42 C38 N4 O12"
_cell_length_a       5.50252
_cell_length_b       11.9023
_cell_length_c       15.4105
_cell_angle_alpha    89.4586
_cell_angle_beta     87.5597
_cell_angle_gamma    76.5987

_space_group_name_H-M_alt    "P 1"
_space_group_IT_number       1

loop_
  _space_group_symop_operation_xyz
  'x, y, z'

loop_
  _atom_site_type_symbol
  _atom_site_label
  _atom_site_symmetry_multiplicity
  _atom_site_fract_x
  _atom_site_fract_y
  _atom_site_fract_z
  _atom_site_occupancy
  Cd  Cd1       1.0  0.65199  0.34966  0.65500  1.0000
  Cd  Cd2       1.0  0.00255  0.65031  0.15511  1.0000
  P   P1        1.0  0.53162  0.27693  0.44820  1.0000
  P   P2        1.0  0.81011  0.72271  0.94834  1.0000
  H   H1        1.0  0.86178  0.05697  0.47869  1.0000
  H   H2        1.0  0.92253  0.94200  0.97858  1.0000
  H   H3        1.0  0.83602  0.85331  0.45330  1.0000
  H   H4        1.0  0.69428  0.14594  0.95371  1.0000
  H   H5        1.0  0.46701  0.81406  0.38195  1.0000
  H   H6        1.0  0.28537  0.18632  0.88273  1.0000
  H   H7        1.0  0.13230  0.97641  0.33261  1.0000
  H   H8        1.0  0.11054  0.02465  0.83369  1.0000
  H   H9        1.0  0.15147  0.17861  0.36013  1.0000
  H   H10       1.0  0.33002  0.82212  0.86116  1.0000
  H   H11       1.0  0.38271  0.36381  0.31221  1.0000
  H   H12       1.0  0.74839  0.63596  0.81218  1.0000
  H   H13       1.0  0.13214  0.37075  0.38968  1.0000
  H   H14       1.0  0.50423  0.62953  0.88956  1.0000
  H   H15       1.0  0.28552  0.51875  0.47523  1.0000
  H   H16       1.0  0.80463  0.48123  0.97520  1.0000
  H   H17       1.0  0.53777  0.51185  0.39686  1.0000
  H   H18       1.0  0.05051  0.48753  0.89686  1.0000
  H   H19       1.0  0.19503  0.17714  0.59437  1.0000
  H   H20       1.0  0.37315  0.82284  0.09461  1.0000
  H   H21       1.0  0.39983  0.97138  0.58445  1.0000
  H   H22       1.0  0.37186  0.02865  0.08473  1.0000
  H   H23       1.0  0.74830  0.89973  0.72280  1.0000
  H   H24       1.0  0.64668  0.10061  0.22190  1.0000
  H   H25       1.0  0.56858  0.10990  0.72434  1.0000
  H   H26       1.0  0.67816  0.89042  0.22383  1.0000
  H   H27       1.0  0.54091  0.80012  0.56886  1.0000
  H   H28       1.0  0.33964  0.19999  0.06802  1.0000
  H   H29       1.0  0.72467  0.58902  0.57076  1.0000
  H   H30       1.0  0.31314  0.41089  0.07051  1.0000
  H   H31       1.0  0.13061  0.52796  0.72391  1.0000
  H   H32       1.0  0.65887  0.47226  0.22422  1.0000
  H   H33       1.0  0.92567  0.73508  0.73068  1.0000
  H   H34       1.0  0.66098  0.26513  0.23073  1.0000
  H   H35       1.0  0.17446  0.34141  0.75754  1.0000
  H   H36       1.0  0.51638  0.65879  0.25747  1.0000
  H   H37       1.0  0.43466  0.32483  0.80699  1.0000
  H   H38       1.0  0.75962  0.67557  0.30697  1.0000
  H   H39       1.0  0.12450  0.36537  0.55966  1.0000
  H   H40       1.0  0.49138  0.63392  0.05995  1.0000
  H   H41       1.0  0.89140  0.36174  0.50410  1.0000
  H   H42       1.0  0.25493  0.63740  0.00440  1.0000
  C   C1        1.0  0.50979  0.13158  0.42074  1.0000
  C   C2        1.0  0.64318  0.86821  0.92118  1.0000
  C   C3        1.0  0.70056  0.03902  0.44761  1.0000
  C   C4        1.0  0.74279  0.96041  0.94781  1.0000
  C   C5        1.0  0.68580  0.92514  0.43379  1.0000
  C   C6        1.0  0.61499  0.07448  0.93421  1.0000
  C   C7        1.0  0.47951  0.90265  0.39309  1.0000
  C   C8        1.0  0.38580  0.09758  0.89377  1.0000
  C   C9        1.0  0.29210  0.99400  0.36481  1.0000
  C   C10       1.0  0.28827  0.00658  0.86569  1.0000
  C   C11       1.0  0.30549  0.10830  0.37876  1.0000
  C   C12       1.0  0.41488  0.89207  0.87961  1.0000
  C   C13       1.0  0.32561  0.38026  0.38099  1.0000
  C   C14       1.0  0.70742  0.61964  0.88093  1.0000
  C   C15       1.0  0.34413  0.50290  0.40670  1.0000
  C   C16       1.0  0.84766  0.49691  0.90671  1.0000
  C   C17       1.0  0.17001  0.58828  0.35074  1.0000
  C   C18       1.0  0.75821  0.41176  0.85071  1.0000
  C   C19       1.0  0.10059  0.11297  0.62178  1.0000
  C   C20       1.0  0.21416  0.88708  0.12182  1.0000
  C   C21       1.0  0.21580  0.99602  0.61687  1.0000
  C   C22       1.0  0.21208  0.00409  0.11686  1.0000
  C   C23       1.0  0.09476  0.91374  0.65295  1.0000
  C   C24       1.0  0.00813  0.08640  0.15258  1.0000
  C   C25       1.0  0.85649  0.95639  0.69245  1.0000
  C   C26       1.0  0.81214  0.04389  0.19185  1.0000
  C   C27       1.0  0.75293  0.07461  0.69411  1.0000
  C   C28       1.0  0.82738  0.92562  0.19369  1.0000
  C   C29       1.0  0.21343  0.78857  0.65040  1.0000
  C   C30       1.0  0.00151  0.21164  0.15008  1.0000
  C   C31       1.0  0.44287  0.74417  0.60535  1.0000
  C   C32       1.0  0.18616  0.25591  0.10486  1.0000
  C   C33       1.0  0.54771  0.62598  0.60572  1.0000
  C   C34       1.0  0.17316  0.37407  0.10549  1.0000
  C   C35       1.0  0.21772  0.59109  0.69088  1.0000
  C   C36       1.0  0.80889  0.40911  0.19102  1.0000
  C   C37       1.0  0.10188  0.70794  0.69366  1.0000
  C   C38       1.0  0.80984  0.29227  0.19363  1.0000
  N   N1        1.0  0.87211  0.15225  0.65953  1.0000
  N   N2        1.0  0.02470  0.84794  0.15942  1.0000
  N   N3        1.0  0.43811  0.54995  0.64805  1.0000
  N   N4        1.0  0.98803  0.45013  0.14813  1.0000
  O   O1        1.0  0.42919  0.29960  0.54303  1.0000
  O   O2        1.0  0.72983  0.69996  0.04310  1.0000
  O   O3        1.0  0.79905  0.28795  0.43130  1.0000
  O   O4        1.0  0.08873  0.71153  0.93162  1.0000
  O   O5        1.0  0.95170  0.63252  0.38009  1.0000
  O   O6        1.0  0.58390  0.36779  0.88018  1.0000
  O   O7        1.0  0.25592  0.60459  0.27326  1.0000
  O   O8        1.0  0.85989  0.39539  0.77318  1.0000
  O   O9        1.0  0.35597  0.30376  0.75266  1.0000
  O   O10       1.0  0.66000  0.69650  0.25258  1.0000
  O   O11       1.0  0.94107  0.39949  0.55710  1.0000
  O   O12       1.0  0.34218  0.59979  0.05745  1.0000
