data_image0
_chemical_formula_structural       Cd4H32C40S8N8O12
_chemical_formula_sum              "Cd4 H32 C40 S8 N8 O12"
_cell_length_a       6.54819
_cell_length_b       10.0802
_cell_length_c       18.1315
_cell_angle_alpha    105.143
_cell_angle_beta     89.9999
_cell_angle_gamma    89.9994

_space_group_name_H-M_alt    "P 1"
_space_group_IT_number       1

loop_
  _space_group_symop_operation_xyz
  'x, y, z'

loop_
  _atom_site_type_symbol
  _atom_site_label
  _atom_site_symmetry_multiplicity
  _atom_site_fract_x
  _atom_site_fract_y
  _atom_site_fract_z
  _atom_site_occupancy
  Cd  Cd1       1.0  0.80911  0.31734  0.19365  1.0000
  Cd  Cd2       1.0  0.30912  0.18266  0.30635  1.0000
  Cd  Cd3       1.0  0.19088  0.68266  0.80635  1.0000
  Cd  Cd4       1.0  0.69088  0.81734  0.69365  1.0000
  H   H1        1.0  0.77972  0.01780  0.07409  1.0000
  H   H2        1.0  0.27971  0.48220  0.42591  1.0000
  H   H3        1.0  0.22028  0.98220  0.92591  1.0000
  H   H4        1.0  0.72029  0.51780  0.57409  1.0000
  H   H5        1.0  0.71780  0.90987  0.93323  1.0000
  H   H6        1.0  0.21779  0.59014  0.56677  1.0000
  H   H7        1.0  0.28220  0.09013  0.06677  1.0000
  H   H8        1.0  0.78220  0.40986  0.43324  1.0000
  H   H9        1.0  0.65841  0.06753  0.84886  1.0000
  H   H10       1.0  0.15841  0.43248  0.65114  1.0000
  H   H11       1.0  0.34160  0.93247  0.15114  1.0000
  H   H12       1.0  0.84159  0.56752  0.34886  1.0000
  H   H13       1.0  0.68563  0.31861  0.90284  1.0000
  H   H14       1.0  0.18562  0.18139  0.59717  1.0000
  H   H15       1.0  0.31437  0.68139  0.09716  1.0000
  H   H16       1.0  0.81438  0.81860  0.40283  1.0000
  H   H17       1.0  0.72431  0.51774  0.95008  1.0000
  H   H18       1.0  0.22430  0.98225  0.54993  1.0000
  H   H19       1.0  0.27570  0.48226  0.04992  1.0000
  H   H20       1.0  0.77571  0.01774  0.45008  1.0000
  H   H21       1.0  0.76698  0.76206  0.01449  1.0000
  H   H22       1.0  0.26698  0.73793  0.48551  1.0000
  H   H23       1.0  0.23303  0.23794  0.98551  1.0000
  H   H24       1.0  0.73303  0.26206  0.51449  1.0000
  H   H25       1.0  0.82656  0.83423  0.15812  1.0000
  H   H26       1.0  0.32656  0.66577  0.34188  1.0000
  H   H27       1.0  0.17344  0.16577  0.84188  1.0000
  H   H28       1.0  0.67344  0.33423  0.65812  1.0000
  H   H29       1.0  0.84487  0.65108  0.22700  1.0000
  H   H30       1.0  0.34487  0.84892  0.27300  1.0000
  H   H31       1.0  0.15512  0.34891  0.77300  1.0000
  H   H32       1.0  0.65512  0.15108  0.72700  1.0000
  C   C1        1.0  0.75737  0.07995  0.03367  1.0000
  C   C2        1.0  0.25737  0.42005  0.46633  1.0000
  C   C3        1.0  0.24262  0.92005  0.96633  1.0000
  C   C4        1.0  0.74262  0.57995  0.53367  1.0000
  C   C5        1.0  0.72271  0.02112  0.95625  1.0000
  C   C6        1.0  0.22271  0.47888  0.54375  1.0000
  C   C7        1.0  0.27729  0.97888  0.04375  1.0000
  C   C8        1.0  0.77729  0.52112  0.45625  1.0000
  C   C9        1.0  0.69291  0.10886  0.90916  1.0000
  C   C10       1.0  0.19291  0.39115  0.59084  1.0000
  C   C11       1.0  0.30709  0.89114  0.09084  1.0000
  C   C12       1.0  0.80709  0.60885  0.40916  1.0000
  C   C13       1.0  0.70497  0.25033  0.93993  1.0000
  C   C14       1.0  0.20497  0.24968  0.56008  1.0000
  C   C15       1.0  0.29504  0.74968  0.06007  1.0000
  C   C16       1.0  0.79503  0.75032  0.43992  1.0000
  C   C17       1.0  0.74235  0.30222  0.01825  1.0000
  C   C18       1.0  0.24234  0.19778  0.48176  1.0000
  C   C19       1.0  0.25766  0.69778  0.98175  1.0000
  C   C20       1.0  0.75766  0.80221  0.51824  1.0000
  C   C21       1.0  0.76121  0.45186  0.05435  1.0000
  C   C22       1.0  0.26121  0.04815  0.44565  1.0000
  C   C23       1.0  0.23879  0.54815  0.94565  1.0000
  C   C24       1.0  0.73879  0.95186  0.55435  1.0000
  C   C25       1.0  0.74955  0.54872  0.01145  1.0000
  C   C26       1.0  0.24955  0.95128  0.48855  1.0000
  C   C27       1.0  0.25046  0.45128  0.98854  1.0000
  C   C28       1.0  0.75046  0.04872  0.51145  1.0000
  C   C29       1.0  0.77364  0.68731  0.04824  1.0000
  C   C30       1.0  0.27364  0.81269  0.45176  1.0000
  C   C31       1.0  0.22636  0.31269  0.95176  1.0000
  C   C32       1.0  0.72637  0.18731  0.54824  1.0000
  C   C33       1.0  0.80712  0.72718  0.12682  1.0000
  C   C34       1.0  0.30711  0.77282  0.37318  1.0000
  C   C35       1.0  0.19289  0.27282  0.87318  1.0000
  C   C36       1.0  0.69289  0.22718  0.62682  1.0000
  C   C37       1.0  0.81682  0.62524  0.16570  1.0000
  C   C38       1.0  0.31682  0.87476  0.33430  1.0000
  C   C39       1.0  0.18318  0.37476  0.83430  1.0000
  C   C40       1.0  0.68318  0.12524  0.66570  1.0000
  S   S1        1.0  0.99687  0.10994  0.22045  1.0000
  S   S2        1.0  0.49686  0.39006  0.27955  1.0000
  S   S3        1.0  0.00313  0.89006  0.77955  1.0000
  S   S4        1.0  0.50313  0.60994  0.72045  1.0000
  S   S5        1.0  0.27402  0.44050  0.20667  1.0000
  S   S6        1.0  0.77402  0.05951  0.29333  1.0000
  S   S7        1.0  0.72597  0.55950  0.79333  1.0000
  S   S8        1.0  0.22597  0.94050  0.70667  1.0000
  N   N1        1.0  0.76485  0.21624  0.06370  1.0000
  N   N2        1.0  0.26484  0.28376  0.43630  1.0000
  N   N3        1.0  0.23515  0.78376  0.93630  1.0000
  N   N4        1.0  0.73515  0.71624  0.56370  1.0000
  N   N5        1.0  0.79571  0.49153  0.13026  1.0000
  N   N6        1.0  0.29570  0.00847  0.36974  1.0000
  N   N7        1.0  0.20429  0.50847  0.86974  1.0000
  N   N8        1.0  0.70430  0.99153  0.63026  1.0000
  O   O1        1.0  0.09042  0.46148  0.25711  1.0000
  O   O2        1.0  0.59042  0.03853  0.24289  1.0000
  O   O3        1.0  0.90958  0.53852  0.74289  1.0000
  O   O4        1.0  0.40958  0.96148  0.75711  1.0000
  O   O5        1.0  0.34291  0.56657  0.18913  1.0000
  O   O6        1.0  0.84291  0.93343  0.31087  1.0000
  O   O7        1.0  0.65709  0.43343  0.81087  1.0000
  O   O8        1.0  0.15709  0.06657  0.68913  1.0000
  O   O9        1.0  0.25045  0.32246  0.13973  1.0000
  O   O10       1.0  0.75045  0.17755  0.36027  1.0000
  O   O11       1.0  0.74955  0.67754  0.86027  1.0000
  O   O12       1.0  0.24956  0.82246  0.63973  1.0000
