data_image0
_chemical_formula_structural       Cd4P4H52C56N4O16
_chemical_formula_sum              "Cd4 P4 H52 C56 N4 O16"
_cell_length_a       8.41997
_cell_length_b       14.0239
_cell_length_c       14.9018
_cell_angle_alpha    105.006
_cell_angle_beta     106.379
_cell_angle_gamma    107.474

_space_group_name_H-M_alt    "P 1"
_space_group_IT_number       1

loop_
  _space_group_symop_operation_xyz
  'x, y, z'

loop_
  _atom_site_type_symbol
  _atom_site_label
  _atom_site_symmetry_multiplicity
  _atom_site_fract_x
  _atom_site_fract_y
  _atom_site_fract_z
  _atom_site_occupancy
  Cd  Cd1       1.0  0.10553  0.25014  0.25010  1.0000
  Cd  Cd2       1.0  0.89447  0.74986  0.74990  1.0000
  Cd  Cd3       1.0  0.64883  0.24998  0.24997  1.0000
  Cd  Cd4       1.0  0.35117  0.75002  0.75003  1.0000
  P   P1        1.0  0.25181  0.05174  0.15821  1.0000
  P   P2        1.0  0.54223  0.44838  0.34177  1.0000
  P   P3        1.0  0.74820  0.94825  0.84179  1.0000
  P   P4        1.0  0.45776  0.55162  0.65822  1.0000
  H   H1        1.0  0.34173  0.98034  0.32541  1.0000
  H   H2        1.0  0.53633  0.51964  0.17447  1.0000
  H   H3        1.0  0.65828  0.01965  0.67460  1.0000
  H   H4        1.0  0.46368  0.48036  0.82553  1.0000
  H   H5        1.0  0.15943  0.83862  0.37247  1.0000
  H   H6        1.0  0.44848  0.66129  0.12737  1.0000
  H   H7        1.0  0.84057  0.16138  0.62754  1.0000
  H   H8        1.0  0.55153  0.33871  0.87263  1.0000
  H   H9        1.0  0.83435  0.72687  0.26345  1.0000
  H   H10       1.0  0.34393  0.77294  0.23639  1.0000
  H   H11       1.0  0.16565  0.27313  0.73656  1.0000
  H   H12       1.0  0.65609  0.22707  0.76361  1.0000
  H   H13       1.0  0.69048  0.75802  0.10796  1.0000
  H   H14       1.0  0.32445  0.74190  0.39200  1.0000
  H   H15       1.0  0.30952  0.24198  0.89205  1.0000
  H   H16       1.0  0.67555  0.25811  0.60800  1.0000
  H   H17       1.0  0.87011  0.89870  0.06366  1.0000
  H   H18       1.0  0.40780  0.60124  0.43629  1.0000
  H   H19       1.0  0.12989  0.10130  0.93635  1.0000
  H   H20       1.0  0.59220  0.39876  0.56371  1.0000
  H   H21       1.0  0.10157  0.94178  0.98186  1.0000
  H   H22       1.0  0.67829  0.55854  0.51810  1.0000
  H   H23       1.0  0.89842  0.05821  0.01814  1.0000
  H   H24       1.0  0.32170  0.44146  0.48190  1.0000
  H   H25       1.0  0.31509  0.04320  0.01331  1.0000
  H   H26       1.0  0.75861  0.45696  0.48664  1.0000
  H   H27       1.0  0.68490  0.95680  0.98669  1.0000
  H   H28       1.0  0.24138  0.54304  0.51336  1.0000
  H   H29       1.0  0.25716  0.83475  0.05759  1.0000
  H   H30       1.0  0.86599  0.66531  0.44229  1.0000
  H   H31       1.0  0.74284  0.16525  0.94241  1.0000
  H   H32       1.0  0.13400  0.33469  0.55771  1.0000
  H   H33       1.0  0.46939  0.93629  0.08971  1.0000
  H   H34       1.0  0.94414  0.56352  0.41041  1.0000
  H   H35       1.0  0.53061  0.06371  0.91029  1.0000
  H   H36       1.0  0.05586  0.43648  0.58959  1.0000
  H   H37       1.0  0.79037  0.06063  0.25327  1.0000
  H   H38       1.0  0.97719  0.43974  0.24704  1.0000
  H   H39       1.0  0.20962  0.93937  0.74672  1.0000
  H   H40       1.0  0.02281  0.56026  0.75296  1.0000
  H   H41       1.0  0.73488  0.95167  0.35652  1.0000
  H   H42       1.0  0.92679  0.54840  0.14362  1.0000
  H   H43       1.0  0.26512  0.04833  0.64347  1.0000
  H   H44       1.0  0.07322  0.45160  0.85638  1.0000
  H   H45       1.0  0.29852  0.13558  0.56006  1.0000
  H   H46       1.0  0.10303  0.36447  0.93991  1.0000
  H   H47       1.0  0.70148  0.86441  0.43993  1.0000
  H   H48       1.0  0.89697  0.63553  0.06008  1.0000
  H   H49       1.0  0.32929  0.23308  0.44542  1.0000
  H   H50       1.0  0.15113  0.26703  0.05462  1.0000
  H   H51       1.0  0.67070  0.76692  0.55458  1.0000
  H   H52       1.0  0.84887  0.73297  0.94538  1.0000
  C   C1        1.0  0.11824  0.94872  0.19204  1.0000
  C   C2        1.0  0.47775  0.55130  0.30789  1.0000
  C   C3        1.0  0.88176  0.05128  0.80797  1.0000
  C   C4        1.0  0.52225  0.44870  0.69211  1.0000
  C   C5        1.0  0.19886  0.93061  0.27857  1.0000
  C   C6        1.0  0.48996  0.56938  0.22132  1.0000
  C   C7        1.0  0.80114  0.06938  0.72143  1.0000
  C   C8        1.0  0.51004  0.43063  0.77868  1.0000
  C   C9        1.0  0.09691  0.85121  0.30417  1.0000
  C   C10       1.0  0.44170  0.64871  0.19571  1.0000
  C   C11       1.0  0.90310  0.14879  0.69584  1.0000
  C   C12       1.0  0.55831  0.35129  0.80429  1.0000
  C   C13       1.0  0.91418  0.78828  0.24295  1.0000
  C   C14       1.0  0.38295  0.71159  0.25693  1.0000
  C   C15       1.0  0.08583  0.21171  0.75705  1.0000
  C   C16       1.0  0.61705  0.28842  0.74307  1.0000
  C   C17       1.0  0.83327  0.80568  0.15626  1.0000
  C   C18       1.0  0.37131  0.69424  0.34365  1.0000
  C   C19       1.0  0.16674  0.19432  0.84375  1.0000
  C   C20       1.0  0.62870  0.30576  0.65634  1.0000
  C   C21       1.0  0.93468  0.88555  0.13110  1.0000
  C   C22       1.0  0.41810  0.61441  0.36883  1.0000
  C   C23       1.0  0.06533  0.11445  0.86891  1.0000
  C   C24       1.0  0.58190  0.38559  0.63117  1.0000
  C   C25       1.0  0.24327  0.98011  0.03592  1.0000
  C   C26       1.0  0.72753  0.52007  0.46402  1.0000
  C   C27       1.0  0.75673  0.01989  0.96409  1.0000
  C   C28       1.0  0.27246  0.47993  0.53598  1.0000
  C   C29       1.0  0.32820  0.89831  0.03491  1.0000
  C   C30       1.0  0.89558  0.60169  0.46507  1.0000
  C   C31       1.0  0.67180  0.10169  0.96509  1.0000
  C   C32       1.0  0.10441  0.39831  0.53493  1.0000
  C   C33       1.0  0.32692  0.84171  0.93265  1.0000
  C   C34       1.0  0.05272  0.65818  0.56742  1.0000
  C   C35       1.0  0.67308  0.15829  0.06736  1.0000
  C   C36       1.0  0.94727  0.34182  0.43257  1.0000
  C   C37       1.0  0.89864  0.07341  0.32180  1.0000
  C   C38       1.0  0.00375  0.42676  0.17835  1.0000
  C   C39       1.0  0.10135  0.92659  0.67819  1.0000
  C   C40       1.0  0.99625  0.57324  0.82165  1.0000
  C   C41       1.0  0.86959  0.01334  0.38076  1.0000
  C   C42       1.0  0.97559  0.48672  0.11932  1.0000
  C   C43       1.0  0.13040  0.98666  0.61923  1.0000
  C   C44       1.0  0.02441  0.51328  0.88068  1.0000
  C   C45       1.0  0.01256  0.03217  0.46840  1.0000
  C   C46       1.0  0.01198  0.46784  0.03159  1.0000
  C   C47       1.0  0.98743  0.96782  0.53159  1.0000
  C   C48       1.0  0.98801  0.53215  0.96841  1.0000
  C   C49       1.0  0.18067  0.11419  0.49281  1.0000
  C   C50       1.0  0.07383  0.38588  0.00720  1.0000
  C   C51       1.0  0.81932  0.88580  0.50718  1.0000
  C   C52       1.0  0.92616  0.61411  0.99280  1.0000
  C   C53       1.0  0.20001  0.17031  0.42970  1.0000
  C   C54       1.0  0.10024  0.32980  0.07035  1.0000
  C   C55       1.0  0.79999  0.82969  0.57029  1.0000
  C   C56       1.0  0.89976  0.67019  0.92965  1.0000
  N   N1        1.0  0.06139  0.15027  0.34564  1.0000
  N   N2        1.0  0.06584  0.34991  0.15450  1.0000
  N   N3        1.0  0.93860  0.84973  0.65435  1.0000
  N   N4        1.0  0.93415  0.65009  0.84549  1.0000
  O   O1        1.0  0.16368  0.13035  0.14307  1.0000
  O   O2        1.0  0.39063  0.36984  0.35701  1.0000
  O   O3        1.0  0.83633  0.86965  0.85694  1.0000
  O   O4        1.0  0.60937  0.63016  0.64299  1.0000
  O   O5        1.0  0.44387  0.09995  0.23880  1.0000
  O   O6        1.0  0.60552  0.40011  0.26117  1.0000
  O   O7        1.0  0.55614  0.90005  0.76121  1.0000
  O   O8        1.0  0.39447  0.59989  0.73883  1.0000
  O   O9        1.0  0.23160  0.85126  0.85367  1.0000
  O   O10       1.0  0.02642  0.64850  0.64630  1.0000
  O   O11       1.0  0.76841  0.14874  0.14633  1.0000
  O   O12       1.0  0.97357  0.35149  0.35370  1.0000
  O   O13       1.0  0.42284  0.78754  0.92834  1.0000
  O   O14       1.0  0.20724  0.71240  0.57192  1.0000
  O   O15       1.0  0.57717  0.21245  0.07166  1.0000
  O   O16       1.0  0.79275  0.28760  0.42809  1.0000
