data_image0
_chemical_formula_structural       Gd4H36C24O36
_chemical_formula_sum              "Gd4 H36 C24 O36"
_cell_length_a       6.04733
_cell_length_b       9.52553
_cell_length_c       16.7734
_cell_angle_alpha    89.9998
_cell_angle_beta     94.0586
_cell_angle_gamma    90.0002

_space_group_name_H-M_alt    "P 1"
_space_group_IT_number       1

loop_
  _space_group_symop_operation_xyz
  'x, y, z'

loop_
  _atom_site_type_symbol
  _atom_site_label
  _atom_site_symmetry_multiplicity
  _atom_site_fract_x
  _atom_site_fract_y
  _atom_site_fract_z
  _atom_site_occupancy
  Gd  Gd1       1.0  0.13189  0.81134  0.06252  1.0000
  Gd  Gd2       1.0  0.36811  0.31134  0.43748  1.0000
  Gd  Gd3       1.0  0.86811  0.18866  0.93748  1.0000
  Gd  Gd4       1.0  0.63189  0.68866  0.56252  1.0000
  H   H1        1.0  0.71298  0.90924  0.84613  1.0000
  H   H2        1.0  0.78702  0.40924  0.65387  1.0000
  H   H3        1.0  0.28702  0.09076  0.15387  1.0000
  H   H4        1.0  0.21298  0.59076  0.34613  1.0000
  H   H5        1.0  0.31069  0.54791  0.11468  1.0000
  H   H6        1.0  0.18932  0.04791  0.38532  1.0000
  H   H7        1.0  0.68931  0.45209  0.88532  1.0000
  H   H8        1.0  0.81068  0.95209  0.61468  1.0000
  H   H9        1.0  0.18755  0.47635  0.03852  1.0000
  H   H10       1.0  0.31246  0.97634  0.46148  1.0000
  H   H11       1.0  0.81245  0.52365  0.96148  1.0000
  H   H12       1.0  0.68754  0.02366  0.53852  1.0000
  H   H13       1.0  0.82480  0.72062  0.92237  1.0000
  H   H14       1.0  0.67520  0.22062  0.57763  1.0000
  H   H15       1.0  0.17521  0.27938  0.07763  1.0000
  H   H16       1.0  0.32480  0.77938  0.42237  1.0000
  H   H17       1.0  0.69054  0.72611  0.00425  1.0000
  H   H18       1.0  0.80946  0.22611  0.49575  1.0000
  H   H19       1.0  0.30946  0.27389  0.99575  1.0000
  H   H20       1.0  0.19054  0.77389  0.50425  1.0000
  H   H21       1.0  0.14319  0.95449  0.78409  1.0000
  H   H22       1.0  0.35681  0.45450  0.71591  1.0000
  H   H23       1.0  0.85681  0.04551  0.21591  1.0000
  H   H24       1.0  0.64319  0.54551  0.28408  1.0000
  H   H25       1.0  0.36679  0.83197  0.78929  1.0000
  H   H26       1.0  0.13321  0.33197  0.71071  1.0000
  H   H27       1.0  0.63321  0.16803  0.21071  1.0000
  H   H28       1.0  0.86680  0.66803  0.28929  1.0000
  H   H29       1.0  0.56961  0.00394  0.70778  1.0000
  H   H30       1.0  0.93039  0.50395  0.79223  1.0000
  H   H31       1.0  0.43039  0.99606  0.29222  1.0000
  H   H32       1.0  0.06961  0.49606  0.20777  1.0000
  H   H33       1.0  0.34642  0.12176  0.70544  1.0000
  H   H34       1.0  0.15358  0.62177  0.79457  1.0000
  H   H35       1.0  0.65358  0.87824  0.29457  1.0000
  H   H36       1.0  0.84642  0.37823  0.20543  1.0000
  C   C1        1.0  0.22593  0.87493  0.90121  1.0000
  C   C2        1.0  0.27406  0.37493  0.59879  1.0000
  C   C3        1.0  0.77408  0.12507  0.09879  1.0000
  C   C4        1.0  0.72593  0.62507  0.40120  1.0000
  C   C5        1.0  0.29278  0.92023  0.81982  1.0000
  C   C6        1.0  0.20722  0.42023  0.68018  1.0000
  C   C7        1.0  0.70723  0.07977  0.18018  1.0000
  C   C8        1.0  0.79278  0.57977  0.31982  1.0000
  C   C9        1.0  0.35759  0.16267  0.87293  1.0000
  C   C10       1.0  0.14241  0.66267  0.62707  1.0000
  C   C11       1.0  0.64241  0.83733  0.12707  1.0000
  C   C12       1.0  0.85760  0.33733  0.37293  1.0000
  C   C13       1.0  0.45662  0.04436  0.82434  1.0000
  C   C14       1.0  0.04337  0.54436  0.67567  1.0000
  C   C15       1.0  0.54338  0.95564  0.17566  1.0000
  C   C16       1.0  0.95663  0.45564  0.32433  1.0000
  C   C17       1.0  0.50116  0.09279  0.73994  1.0000
  C   C18       1.0  0.99884  0.59280  0.76005  1.0000
  C   C19       1.0  0.49884  0.90721  0.26006  1.0000
  C   C20       1.0  0.00116  0.40720  0.23994  1.0000
  C   C21       1.0  0.65654  0.21781  0.73885  1.0000
  C   C22       1.0  0.84345  0.71781  0.76115  1.0000
  C   C23       1.0  0.34346  0.78219  0.26115  1.0000
  C   C24       1.0  0.15655  0.28219  0.23885  1.0000
  O   O1        1.0  0.26829  0.75324  0.92743  1.0000
  O   O2        1.0  0.23170  0.25325  0.57257  1.0000
  O   O3        1.0  0.73172  0.24675  0.07257  1.0000
  O   O4        1.0  0.76829  0.74676  0.42743  1.0000
  O   O5        1.0  0.12480  0.96396  0.94476  1.0000
  O   O6        1.0  0.37520  0.46397  0.55524  1.0000
  O   O7        1.0  0.87520  0.03603  0.05524  1.0000
  O   O8        1.0  0.62480  0.53603  0.44476  1.0000
  O   O9        1.0  0.47436  0.20743  0.93395  1.0000
  O   O10       1.0  0.02563  0.70744  0.56605  1.0000
  O   O11       1.0  0.52564  0.79256  0.06605  1.0000
  O   O12       1.0  0.97436  0.29256  0.43395  1.0000
  O   O13       1.0  0.66246  0.00487  0.86670  1.0000
  O   O14       1.0  0.83754  0.50487  0.63331  1.0000
  O   O15       1.0  0.33754  0.99513  0.13330  1.0000
  O   O16       1.0  0.16246  0.49513  0.36669  1.0000
  O   O17       1.0  0.72680  0.27642  0.80344  1.0000
  O   O18       1.0  0.77318  0.77642  0.69656  1.0000
  O   O19       1.0  0.27319  0.72358  0.19656  1.0000
  O   O20       1.0  0.22681  0.22358  0.30344  1.0000
  O   O21       1.0  0.70541  0.26230  0.67030  1.0000
  O   O22       1.0  0.79459  0.76231  0.82969  1.0000
  O   O23       1.0  0.29459  0.73770  0.32970  1.0000
  O   O24       1.0  0.20541  0.23769  0.17030  1.0000
  O   O25       1.0  0.16467  0.20598  0.85161  1.0000
  O   O26       1.0  0.33532  0.70599  0.64839  1.0000
  O   O27       1.0  0.83533  0.79401  0.14839  1.0000
  O   O28       1.0  0.66467  0.29401  0.35161  1.0000
  O   O29       1.0  0.20821  0.56649  0.06858  1.0000
  O   O30       1.0  0.29179  0.06649  0.43142  1.0000
  O   O31       1.0  0.79179  0.43351  0.93142  1.0000
  O   O32       1.0  0.70821  0.93351  0.56858  1.0000
  O   O33       1.0  0.83381  0.69812  0.98120  1.0000
  O   O34       1.0  0.66619  0.19812  0.51880  1.0000
  O   O35       1.0  0.16620  0.30188  0.01880  1.0000
  O   O36       1.0  0.33381  0.80188  0.48120  1.0000
