data_image0
_chemical_formula_structural       Zn2H28C24S2N4O12
_chemical_formula_sum              "Zn2 H28 C24 S2 N4 O12"
_cell_length_a       7.33202
_cell_length_b       9.6938
_cell_length_c       13.6292
_cell_angle_alpha    110.833
_cell_angle_beta     93.5234
_cell_angle_gamma    90.0282

_space_group_name_H-M_alt    "P 1"
_space_group_IT_number       1

loop_
  _space_group_symop_operation_xyz
  'x, y, z'

loop_
  _atom_site_type_symbol
  _atom_site_label
  _atom_site_symmetry_multiplicity
  _atom_site_fract_x
  _atom_site_fract_y
  _atom_site_fract_z
  _atom_site_occupancy
  Zn  Zn1       1.0  0.22056  0.33729  0.53565  1.0000
  Zn  Zn2       1.0  0.77903  0.80216  0.46442  1.0000
  H   H1        1.0  0.49671  0.18165  0.61997  1.0000
  H   H2        1.0  0.50261  0.56203  0.37999  1.0000
  H   H3        1.0  0.30278  0.11280  0.63251  1.0000
  H   H4        1.0  0.69657  0.48087  0.36751  1.0000
  H   H5        1.0  0.52728  0.47870  0.49989  1.0000
  H   H6        1.0  0.47229  0.97857  0.50008  1.0000
  H   H7        1.0  0.57170  0.31878  0.50153  1.0000
  H   H8        1.0  0.42816  0.81694  0.49835  1.0000
  H   H9        1.0  0.12741  0.29607  0.73809  1.0000
  H   H10       1.0  0.87287  0.55830  0.26199  1.0000
  H   H11       1.0  0.14103  0.43706  0.93129  1.0000
  H   H12       1.0  0.85889  0.50557  0.06870  1.0000
  H   H13       1.0  0.34916  0.81022  0.86506  1.0000
  H   H14       1.0  0.65174  0.94509  0.13469  1.0000
  H   H15       1.0  0.33810  0.65081  0.67673  1.0000
  H   H16       1.0  0.66297  0.97437  0.32302  1.0000
  H   H17       1.0  0.21271  0.66394  0.07960  1.0000
  H   H18       1.0  0.78777  0.58400  0.92032  1.0000
  H   H19       1.0  0.15037  0.99344  0.42554  1.0000
  H   H20       1.0  0.84950  0.56882  0.57423  1.0000
  H   H21       1.0  0.17421  0.80721  0.24890  1.0000
  H   H22       1.0  0.82584  0.55840  0.75066  1.0000
  H   H23       1.0  0.30050  0.16588  0.14209  1.0000
  H   H24       1.0  0.69938  0.02379  0.85837  1.0000
  H   H25       1.0  0.27928  0.33778  0.32595  1.0000
  H   H26       1.0  0.72014  0.01261  0.67467  1.0000
  H   H27       1.0  0.27309  0.93314  0.01510  1.0000
  H   H28       1.0  0.72697  0.91758  0.98489  1.0000
  C   C1        1.0  0.18141  0.40908  0.77053  1.0000
  C   C2        1.0  0.81915  0.63883  0.22945  1.0000
  C   C3        1.0  0.18589  0.48932  0.87774  1.0000
  C   C4        1.0  0.81453  0.61160  0.12219  1.0000
  C   C5        1.0  0.24323  0.63862  0.91641  1.0000
  C   C6        1.0  0.75727  0.72206  0.08337  1.0000
  C   C7        1.0  0.29974  0.69646  0.84175  1.0000
  C   C8        1.0  0.70101  0.85466  0.15800  1.0000
  C   C9        1.0  0.29603  0.60801  0.73610  1.0000
  C   C10       1.0  0.70493  0.87213  0.26369  1.0000
  C   C11       1.0  0.23707  0.72546  0.02804  1.0000
  C   C12       1.0  0.76325  0.69706  0.97174  1.0000
  C   C13       1.0  0.18759  0.02695  0.36109  1.0000
  C   C14       1.0  0.81211  0.66652  0.63881  1.0000
  C   C15       1.0  0.19859  0.92300  0.26052  1.0000
  C   C16       1.0  0.80134  0.66269  0.73926  1.0000
  C   C17       1.0  0.23976  0.96999  0.17775  1.0000
  C   C18       1.0  0.76029  0.79223  0.82226  1.0000
  C   C19       1.0  0.26913  0.12247  0.20304  1.0000
  C   C20       1.0  0.73078  0.91964  0.79727  1.0000
  C   C21       1.0  0.25828  0.21919  0.30557  1.0000
  C   C22       1.0  0.74134  0.91426  0.69484  1.0000
  C   C23       1.0  0.25191  0.87414  0.06874  1.0000
  C   C24       1.0  0.74824  0.80509  0.93113  1.0000
  S   S1        1.0  0.18292  0.61898  0.45092  1.0000
  S   S2        1.0  0.81669  0.16820  0.54926  1.0000
  N   N1        1.0  0.23605  0.46638  0.70041  1.0000
  N   N2        1.0  0.76469  0.76634  0.29960  1.0000
  N   N3        1.0  0.21787  0.17266  0.38387  1.0000
  N   N4        1.0  0.78169  0.78963  0.61626  1.0000
  O   O1        1.0  0.10312  0.49436  0.47668  1.0000
  O   O2        1.0  0.89663  0.01792  0.52339  1.0000
  O   O3        1.0  0.03172  0.70694  0.42797  1.0000
  O   O4        1.0  0.96794  0.27927  0.57266  1.0000
  O   O5        1.0  0.28752  0.55925  0.35412  1.0000
  O   O6        1.0  0.71163  0.20491  0.64587  1.0000
  O   O7        1.0  0.30623  0.71322  0.54081  1.0000
  O   O8        1.0  0.69384  0.17263  0.45926  1.0000
  O   O9        1.0  0.36743  0.15134  0.58728  1.0000
  O   O10       1.0  0.63188  0.56459  0.41272  1.0000
  O   O11       1.0  0.49165  0.40640  0.53148  1.0000
  O   O12       1.0  0.50799  0.87477  0.46833  1.0000
