data_image0
_chemical_formula_structural       La2H10C18N6O14
_chemical_formula_sum              "La2 H10 C18 N6 O14"
_cell_length_a       6.35543
_cell_length_b       6.77432
_cell_length_c       13.4664
_cell_angle_alpha    82.7769
_cell_angle_beta     83.4845
_cell_angle_gamma    62.7394

_space_group_name_H-M_alt    "P 1"
_space_group_IT_number       1

loop_
  _space_group_symop_operation_xyz
  'x, y, z'

loop_
  _atom_site_type_symbol
  _atom_site_label
  _atom_site_symmetry_multiplicity
  _atom_site_fract_x
  _atom_site_fract_y
  _atom_site_fract_z
  _atom_site_occupancy
  La  La1       1.0  0.76249  0.33845  0.28770  1.0000
  La  La2       1.0  0.23752  0.66155  0.71230  1.0000
  H   H1        1.0  0.30440  0.85945  0.13517  1.0000
  H   H2        1.0  0.69559  0.14054  0.86483  1.0000
  H   H3        1.0  0.32381  0.60065  0.98487  1.0000
  H   H4        1.0  0.67619  0.39934  0.01513  1.0000
  H   H5        1.0  0.85272  0.79114  0.39459  1.0000
  H   H6        1.0  0.14729  0.20887  0.60541  1.0000
  H   H7        1.0  0.26305  0.03956  0.32789  1.0000
  H   H8        1.0  0.73695  0.96044  0.67211  1.0000
  H   H9        1.0  0.21282  0.83191  0.36374  1.0000
  H   H10       1.0  0.78718  0.16810  0.63626  1.0000
  C   C1        1.0  0.68401  0.89778  0.19329  1.0000
  C   C2        1.0  0.31599  0.10221  0.80671  1.0000
  C   C3        1.0  0.58741  0.95430  0.09056  1.0000
  C   C4        1.0  0.41258  0.04570  0.90944  1.0000
  C   C5        1.0  0.39139  0.92209  0.07400  1.0000
  C   C6        1.0  0.60860  0.07791  0.92601  1.0000
  C   C7        1.0  0.24008  0.42812  0.17829  1.0000
  C   C8        1.0  0.75992  0.57188  0.82171  1.0000
  C   C9        1.0  0.11152  0.47145  0.08376  1.0000
  C   C10       1.0  0.88847  0.52855  0.91624  1.0000
  C   C11       1.0  0.18031  0.55391  0.99186  1.0000
  C   C12       1.0  0.81969  0.44609  0.00814  1.0000
  C   C13       1.0  0.70196  0.52719  0.52669  1.0000
  C   C14       1.0  0.29804  0.47282  0.47332  1.0000
  C   C15       1.0  0.59882  0.77700  0.51354  1.0000
  C   C16       1.0  0.40119  0.22300  0.48646  1.0000
  C   C17       1.0  0.69645  0.88497  0.44192  1.0000
  C   C18       1.0  0.30355  0.11505  0.55808  1.0000
  N   N1        1.0  0.69536  0.03323  0.01650  1.0000
  N   N2        1.0  0.30463  0.96676  0.98350  1.0000
  N   N3        1.0  0.93011  0.41867  0.09133  1.0000
  N   N4        1.0  0.06989  0.58133  0.90867  1.0000
  N   N5        1.0  0.40369  0.89253  0.57156  1.0000
  N   N6        1.0  0.59632  0.10748  0.42844  1.0000
  O   O1        1.0  0.78429  0.00591  0.21849  1.0000
  O   O2        1.0  0.21571  0.99409  0.78151  1.0000
  O   O3        1.0  0.65502  0.74312  0.24785  1.0000
  O   O4        1.0  0.34498  0.25688  0.75215  1.0000
  O   O5        1.0  0.42317  0.45911  0.17144  1.0000
  O   O6        1.0  0.57682  0.54089  0.82856  1.0000
  O   O7        1.0  0.15692  0.35585  0.25659  1.0000
  O   O8        1.0  0.84308  0.64416  0.74341  1.0000
  O   O9        1.0  0.83702  0.41786  0.45627  1.0000
  O   O10       1.0  0.16299  0.58214  0.54373  1.0000
  O   O11       1.0  0.63711  0.44453  0.60786  1.0000
  O   O12       1.0  0.36289  0.55548  0.39214  1.0000
  O   O13       1.0  0.13594  0.99639  0.34517  1.0000
  O   O14       1.0  0.86407  0.00360  0.65483  1.0000
