data_image0
_chemical_formula_structural       Cu2H8C12N4Cl4O8
_chemical_formula_sum              "Cu2 H8 C12 N4 Cl4 O8"
_cell_length_a       6.51006
_cell_length_b       6.51006
_cell_length_c       13.7395
_cell_angle_alpha    86.7985
_cell_angle_beta     86.7993
_cell_angle_gamma    62.0795

_space_group_name_H-M_alt    "P 1"
_space_group_IT_number       1

loop_
  _space_group_symop_operation_xyz
  'x, y, z'

loop_
  _atom_site_type_symbol
  _atom_site_label
  _atom_site_symmetry_multiplicity
  _atom_site_fract_x
  _atom_site_fract_y
  _atom_site_fract_z
  _atom_site_occupancy
  Cu  Cu1       1.0  0.10298  0.89703  0.75000  1.0000
  Cu  Cu2       1.0  0.89701  0.10299  0.25000  1.0000
  H   H1        1.0  0.34619  0.51946  0.89526  1.0000
  H   H2        1.0  0.48053  0.65382  0.60474  1.0000
  H   H3        1.0  0.65383  0.48053  0.10475  1.0000
  H   H4        1.0  0.51945  0.34618  0.39525  1.0000
  H   H5        1.0  0.66413  0.06842  0.05500  1.0000
  H   H6        1.0  0.93157  0.33585  0.44501  1.0000
  H   H7        1.0  0.33588  0.93157  0.94500  1.0000
  H   H8        1.0  0.06844  0.66412  0.55500  1.0000
  C   C1        1.0  0.46030  0.46523  0.83057  1.0000
  C   C2        1.0  0.53478  0.53970  0.66944  1.0000
  C   C3        1.0  0.53970  0.53478  0.16944  1.0000
  C   C4        1.0  0.46523  0.46030  0.33056  1.0000
  C   C5        1.0  0.66838  0.25699  0.83042  1.0000
  C   C6        1.0  0.74300  0.33163  0.66958  1.0000
  C   C7        1.0  0.33163  0.74299  0.16958  1.0000
  C   C8        1.0  0.25701  0.66837  0.33041  1.0000
  C   C9        1.0  0.74732  0.09179  0.91763  1.0000
  C   C10       1.0  0.90820  0.25268  0.58237  1.0000
  C   C11       1.0  0.25268  0.90820  0.08237  1.0000
  C   C12       1.0  0.09179  0.74731  0.41763  1.0000
  N   N1        1.0  0.39634  0.60366  0.75000  1.0000
  N   N2        1.0  0.60367  0.39634  0.24999  1.0000
  N   N3        1.0  0.80627  0.19374  0.75000  1.0000
  N   N4        1.0  0.19373  0.80626  0.25001  1.0000
  Cl  Cl1       1.0  0.91287  0.71746  0.68304  1.0000
  Cl  Cl2       1.0  0.28253  0.08715  0.81696  1.0000
  Cl  Cl3       1.0  0.08713  0.28254  0.31696  1.0000
  Cl  Cl4       1.0  0.71746  0.91286  0.18304  1.0000
  O   O1        1.0  0.92043  0.90076  0.91328  1.0000
  O   O2        1.0  0.09924  0.07958  0.58673  1.0000
  O   O3        1.0  0.07959  0.09924  0.08672  1.0000
  O   O4        1.0  0.90076  0.92042  0.41328  1.0000
  O   O5        1.0  0.60929  0.17920  0.99525  1.0000
  O   O6        1.0  0.82079  0.39071  0.50474  1.0000
  O   O7        1.0  0.39071  0.82082  0.00475  1.0000
  O   O8        1.0  0.17920  0.60930  0.49525  1.0000
