data_image0
_chemical_formula_structural       Na2H14C12N2Cl2O16
_chemical_formula_sum              "Na2 H14 C12 N2 Cl2 O16"
_cell_length_a       5.94161
_cell_length_b       7.36102
_cell_length_c       12.2579
_cell_angle_alpha    100.457
_cell_angle_beta     103.989
_cell_angle_gamma    97.5595

_space_group_name_H-M_alt    "P 1"
_space_group_IT_number       1

loop_
  _space_group_symop_operation_xyz
  'x, y, z'

loop_
  _atom_site_type_symbol
  _atom_site_label
  _atom_site_symmetry_multiplicity
  _atom_site_fract_x
  _atom_site_fract_y
  _atom_site_fract_z
  _atom_site_occupancy
  Na  Na1       1.0  0.50000  0.50000  0.50000  1.0000
  Na  Na2       1.0  0.50000  0.00000  0.50000  1.0000
  H   H1        1.0  0.95953  0.07116  0.26278  1.0000
  H   H2        1.0  0.04049  0.92884  0.73722  1.0000
  H   H3        1.0  0.35364  0.33250  0.20639  1.0000
  H   H4        1.0  0.64636  0.66751  0.79361  1.0000
  H   H5        1.0  0.24358  0.36400  0.99994  1.0000
  H   H6        1.0  0.75641  0.63598  0.00006  1.0000
  H   H7        1.0  0.50186  0.25884  0.87488  1.0000
  H   H8        1.0  0.49813  0.74115  0.12512  1.0000
  H   H9        1.0  0.85233  0.11944  0.95900  1.0000
  H   H10       1.0  0.14766  0.88056  0.04100  1.0000
  H   H11       1.0  0.22604  0.25744  0.60319  1.0000
  H   H12       1.0  0.77397  0.74258  0.39681  1.0000
  H   H13       1.0  0.12184  0.19108  0.46889  1.0000
  H   H14       1.0  0.87816  0.80893  0.53111  1.0000
  C   C1        1.0  0.65281  0.21096  0.19090  1.0000
  C   C2        1.0  0.34719  0.78905  0.80911  1.0000
  C   C3        1.0  0.71581  0.18728  0.31229  1.0000
  C   C4        1.0  0.28420  0.81271  0.68771  1.0000
  C   C5        1.0  0.45770  0.28845  0.14806  1.0000
  C   C6        1.0  0.54231  0.71156  0.85194  1.0000
  C   C7        1.0  0.39750  0.30526  0.03402  1.0000
  C   C8        1.0  0.60250  0.69473  0.96599  1.0000
  C   C9        1.0  0.53984  0.24636  0.96425  1.0000
  C   C10       1.0  0.46014  0.75362  0.03574  1.0000
  C   C11       1.0  0.73436  0.17069  0.00801  1.0000
  C   C12       1.0  0.26564  0.82930  0.99200  1.0000
  N   N1        1.0  0.78710  0.15150  0.11885  1.0000
  N   N2        1.0  0.21291  0.84850  0.88116  1.0000
  Cl  Cl1       1.0  0.91672  0.35071  0.73439  1.0000
  Cl  Cl2       1.0  0.08329  0.64929  0.26560  1.0000
  O   O1        1.0  0.97035  0.07055  0.15504  1.0000
  O   O2        1.0  0.02965  0.92945  0.84496  1.0000
  O   O3        1.0  0.89479  0.10073  0.34079  1.0000
  O   O4        1.0  0.10521  0.89927  0.65921  1.0000
  O   O5        1.0  0.60246  0.24218  0.38011  1.0000
  O   O6        1.0  0.39754  0.75781  0.61989  1.0000
  O   O7        1.0  0.91251  0.42669  0.85168  1.0000
  O   O8        1.0  0.08747  0.57328  0.14831  1.0000
  O   O9        1.0  0.75552  0.16957  0.68914  1.0000
  O   O10       1.0  0.24449  0.83042  0.31084  1.0000
  O   O11       1.0  0.84670  0.48184  0.66139  1.0000
  O   O12       1.0  0.15330  0.51818  0.33862  1.0000
  O   O13       1.0  0.15811  0.32481  0.73557  1.0000
  O   O14       1.0  0.84191  0.67522  0.26443  1.0000
  O   O15       1.0  0.27147  0.23426  0.53030  1.0000
  O   O16       1.0  0.72853  0.76574  0.46969  1.0000
