data_image0
_chemical_formula_structural       Ag2H16C12N6O6
_chemical_formula_sum              "Ag2 H16 C12 N6 O6"
_cell_length_a       6.81103
_cell_length_b       7.91488
_cell_length_c       8.17085
_cell_angle_alpha    108.237
_cell_angle_beta     90.2662
_cell_angle_gamma    97.6298

_space_group_name_H-M_alt    "P 1"
_space_group_IT_number       1

loop_
  _space_group_symop_operation_xyz
  'x, y, z'

loop_
  _atom_site_type_symbol
  _atom_site_label
  _atom_site_symmetry_multiplicity
  _atom_site_fract_x
  _atom_site_fract_y
  _atom_site_fract_z
  _atom_site_occupancy
  Ag  Ag1       1.0  0.70234  0.01782  0.91715  1.0000
  Ag  Ag2       1.0  0.29766  0.98218  0.08286  1.0000
  H   H1        1.0  0.47750  0.70023  0.94509  1.0000
  H   H2        1.0  0.52251  0.29976  0.05491  1.0000
  H   H3        1.0  0.24068  0.61042  0.89702  1.0000
  H   H4        1.0  0.75932  0.38957  0.10298  1.0000
  H   H5        1.0  0.12496  0.50629  0.61046  1.0000
  H   H6        1.0  0.87502  0.49374  0.38955  1.0000
  H   H7        1.0  0.19723  0.50030  0.30491  1.0000
  H   H8        1.0  0.80277  0.49972  0.69510  1.0000
  H   H9        1.0  0.49382  0.69553  0.25708  1.0000
  H   H10       1.0  0.50619  0.30448  0.74291  1.0000
  H   H11       1.0  0.88670  0.84024  0.48881  1.0000
  H   H12       1.0  0.11330  0.15976  0.51118  1.0000
  H   H13       1.0  0.75251  0.96089  0.38840  1.0000
  H   H14       1.0  0.24749  0.03912  0.61160  1.0000
  H   H15       1.0  0.80221  0.04097  0.61660  1.0000
  H   H16       1.0  0.19779  0.95903  0.38340  1.0000
  C   C1        1.0  0.37453  0.70868  0.71779  1.0000
  C   C2        1.0  0.62547  0.29132  0.28221  1.0000
  C   C3        1.0  0.24730  0.59443  0.58210  1.0000
  C   C4        1.0  0.75269  0.40559  0.41790  1.0000
  C   C5        1.0  0.28945  0.59012  0.41492  1.0000
  C   C6        1.0  0.71055  0.40990  0.58509  1.0000
  C   C7        1.0  0.45572  0.69900  0.38721  1.0000
  C   C8        1.0  0.54429  0.30101  0.61279  1.0000
  C   C9        1.0  0.57684  0.81037  0.52789  1.0000
  C   C10       1.0  0.42317  0.18963  0.47211  1.0000
  C   C11       1.0  0.76365  0.92030  0.50435  1.0000
  C   C12       1.0  0.23635  0.07971  0.49565  1.0000
  N   N1        1.0  0.13466  0.28043  0.91088  1.0000
  N   N2        1.0  0.86534  0.71955  0.08911  1.0000
  N   N3        1.0  0.53338  0.81678  0.69141  1.0000
  N   N4        1.0  0.46663  0.18322  0.30859  1.0000
  N   N5        1.0  0.34548  0.71356  0.88955  1.0000
  N   N6        1.0  0.65453  0.28644  0.11045  1.0000
  O   O1        1.0  0.08125  0.12140  0.91722  1.0000
  O   O2        1.0  0.91875  0.87857  0.08276  1.0000
  O   O3        1.0  0.02404  0.34964  0.83408  1.0000
  O   O4        1.0  0.97596  0.65033  0.16591  1.0000
  O   O5        1.0  0.29971  0.36747  0.98206  1.0000
  O   O6        1.0  0.70027  0.63251  0.01796  1.0000
