data_image0
_chemical_formula_structural       Cd4H44C52Br4N16O20
_chemical_formula_sum              "Cd4 H44 C52 Br4 N16 O20"
_cell_length_a       8.76759
_cell_length_b       14.9633
_cell_length_c       14.9806
_cell_angle_alpha    103.975
_cell_angle_beta     107.029
_cell_angle_gamma    107.027

_space_group_name_H-M_alt    "P 1"
_space_group_IT_number       1

loop_
  _space_group_symop_operation_xyz
  'x, y, z'

loop_
  _atom_site_type_symbol
  _atom_site_label
  _atom_site_symmetry_multiplicity
  _atom_site_fract_x
  _atom_site_fract_y
  _atom_site_fract_z
  _atom_site_occupancy
  Cd  Cd1       1.0  0.90802  0.05423  0.67811  1.0000
  Cd  Cd2       1.0  0.67581  0.44572  0.82190  1.0000
  Cd  Cd3       1.0  0.09198  0.94577  0.32189  1.0000
  Cd  Cd4       1.0  0.32419  0.55428  0.17810  1.0000
  H   H1        1.0  0.57332  0.78021  0.99634  1.0000
  H   H2        1.0  0.29706  0.71987  0.50368  1.0000
  H   H3        1.0  0.42668  0.21979  0.00366  1.0000
  H   H4        1.0  0.70294  0.28013  0.49632  1.0000
  H   H5        1.0  0.66578  0.62370  0.38318  1.0000
  H   H6        1.0  0.15902  0.87622  0.11671  1.0000
  H   H7        1.0  0.33422  0.37630  0.61682  1.0000
  H   H8        1.0  0.84098  0.12378  0.88330  1.0000
  H   H9        1.0  0.85015  0.83286  0.68463  1.0000
  H   H10       1.0  0.83267  0.66698  0.81531  1.0000
  H   H11       1.0  0.14984  0.16714  0.31537  1.0000
  H   H12       1.0  0.16733  0.33302  0.18468  1.0000
  H   H13       1.0  0.83482  0.94378  0.45498  1.0000
  H   H14       1.0  0.93607  0.55617  0.04503  1.0000
  H   H15       1.0  0.16518  0.05622  0.54502  1.0000
  H   H16       1.0  0.06393  0.44383  0.95496  1.0000
  H   H17       1.0  0.47656  0.99326  0.65530  1.0000
  H   H18       1.0  0.32835  0.50682  0.84475  1.0000
  H   H19       1.0  0.52344  0.00674  0.34470  1.0000
  H   H20       1.0  0.67165  0.49318  0.15525  1.0000
  H   H21       1.0  0.24308  0.96172  0.68536  1.0000
  H   H22       1.0  0.09623  0.53827  0.81464  1.0000
  H   H23       1.0  0.75692  0.03828  0.31464  1.0000
  H   H24       1.0  0.90377  0.46173  0.18536  1.0000
  H   H25       1.0  0.25361  0.95298  0.80412  1.0000
  H   H26       1.0  0.99673  0.54703  0.69588  1.0000
  H   H27       1.0  0.74639  0.04702  0.19588  1.0000
  H   H28       1.0  0.00328  0.45297  0.30413  1.0000
  H   H29       1.0  0.19035  0.84312  0.69928  1.0000
  H   H30       1.0  0.14813  0.65686  0.80071  1.0000
  H   H31       1.0  0.80965  0.15688  0.30072  1.0000
  H   H32       1.0  0.85187  0.34314  0.19929  1.0000
  H   H33       1.0  0.66038  0.90859  0.85133  1.0000
  H   H34       1.0  0.40062  0.59137  0.64867  1.0000
  H   H35       1.0  0.33961  0.09141  0.14868  1.0000
  H   H36       1.0  0.59938  0.40863  0.35133  1.0000
  H   H37       1.0  0.44800  0.82171  0.82448  1.0000
  H   H38       1.0  0.30193  0.67824  0.67547  1.0000
  H   H39       1.0  0.55200  0.17829  0.17552  1.0000
  H   H40       1.0  0.69807  0.32176  0.32453  1.0000
  H   H41       1.0  0.53117  0.94477  0.91406  1.0000
  H   H42       1.0  0.17242  0.55517  0.58594  1.0000
  H   H43       1.0  0.46883  0.05523  0.08594  1.0000
  H   H44       1.0  0.82758  0.44483  0.41406  1.0000
  C   C1        1.0  0.78397  0.87370  0.11713  1.0000
  C   C2        1.0  0.29310  0.62622  0.38287  1.0000
  C   C3        1.0  0.21603  0.12630  0.88287  1.0000
  C   C4        1.0  0.70690  0.37378  0.61713  1.0000
  C   C5        1.0  0.71528  0.81377  0.17169  1.0000
  C   C6        1.0  0.22985  0.68620  0.32832  1.0000
  C   C7        1.0  0.28472  0.18623  0.82831  1.0000
  C   C8        1.0  0.77015  0.31380  0.67169  1.0000
  C   C9        1.0  0.57078  0.72421  0.13947  1.0000
  C   C10       1.0  0.20730  0.77582  0.36055  1.0000
  C   C11       1.0  0.42922  0.27579  0.86053  1.0000
  C   C12       1.0  0.79270  0.22418  0.63945  1.0000
  C   C13       1.0  0.43224  0.66336  0.03883  1.0000
  C   C14       1.0  0.23038  0.83670  0.46122  1.0000
  C   C15       1.0  0.56776  0.33664  0.96117  1.0000
  C   C16       1.0  0.76962  0.16330  0.53878  1.0000
  C   C17       1.0  0.70873  0.77223  0.29991  1.0000
  C   C18       1.0  0.13658  0.72774  0.20006  1.0000
  C   C19       1.0  0.29127  0.22777  0.70009  1.0000
  C   C20       1.0  0.86342  0.27226  0.79994  1.0000
  C   C21       1.0  0.74954  0.78196  0.40466  1.0000
  C   C22       1.0  0.06288  0.71799  0.09531  1.0000
  C   C23       1.0  0.25047  0.21804  0.59534  1.0000
  C   C24       1.0  0.93711  0.28201  0.90469  1.0000
  C   C25       1.0  0.71980  0.70006  0.43643  1.0000
  C   C26       1.0  0.08338  0.79986  0.06348  1.0000
  C   C27       1.0  0.28020  0.29994  0.56357  1.0000
  C   C28       1.0  0.91663  0.20014  0.93651  1.0000
  C   C29       1.0  0.75887  0.71852  0.53805  1.0000
  C   C30       1.0  0.00240  0.78137  0.96185  1.0000
  C   C31       1.0  0.24113  0.28148  0.46195  1.0000
  C   C32       1.0  0.99760  0.21863  0.03815  1.0000
  C   C33       1.0  0.82270  0.81637  0.60522  1.0000
  C   C34       1.0  0.90116  0.68350  0.89473  1.0000
  C   C35       1.0  0.17730  0.18363  0.39478  1.0000
  C   C36       1.0  0.09883  0.31650  0.10526  1.0000
  C   C37       1.0  0.81561  0.87822  0.47667  1.0000
  C   C38       1.0  0.96075  0.62171  0.02334  1.0000
  C   C39       1.0  0.18439  0.12178  0.52333  1.0000
  C   C40       1.0  0.03925  0.37828  0.97666  1.0000
  C   C41       1.0  0.54583  0.96888  0.71266  1.0000
  C   C42       1.0  0.36460  0.53115  0.78737  1.0000
  C   C43       1.0  0.45417  0.03112  0.28734  1.0000
  C   C44       1.0  0.63540  0.46885  0.21263  1.0000
  C   C45       1.0  0.27577  0.92297  0.73691  1.0000
  C   C46       1.0  0.11612  0.57702  0.76309  1.0000
  C   C47       1.0  0.72423  0.07703  0.26309  1.0000
  C   C48       1.0  0.88388  0.42298  0.23691  1.0000
  C   C49       1.0  0.52839  0.90070  0.84290  1.0000
  C   C50       1.0  0.28493  0.59926  0.65708  1.0000
  C   C51       1.0  0.47161  0.09930  0.15710  1.0000
  C   C52       1.0  0.71507  0.40074  0.34292  1.0000
  Br  Br1       1.0  0.72291  0.61088  0.58549  1.0000
  Br  Br2       1.0  0.02647  0.88897  0.91431  1.0000
  Br  Br3       1.0  0.27709  0.38911  0.41451  1.0000
  Br  Br4       1.0  0.97354  0.11104  0.08569  1.0000
  N   N1        1.0  0.80063  0.84303  0.27287  1.0000
  N   N2        1.0  0.18466  0.65692  0.22712  1.0000
  N   N3        1.0  0.19937  0.15698  0.72713  1.0000
  N   N4        1.0  0.81534  0.34308  0.77288  1.0000
  N   N5        1.0  0.56962  0.69844  0.22093  1.0000
  N   N6        1.0  0.15045  0.80159  0.27907  1.0000
  N   N7        1.0  0.43038  0.30156  0.77907  1.0000
  N   N8        1.0  0.84955  0.19841  0.72093  1.0000
  N   N9        1.0  0.84973  0.89444  0.57376  1.0000
  N   N10       1.0  0.88167  0.60545  0.92622  1.0000
  N   N11       1.0  0.15028  0.10556  0.42624  1.0000
  N   N12       1.0  0.11833  0.39455  0.07378  1.0000
  N   N13       1.0  0.45577  0.93550  0.76422  1.0000
  N   N14       1.0  0.25633  0.56454  0.73582  1.0000
  N   N15       1.0  0.54423  0.06450  0.23578  1.0000
  N   N16       1.0  0.74367  0.43546  0.26419  1.0000
  O   O1        1.0  0.92770  0.94702  0.16221  1.0000
  O   O2        1.0  0.31822  0.55285  0.33771  1.0000
  O   O3        1.0  0.07229  0.05298  0.83779  1.0000
  O   O4        1.0  0.68178  0.44715  0.66229  1.0000
  O   O5        1.0  0.69215  0.84944  0.02255  1.0000
  O   O6        1.0  0.32029  0.65052  0.47747  1.0000
  O   O7        1.0  0.30785  0.15055  0.97745  1.0000
  O   O8        1.0  0.67971  0.34948  0.52253  1.0000
  O   O9        1.0  0.43569  0.69628  0.96753  1.0000
  O   O10       1.0  0.27239  0.80379  0.53252  1.0000
  O   O11       1.0  0.56431  0.30372  0.03247  1.0000
  O   O12       1.0  0.72762  0.19621  0.46748  1.0000
  O   O13       1.0  0.31591  0.58220  0.02699  1.0000
  O   O14       1.0  0.20695  0.91783  0.47309  1.0000
  O   O15       1.0  0.68409  0.41780  0.97302  1.0000
  O   O16       1.0  0.79306  0.08218  0.52691  1.0000
  O   O17       1.0  0.69731  0.97343  0.72860  1.0000
  O   O18       1.0  0.49550  0.52651  0.77138  1.0000
  O   O19       1.0  0.30269  0.02657  0.27140  1.0000
  O   O20       1.0  0.50450  0.47349  0.22862  1.0000
