data_image0
_chemical_formula_structural       Ag4H20C20N8O16
_chemical_formula_sum              "Ag4 H20 C20 N8 O16"
_cell_length_a       5.10169
_cell_length_b       7.82008
_cell_length_c       18.0603
_cell_angle_alpha    89.9996
_cell_angle_beta     90.0013
_cell_angle_gamma    94.1515

_space_group_name_H-M_alt    "P 1"
_space_group_IT_number       1

loop_
  _space_group_symop_operation_xyz
  'x, y, z'

loop_
  _atom_site_type_symbol
  _atom_site_label
  _atom_site_symmetry_multiplicity
  _atom_site_fract_x
  _atom_site_fract_y
  _atom_site_fract_z
  _atom_site_occupancy
  Ag  Ag1       1.0  0.26953  0.70593  0.16537  1.0000
  Ag  Ag2       1.0  0.23046  0.79406  0.66538  1.0000
  Ag  Ag3       1.0  0.73047  0.29407  0.83462  1.0000
  Ag  Ag4       1.0  0.76954  0.20592  0.33463  1.0000
  H   H1        1.0  0.41083  0.00982  0.94059  1.0000
  H   H2        1.0  0.08918  0.49018  0.44060  1.0000
  H   H3        1.0  0.58918  0.99018  0.05940  1.0000
  H   H4        1.0  0.91080  0.50980  0.55940  1.0000
  H   H5        1.0  0.89818  0.63135  0.04051  1.0000
  H   H6        1.0  0.60185  0.86866  0.54052  1.0000
  H   H7        1.0  0.10184  0.36866  0.95948  1.0000
  H   H8        1.0  0.39813  0.13133  0.45949  1.0000
  H   H9        1.0  0.62660  0.61849  0.92502  1.0000
  H   H10       1.0  0.87339  0.88152  0.42502  1.0000
  H   H11       1.0  0.37340  0.38152  0.07498  1.0000
  H   H12       1.0  0.12659  0.11847  0.57499  1.0000
  H   H13       1.0  0.75749  0.80642  0.81795  1.0000
  H   H14       1.0  0.74249  0.69360  0.31795  1.0000
  H   H15       1.0  0.24252  0.19360  0.18205  1.0000
  H   H16       1.0  0.25749  0.30640  0.68205  1.0000
  H   H17       1.0  0.17060  0.00730  0.83018  1.0000
  H   H18       1.0  0.32938  0.49270  0.33019  1.0000
  H   H19       1.0  0.82940  0.99271  0.16981  1.0000
  H   H20       1.0  0.67061  0.50729  0.66981  1.0000
  C   C1        1.0  0.18655  0.82001  0.99711  1.0000
  C   C2        1.0  0.31346  0.68001  0.49712  1.0000
  C   C3        1.0  0.81346  0.18001  0.00288  1.0000
  C   C4        1.0  0.68652  0.31998  0.50289  1.0000
  C   C5        1.0  0.95394  0.70923  0.99229  1.0000
  C   C6        1.0  0.54607  0.79078  0.49230  1.0000
  C   C7        1.0  0.04607  0.29078  0.00771  1.0000
  C   C8        1.0  0.45390  0.20920  0.50771  1.0000
  C   C9        1.0  0.80410  0.70497  0.92859  1.0000
  C   C10       1.0  0.69590  0.79505  0.42860  1.0000
  C   C11       1.0  0.19591  0.29504  0.07140  1.0000
  C   C12       1.0  0.30408  0.20495  0.57141  1.0000
  C   C13       1.0  0.87596  0.81133  0.86782  1.0000
  C   C14       1.0  0.62402  0.68868  0.36783  1.0000
  C   C15       1.0  0.12405  0.18869  0.13217  1.0000
  C   C16       1.0  0.37597  0.31132  0.63218  1.0000
  C   C17       1.0  0.09943  0.91953  0.87368  1.0000
  C   C18       1.0  0.40056  0.58048  0.37369  1.0000
  C   C19       1.0  0.90058  0.08049  0.12631  1.0000
  C   C20       1.0  0.59943  0.41951  0.62632  1.0000
  N   N1        1.0  0.24663  0.92140  0.93628  1.0000
  N   N2        1.0  0.25339  0.57861  0.43629  1.0000
  N   N3        1.0  0.75340  0.07862  0.06371  1.0000
  N   N4        1.0  0.74660  0.42138  0.56372  1.0000
  N   N5        1.0  0.27814  0.98544  0.29221  1.0000
  N   N6        1.0  0.22187  0.51455  0.79222  1.0000
  N   N7        1.0  0.72186  0.01455  0.70779  1.0000
  N   N8        1.0  0.77814  0.48545  0.20779  1.0000
  O   O1        1.0  0.34264  0.83295  0.05304  1.0000
  O   O2        1.0  0.15738  0.66706  0.55304  1.0000
  O   O3        1.0  0.65737  0.16706  0.94696  1.0000
  O   O4        1.0  0.84260  0.33293  0.44697  1.0000
  O   O5        1.0  0.51300  0.98578  0.26842  1.0000
  O   O6        1.0  0.98700  0.51422  0.76842  1.0000
  O   O7        1.0  0.48700  0.01422  0.73158  1.0000
  O   O8        1.0  0.01301  0.48578  0.23158  1.0000
  O   O9        1.0  0.10369  0.87755  0.26716  1.0000
  O   O10       1.0  0.39632  0.62244  0.76716  1.0000
  O   O11       1.0  0.89631  0.12245  0.73283  1.0000
  O   O12       1.0  0.60370  0.37756  0.23284  1.0000
  O   O13       1.0  0.22021  0.09403  0.34106  1.0000
  O   O14       1.0  0.27981  0.40596  0.84107  1.0000
  O   O15       1.0  0.77980  0.90596  0.65894  1.0000
  O   O16       1.0  0.72019  0.59403  0.15894  1.0000
