data_image0
_chemical_formula_structural       Fe2H28C32N4O12
_chemical_formula_sum              "Fe2 H28 C32 N4 O12"
_cell_length_a       7.84918
_cell_length_b       11.6153
_cell_length_c       12.2754
_cell_angle_alpha    118.379
_cell_angle_beta     100.182
_cell_angle_gamma    89.9039

_space_group_name_H-M_alt    "P 1"
_space_group_IT_number       1

loop_
  _space_group_symop_operation_xyz
  'x, y, z'

loop_
  _atom_site_type_symbol
  _atom_site_label
  _atom_site_symmetry_multiplicity
  _atom_site_fract_x
  _atom_site_fract_y
  _atom_site_fract_z
  _atom_site_occupancy
  Fe  Fe1       1.0  1.00000  1.00000  0.50000  1.0000
  Fe  Fe2       1.0  0.50000  0.50000  0.50000  1.0000
  H   H1        1.0  0.83457  0.90307  0.61189  1.0000
  H   H2        1.0  0.66585  0.29075  0.38851  1.0000
  H   H3        1.0  0.16542  0.09693  0.38810  1.0000
  H   H4        1.0  0.33415  0.70925  0.61149  1.0000
  H   H5        1.0  0.02189  0.84670  0.60737  1.0000
  H   H6        1.0  0.47810  0.23871  0.39252  1.0000
  H   H7        1.0  0.97810  0.15330  0.39263  1.0000
  H   H8        1.0  0.52191  0.76129  0.60748  1.0000
  H   H9        1.0  0.77166  0.94636  0.26218  1.0000
  H   H10       1.0  0.72598  0.68641  0.74007  1.0000
  H   H11       1.0  0.22834  0.05364  0.73782  1.0000
  H   H12       1.0  0.27403  0.31359  0.25993  1.0000
  H   H13       1.0  0.58368  0.75897  0.08279  1.0000
  H   H14       1.0  0.91312  0.67842  0.91959  1.0000
  H   H15       1.0  0.41632  0.24103  0.91721  1.0000
  H   H16       1.0  0.08688  0.32158  0.08042  1.0000
  H   H17       1.0  0.79871  0.51536  0.24188  1.0000
  H   H18       1.0  0.70454  0.27334  0.75608  1.0000
  H   H19       1.0  0.20128  0.48463  0.75812  1.0000
  H   H20       1.0  0.29546  0.72666  0.24392  1.0000
  H   H21       1.0  0.98514  0.71273  0.41134  1.0000
  H   H22       1.0  0.51747  0.30163  0.58744  1.0000
  H   H23       1.0  0.01486  0.28726  0.58866  1.0000
  H   H24       1.0  0.48254  0.69837  0.41256  1.0000
  H   H25       1.0  0.57561  0.41383  0.05779  1.0000
  H   H26       1.0  0.92639  0.35517  0.93947  1.0000
  H   H27       1.0  0.42438  0.58617  0.94220  1.0000
  H   H28       1.0  0.07361  0.64482  0.06053  1.0000
  C   C1        1.0  0.77215  0.84907  0.25413  1.0000
  C   C2        1.0  0.72645  0.59670  0.74727  1.0000
  C   C3        1.0  0.22785  0.15093  0.74587  1.0000
  C   C4        1.0  0.27356  0.40330  0.25273  1.0000
  C   C5        1.0  0.66738  0.74305  0.15434  1.0000
  C   C6        1.0  0.83086  0.59046  0.84713  1.0000
  C   C7        1.0  0.33262  0.25695  0.84566  1.0000
  C   C8        1.0  0.16914  0.40954  0.15287  1.0000
  C   C9        1.0  0.66880  0.61793  0.14682  1.0000
  C   C10       1.0  0.83132  0.47216  0.85339  1.0000
  C   C11       1.0  0.33119  0.38207  0.85317  1.0000
  C   C12       1.0  0.16868  0.52784  0.14661  1.0000
  C   C13       1.0  0.78737  0.60925  0.24258  1.0000
  C   C14       1.0  0.71435  0.36718  0.75657  1.0000
  C   C15       1.0  0.21263  0.39075  0.75742  1.0000
  C   C16       1.0  0.28566  0.63282  0.24344  1.0000
  C   C17       1.0  0.89077  0.71906  0.33867  1.0000
  C   C18       1.0  0.61071  0.38104  0.66084  1.0000
  C   C19       1.0  0.10922  0.28093  0.66133  1.0000
  C   C20       1.0  0.38929  0.61896  0.33916  1.0000
  C   C21       1.0  0.62330  0.03508  0.50077  1.0000
  C   C22       1.0  0.87672  0.53449  0.49936  1.0000
  C   C23       1.0  0.37670  0.96493  0.49923  1.0000
  C   C24       1.0  0.12328  0.46551  0.50064  1.0000
  C   C25       1.0  0.55721  0.94553  0.54148  1.0000
  C   C26       1.0  0.94289  0.40397  0.45854  1.0000
  C   C27       1.0  0.44279  0.05447  0.45852  1.0000
  C   C28       1.0  0.05712  0.59603  0.54147  1.0000
  C   C29       1.0  0.55946  0.50272  0.04883  1.0000
  C   C30       1.0  0.94119  0.45397  0.95048  1.0000
  C   C31       1.0  0.44053  0.49728  0.95117  1.0000
  C   C32       1.0  0.05880  0.54603  0.04952  1.0000
  N   N1        1.0  0.88152  0.84024  0.34875  1.0000
  N   N2        1.0  0.61851  0.49273  0.65173  1.0000
  N   N3        1.0  0.11848  0.15975  0.65125  1.0000
  N   N4        1.0  0.38149  0.50727  0.34827  1.0000
  O   O1        1.0  0.96172  0.92690  0.62101  1.0000
  O   O2        1.0  0.53858  0.30547  0.37955  1.0000
  O   O3        1.0  0.03828  0.07309  0.37899  1.0000
  O   O4        1.0  0.46142  0.69453  0.62045  1.0000
  O   O5        1.0  0.76910  0.08080  0.50002  1.0000
  O   O6        1.0  0.73077  0.58094  0.50002  1.0000
  O   O7        1.0  0.23090  0.91920  0.49998  1.0000
  O   O8        1.0  0.26923  0.41906  0.49998  1.0000
  O   O9        1.0  0.62686  0.88001  0.59213  1.0000
  O   O10       1.0  0.87329  0.28773  0.40800  1.0000
  O   O11       1.0  0.37314  0.11999  0.40787  1.0000
  O   O12       1.0  0.12671  0.71227  0.59200  1.0000
