data_image0
_chemical_formula_structural       Cu4H28C38S4I4N12
_chemical_formula_sum              "Cu4 H28 C38 S4 I4 N12"
_cell_length_a       8.51861
_cell_length_b       9.22792
_cell_length_c       15.7899
_cell_angle_alpha    100.754
_cell_angle_beta     90.0427
_cell_angle_gamma    117.471

_space_group_name_H-M_alt    "P 1"
_space_group_IT_number       1

loop_
  _space_group_symop_operation_xyz
  'x, y, z'

loop_
  _atom_site_type_symbol
  _atom_site_label
  _atom_site_symmetry_multiplicity
  _atom_site_fract_x
  _atom_site_fract_y
  _atom_site_fract_z
  _atom_site_occupancy
  Cu  Cu1       1.0  0.99324  0.85966  0.97328  1.0000
  Cu  Cu2       1.0  0.13354  0.14031  0.52679  1.0000
  Cu  Cu3       1.0  0.00677  0.14033  0.02672  1.0000
  Cu  Cu4       1.0  0.86646  0.85970  0.47321  1.0000
  H   H1        1.0  0.73774  0.23129  0.90681  1.0000
  H   H2        1.0  0.50648  0.76867  0.59299  1.0000
  H   H3        1.0  0.26226  0.76871  0.09319  1.0000
  H   H4        1.0  0.49352  0.23133  0.40702  1.0000
  H   H5        1.0  0.52985  0.17055  0.02183  1.0000
  H   H6        1.0  0.35890  0.82923  0.47790  1.0000
  H   H7        1.0  0.47014  0.82944  0.97817  1.0000
  H   H8        1.0  0.64110  0.17077  0.52211  1.0000
  H   H9        1.0  0.71712  0.70151  0.10394  1.0000
  H   H10       1.0  0.01508  0.29826  0.39603  1.0000
  H   H11       1.0  0.28287  0.29848  0.89606  1.0000
  H   H12       1.0  0.98492  0.70174  0.60397  1.0000
  H   H13       1.0  0.52143  0.40771  0.12337  1.0000
  H   H14       1.0  0.11306  0.59202  0.37647  1.0000
  H   H15       1.0  0.47856  0.59228  0.87663  1.0000
  H   H16       1.0  0.88694  0.40798  0.62353  1.0000
  H   H17       1.0  0.90031  0.29822  0.80515  1.0000
  H   H18       1.0  0.60228  0.70176  0.69487  1.0000
  H   H19       1.0  0.09969  0.70178  0.19485  1.0000
  H   H20       1.0  0.39772  0.29824  0.30513  1.0000
  H   H21       1.0  0.12028  0.41405  0.70115  1.0000
  H   H22       1.0  0.70617  0.58591  0.79906  1.0000
  H   H23       1.0  0.87973  0.58595  0.29885  1.0000
  H   H24       1.0  0.29383  0.41409  0.20094  1.0000
  H   H25       1.0  0.56537  0.11199  0.76890  1.0000
  H   H26       1.0  0.45285  0.88752  0.73134  1.0000
  H   H27       1.0  0.43464  0.88801  0.23110  1.0000
  H   H28       1.0  0.54714  0.11248  0.26866  1.0000
  C   C1        1.0  0.95804  0.54712  0.87708  1.0000
  C   C2        1.0  0.41098  0.45293  0.62294  1.0000
  C   C3        1.0  0.04196  0.45288  0.12292  1.0000
  C   C4        1.0  0.58902  0.54707  0.37706  1.0000
  C   C5        1.0  0.72664  0.33279  0.94954  1.0000
  C   C6        1.0  0.39378  0.66714  0.55029  1.0000
  C   C7        1.0  0.27336  0.66721  0.05046  1.0000
  C   C8        1.0  0.60622  0.33287  0.44971  1.0000
  C   C9        1.0  0.83100  0.49884  0.94274  1.0000
  C   C10       1.0  0.33201  0.50113  0.55721  1.0000
  C   C11       1.0  0.16900  0.50116  0.05726  1.0000
  C   C12       1.0  0.66799  0.49887  0.44279  1.0000
  C   C13       1.0  0.61321  0.29866  0.01480  1.0000
  C   C14       1.0  0.31426  0.70116  0.48498  1.0000
  C   C15       1.0  0.38679  0.70133  0.98519  1.0000
  C   C16       1.0  0.68574  0.29884  0.51502  1.0000
  C   C17       1.0  0.71572  0.59361  0.06087  1.0000
  C   C18       1.0  0.12171  0.40621  0.43903  1.0000
  C   C19       1.0  0.28428  0.40639  0.93913  1.0000
  C   C20       1.0  0.87830  0.59379  0.56097  1.0000
  C   C21       1.0  0.60832  0.43125  0.07160  1.0000
  C   C22       1.0  0.17665  0.56854  0.42822  1.0000
  C   C23       1.0  0.39167  0.56874  0.92839  1.0000
  C   C24       1.0  0.82335  0.43146  0.57178  1.0000
  C   C25       1.0  0.17863  0.76370  0.82438  1.0000
  C   C26       1.0  0.41502  0.23630  0.67573  1.0000
  C   C27       1.0  0.82137  0.23630  0.17562  1.0000
  C   C28       1.0  0.58498  0.76370  0.32427  1.0000
  C   C29       1.0  0.97725  0.43286  0.81163  1.0000
  C   C30       1.0  0.54447  0.56713  0.68843  1.0000
  C   C31       1.0  0.02275  0.56714  0.18837  1.0000
  C   C32       1.0  0.45553  0.43288  0.31158  1.0000
  C   C33       1.0  0.10142  0.49809  0.75385  1.0000
  C   C34       1.0  0.60334  0.50187  0.74630  1.0000
  C   C35       1.0  0.89859  0.50191  0.24615  1.0000
  C   C36       1.0  0.39666  0.49813  0.25370  1.0000
  C   C37       1.0  0.43678  0.99988  0.75009  1.0000
  C   C38       1.0  0.56322  0.00012  0.24991  1.0000
  S   S1        1.0  0.31125  0.98079  0.84345  1.0000
  S   S2        1.0  0.33068  0.01921  0.65659  1.0000
  S   S3        1.0  0.68875  0.01921  0.15655  1.0000
  S   S4        1.0  0.66932  0.98079  0.34341  1.0000
  I   I1        1.0  0.81887  0.96030  0.88221  1.0000
  I   I2        1.0  0.85860  0.03959  0.61769  1.0000
  I   I3        1.0  0.18112  0.03969  0.11779  1.0000
  I   I4        1.0  0.14141  0.96041  0.38231  1.0000
  N   N1        1.0  0.82367  0.62734  0.99745  1.0000
  N   N2        1.0  0.19609  0.37259  0.50252  1.0000
  N   N3        1.0  0.17632  0.37265  0.00254  1.0000
  N   N4        1.0  0.80391  0.62741  0.49749  1.0000
  N   N5        1.0  0.05949  0.71377  0.88305  1.0000
  N   N6        1.0  0.34577  0.28626  0.61701  1.0000
  N   N7        1.0  0.94050  0.28622  0.11695  1.0000
  N   N8        1.0  0.65423  0.71374  0.38299  1.0000
  N   N9        1.0  0.20219  0.66283  0.75904  1.0000
  N   N10       1.0  0.53939  0.33713  0.74115  1.0000
  N   N11       1.0  0.79781  0.33717  0.24096  1.0000
  N   N12       1.0  0.46061  0.66287  0.25885  1.0000
