data_image0
_chemical_formula_structural       Cd2H52C52N8Cl4
_chemical_formula_sum              "Cd2 H52 C52 N8 Cl4"
_cell_length_a       10.0918
_cell_length_b       10.6231
_cell_length_c       13.9091
_cell_angle_alpha    107.901
_cell_angle_beta     102.249
_cell_angle_gamma    108.646

_space_group_name_H-M_alt    "P 1"
_space_group_IT_number       1

loop_
  _space_group_symop_operation_xyz
  'x, y, z'

loop_
  _atom_site_type_symbol
  _atom_site_label
  _atom_site_symmetry_multiplicity
  _atom_site_fract_x
  _atom_site_fract_y
  _atom_site_fract_z
  _atom_site_occupancy
  Cd  Cd1       1.0  0.14827  0.95208  0.44443  1.0000
  Cd  Cd2       1.0  0.85173  0.04792  0.55557  1.0000
  H   H1        1.0  0.86655  0.79246  0.20567  1.0000
  H   H2        1.0  0.13345  0.20754  0.79433  1.0000
  H   H3        1.0  0.40587  0.88461  0.31600  1.0000
  H   H4        1.0  0.59413  0.11538  0.68400  1.0000
  H   H5        1.0  0.33689  0.89071  0.73068  1.0000
  H   H6        1.0  0.66311  0.10929  0.26931  1.0000
  H   H7        1.0  0.45470  0.82996  0.80126  1.0000
  H   H8        1.0  0.54531  0.17004  0.19873  1.0000
  H   H9        1.0  0.43913  0.80499  0.66783  1.0000
  H   H10       1.0  0.56088  0.19501  0.33216  1.0000
  H   H11       1.0  0.09191  0.63492  0.92207  1.0000
  H   H12       1.0  0.90810  0.36509  0.07793  1.0000
  H   H13       1.0  0.80438  0.52226  0.95296  1.0000
  H   H14       1.0  0.19561  0.47775  0.04704  1.0000
  H   H15       1.0  0.72659  0.63447  0.01988  1.0000
  H   H16       1.0  0.27341  0.36553  0.98012  1.0000
  H   H17       1.0  0.83859  0.90749  0.01290  1.0000
  H   H18       1.0  0.16142  0.09252  0.98710  1.0000
  H   H19       1.0  0.81701  0.00220  0.87054  1.0000
  H   H20       1.0  0.18299  0.99780  0.12946  1.0000
  H   H21       1.0  0.78329  0.84866  0.68390  1.0000
  H   H22       1.0  0.21671  0.15135  0.31610  1.0000
  H   H23       1.0  0.78600  0.50140  0.78112  1.0000
  H   H24       1.0  0.21400  0.49861  0.21889  1.0000
  H   H25       1.0  0.08236  0.75209  0.67561  1.0000
  H   H26       1.0  0.91765  0.24791  0.32440  1.0000
  H   H27       1.0  0.64667  0.26484  0.53738  1.0000
  H   H28       1.0  0.35333  0.73516  0.46262  1.0000
  H   H29       1.0  0.16918  0.29611  0.61096  1.0000
  H   H30       1.0  0.83082  0.70388  0.38904  1.0000
  H   H31       1.0  0.29961  0.62064  0.87648  1.0000
  H   H32       1.0  0.70039  0.37937  0.12352  1.0000
  H   H33       1.0  0.43041  0.59955  0.97146  1.0000
  H   H34       1.0  0.56958  0.40045  0.02854  1.0000
  H   H35       1.0  0.47255  0.76902  0.96300  1.0000
  H   H36       1.0  0.52745  0.23099  0.03701  1.0000
  H   H37       1.0  0.56843  0.70219  0.15964  1.0000
  H   H38       1.0  0.43157  0.29781  0.84036  1.0000
  H   H39       1.0  0.61189  0.85941  0.27465  1.0000
  H   H40       1.0  0.38810  0.14058  0.72535  1.0000
  H   H41       1.0  0.62494  0.87395  0.15268  1.0000
  H   H42       1.0  0.37505  0.12604  0.84732  1.0000
  H   H43       1.0  0.42580  0.43160  0.66012  1.0000
  H   H44       1.0  0.57420  0.56839  0.33987  1.0000
  H   H45       1.0  0.48123  0.59758  0.64254  1.0000
  H   H46       1.0  0.51876  0.40242  0.35746  1.0000
  H   H47       1.0  0.49410  0.60268  0.77132  1.0000
  H   H48       1.0  0.50590  0.39731  0.22868  1.0000
  H   H49       1.0  0.78645  0.63654  0.56026  1.0000
  H   H50       1.0  0.21354  0.36346  0.43974  1.0000
  H   H51       1.0  0.63392  0.50008  0.56463  1.0000
  H   H52       1.0  0.36609  0.49992  0.43538  1.0000
  C   C1        1.0  0.96247  0.78356  0.18563  1.0000
  C   C2        1.0  0.03754  0.21644  0.81437  1.0000
  C   C3        1.0  0.18633  0.80295  0.19749  1.0000
  C   C4        1.0  0.81367  0.19704  0.80251  1.0000
  C   C5        1.0  0.09771  0.72801  0.08681  1.0000
  C   C6        1.0  0.90229  0.27200  0.91318  1.0000
  C   C7        1.0  0.33738  0.83020  0.23083  1.0000
  C   C8        1.0  0.66262  0.16979  0.76917  1.0000
  C   C9        1.0  0.39896  0.78540  0.15273  1.0000
  C   C10       1.0  0.60103  0.21459  0.84727  1.0000
  C   C11       1.0  0.31067  0.71747  0.04101  1.0000
  C   C12       1.0  0.68933  0.28253  0.95899  1.0000
  C   C13       1.0  0.37504  0.80362  0.72275  1.0000
  C   C14       1.0  0.62496  0.19638  0.27724  1.0000
  C   C15       1.0  0.15891  0.68762  0.00744  1.0000
  C   C16       1.0  0.84109  0.31238  0.99256  1.0000
  C   C17       1.0  0.81833  0.63531  0.98882  1.0000
  C   C18       1.0  0.18167  0.36470  0.01117  1.0000
  C   C19       1.0  0.81358  0.69805  0.90541  1.0000
  C   C20       1.0  0.18642  0.30195  0.09459  1.0000
  C   C21       1.0  0.82236  0.83929  0.93078  1.0000
  C   C22       1.0  0.17765  0.16072  0.06922  1.0000
  C   C23       1.0  0.81184  0.89297  0.85118  1.0000
  C   C24       1.0  0.18816  0.10703  0.14882  1.0000
  C   C25       1.0  0.79317  0.80695  0.74635  1.0000
  C   C26       1.0  0.20683  0.19306  0.25365  1.0000
  C   C27       1.0  0.78389  0.66567  0.72029  1.0000
  C   C28       1.0  0.21612  0.33434  0.27971  1.0000
  C   C29       1.0  0.79471  0.61225  0.80053  1.0000
  C   C30       1.0  0.20530  0.38776  0.19948  1.0000
  C   C31       1.0  0.98343  0.51772  0.62572  1.0000
  C   C32       1.0  0.01657  0.48228  0.37428  1.0000
  C   C33       1.0  0.10110  0.65369  0.66378  1.0000
  C   C34       1.0  0.89890  0.34631  0.33623  1.0000
  C   C35       1.0  0.24495  0.65949  0.68319  1.0000
  C   C36       1.0  0.75505  0.34051  0.31681  1.0000
  C   C37       1.0  0.76666  0.32674  0.56324  1.0000
  C   C38       1.0  0.23334  0.67326  0.43676  1.0000
  C   C39       1.0  0.00577  0.38899  0.60671  1.0000
  C   C40       1.0  0.99423  0.61101  0.39329  1.0000
  C   C41       1.0  0.14984  0.39483  0.62673  1.0000
  C   C42       1.0  0.85016  0.60517  0.37327  1.0000
  C   C43       1.0  0.26920  0.53006  0.66503  1.0000
  C   C44       1.0  0.73080  0.46994  0.33497  1.0000
  C   C45       1.0  0.38087  0.67426  0.95845  1.0000
  C   C46       1.0  0.61913  0.32574  0.04156  1.0000
  C   C47       1.0  0.55916  0.80710  0.18694  1.0000
  C   C48       1.0  0.44084  0.19288  0.81306  1.0000
  C   C49       1.0  0.42488  0.53977  0.68572  1.0000
  C   C50       1.0  0.57512  0.46023  0.31428  1.0000
  C   C51       1.0  0.75378  0.56995  0.60510  1.0000
  C   C52       1.0  0.24622  0.43006  0.39490  1.0000
  N   N1        1.0  0.09823  0.83814  0.25641  1.0000
  N   N2        1.0  0.90177  0.16185  0.74359  1.0000
  N   N3        1.0  0.95476  0.71542  0.08267  1.0000
  N   N4        1.0  0.04524  0.28458  0.91733  1.0000
  N   N5        1.0  0.86780  0.27180  0.56749  1.0000
  N   N6        1.0  0.13220  0.72820  0.43251  1.0000
  N   N7        1.0  0.83022  0.47404  0.59669  1.0000
  N   N8        1.0  0.16979  0.52596  0.40331  1.0000
  Cl  Cl1       1.0  0.06751  0.97433  0.61704  1.0000
  Cl  Cl2       1.0  0.93248  0.02565  0.38295  1.0000
  Cl  Cl3       1.0  0.38779  0.16439  0.51200  1.0000
  Cl  Cl4       1.0  0.61222  0.83559  0.48801  1.0000
