data_image0
_chemical_formula_structural       Cu2H28C40N2O16F4
_chemical_formula_sum              "Cu2 H28 C40 N2 O16 F4"
_cell_length_a       9.7951
_cell_length_b       11.244
_cell_length_c       11.7392
_cell_angle_alpha    75.3725
_cell_angle_beta     62.5186
_cell_angle_gamma    74.6028

_space_group_name_H-M_alt    "P 1"
_space_group_IT_number       1

loop_
  _space_group_symop_operation_xyz
  'x, y, z'

loop_
  _atom_site_type_symbol
  _atom_site_label
  _atom_site_symmetry_multiplicity
  _atom_site_fract_x
  _atom_site_fract_y
  _atom_site_fract_z
  _atom_site_occupancy
  Cu  Cu1       1.0  0.36458  0.99378  0.51223  1.0000
  Cu  Cu2       1.0  0.63540  0.00621  0.48778  1.0000
  H   H1        1.0  0.90919  0.69510  0.47780  1.0000
  H   H2        1.0  0.09081  0.30492  0.52221  1.0000
  H   H3        1.0  0.07821  0.71722  0.32609  1.0000
  H   H4        1.0  0.92179  0.28280  0.67390  1.0000
  H   H5        1.0  0.03085  0.56515  0.39770  1.0000
  H   H6        1.0  0.96915  0.43486  0.60230  1.0000
  H   H7        1.0  0.50433  0.93554  0.11802  1.0000
  H   H8        1.0  0.49566  0.06445  0.88198  1.0000
  H   H9        1.0  0.87661  0.70114  0.84910  1.0000
  H   H10       1.0  0.12340  0.29887  0.15089  1.0000
  H   H11       1.0  0.02344  0.65817  0.98366  1.0000
  H   H12       1.0  0.97656  0.34184  0.01634  1.0000
  H   H13       1.0  0.31398  0.32146  0.23344  1.0000
  H   H14       1.0  0.68602  0.67854  0.76656  1.0000
  H   H15       1.0  0.41991  0.69275  0.12404  1.0000
  H   H16       1.0  0.58010  0.30725  0.87596  1.0000
  H   H17       1.0  0.57334  0.63192  0.26103  1.0000
  H   H18       1.0  0.42667  0.36807  0.73897  1.0000
  H   H19       1.0  0.93909  0.30245  0.41803  1.0000
  H   H20       1.0  0.06091  0.69755  0.58198  1.0000
  H   H21       1.0  0.74751  0.26965  0.53170  1.0000
  H   H22       1.0  0.25249  0.73036  0.46830  1.0000
  H   H23       1.0  0.78957  0.42082  0.50479  1.0000
  H   H24       1.0  0.21043  0.57918  0.49520  1.0000
  H   H25       1.0  0.01138  0.96081  0.70956  1.0000
  H   H26       1.0  0.98860  0.03919  0.29044  1.0000
  H   H27       1.0  0.24173  0.02905  0.30781  1.0000
  H   H28       1.0  0.75826  0.97094  0.69219  1.0000
  C   C1        1.0  0.98217  0.66467  0.38259  1.0000
  C   C2        1.0  0.01783  0.33534  0.61741  1.0000
  C   C3        1.0  0.62980  0.91068  0.28559  1.0000
  C   C4        1.0  0.37017  0.08932  0.71441  1.0000
  C   C5        1.0  0.70242  0.85328  0.16378  1.0000
  C   C6        1.0  0.29757  0.14671  0.83622  1.0000
  C   C7        1.0  0.61850  0.87590  0.08850  1.0000
  C   C8        1.0  0.38148  0.12409  0.91150  1.0000
  C   C9        1.0  0.68348  0.82185  0.97688  1.0000
  C   C10       1.0  0.31651  0.17814  0.02312  1.0000
  C   C11       1.0  0.82794  0.74412  0.93619  1.0000
  C   C12       1.0  0.17206  0.25589  0.06381  1.0000
  C   C13       1.0  0.91061  0.71999  0.01177  1.0000
  C   C14       1.0  0.08939  0.28003  0.98823  1.0000
  C   C15       1.0  0.84873  0.77445  0.12339  1.0000
  C   C16       1.0  0.15126  0.22556  0.87661  1.0000
  C   C17       1.0  0.87833  0.68146  0.31634  1.0000
  C   C18       1.0  0.12167  0.31854  0.68367  1.0000
  C   C19       1.0  0.47446  0.22326  0.38007  1.0000
  C   C20       1.0  0.52554  0.77673  0.61994  1.0000
  C   C21       1.0  0.45893  0.35468  0.31203  1.0000
  C   C22       1.0  0.54108  0.64532  0.68797  1.0000
  C   C23       1.0  0.37032  0.38950  0.23944  1.0000
  C   C24       1.0  0.62969  0.61050  0.76055  1.0000
  C   C25       1.0  0.35934  0.51013  0.17352  1.0000
  C   C26       1.0  0.64068  0.48987  0.82648  1.0000
  C   C27       1.0  0.43135  0.59918  0.17789  1.0000
  C   C28       1.0  0.56868  0.40082  0.82211  1.0000
  C   C29       1.0  0.51670  0.56549  0.25235  1.0000
  C   C30       1.0  0.48332  0.43450  0.74764  1.0000
  C   C31       1.0  0.52973  0.44440  0.31869  1.0000
  C   C32       1.0  0.47029  0.55559  0.68130  1.0000
  C   C33       1.0  0.76112  0.38016  0.35100  1.0000
  C   C34       1.0  0.23890  0.61983  0.64899  1.0000
  C   C35       1.0  0.81392  0.33985  0.45797  1.0000
  C   C36       1.0  0.18609  0.66015  0.54203  1.0000
  C   C37       1.0  0.00570  0.97837  0.61587  1.0000
  C   C38       1.0  0.99428  0.02163  0.38413  1.0000
  C   C39       1.0  0.13288  0.01602  0.39346  1.0000
  C   C40       1.0  0.86710  0.98398  0.60654  1.0000
  N   N1        1.0  0.13856  0.99421  0.50923  1.0000
  N   N2        1.0  0.86143  0.00579  0.49077  1.0000
  O   O1        1.0  0.48107  0.92721  0.34287  1.0000
  O   O2        1.0  0.51892  0.07278  0.65714  1.0000
  O   O3        1.0  0.72063  0.93804  0.32163  1.0000
  O   O4        1.0  0.27936  0.06196  0.67837  1.0000
  O   O5        1.0  0.93912  0.74686  0.19306  1.0000
  O   O6        1.0  0.06087  0.25315  0.80694  1.0000
  O   O7        1.0  0.75554  0.64289  0.36323  1.0000
  O   O8        1.0  0.24446  0.35711  0.63677  1.0000
  O   O9        1.0  0.35971  0.16780  0.41629  1.0000
  O   O10       1.0  0.64027  0.83219  0.58370  1.0000
  O   O11       1.0  0.60012  0.17694  0.39444  1.0000
  O   O12       1.0  0.39986  0.82306  0.60558  1.0000
  O   O13       1.0  0.60236  0.41479  0.40216  1.0000
  O   O14       1.0  0.39765  0.58520  0.59784  1.0000
  O   O15       1.0  0.84402  0.38335  0.23516  1.0000
  O   O16       1.0  0.15599  0.61664  0.76484  1.0000
  F   F1        1.0  0.59970  0.84562  0.90379  1.0000
  F   F2        1.0  0.40030  0.15438  0.09620  1.0000
  F   F3        1.0  0.27378  0.54271  0.10213  1.0000
  F   F4        1.0  0.72623  0.45730  0.89787  1.0000
