data_image0
_chemical_formula_structural       Ba2H20C16N8O16
_chemical_formula_sum              "Ba2 H20 C16 N8 O16"
_cell_length_a       7.50067
_cell_length_b       9.53009
_cell_length_c       9.82293
_cell_angle_alpha    64.4949
_cell_angle_beta     74.8366
_cell_angle_gamma    83.7865

_space_group_name_H-M_alt    "P 1"
_space_group_IT_number       1

loop_
  _space_group_symop_operation_xyz
  'x, y, z'

loop_
  _atom_site_type_symbol
  _atom_site_label
  _atom_site_symmetry_multiplicity
  _atom_site_fract_x
  _atom_site_fract_y
  _atom_site_fract_z
  _atom_site_occupancy
  Ba  Ba1       1.0  0.28936  0.61745  0.38798  1.0000
  Ba  Ba2       1.0  0.71063  0.38254  0.61202  1.0000
  H   H1        1.0  0.68603  0.10549  0.46380  1.0000
  H   H2        1.0  0.31397  0.89451  0.53620  1.0000
  H   H3        1.0  0.51366  0.47028  0.11423  1.0000
  H   H4        1.0  0.48634  0.52972  0.88577  1.0000
  H   H5        1.0  0.69769  0.05881  0.04959  1.0000
  H   H6        1.0  0.30231  0.94119  0.95041  1.0000
  H   H7        1.0  0.20504  0.05626  0.08481  1.0000
  H   H8        1.0  0.79497  0.94374  0.91519  1.0000
  H   H9        1.0  0.18597  0.12661  0.48726  1.0000
  H   H10       1.0  0.81403  0.87339  0.51274  1.0000
  H   H11       1.0  0.01604  0.47776  0.12203  1.0000
  H   H12       1.0  0.98396  0.52224  0.87797  1.0000
  H   H13       1.0  0.96123  0.85053  0.24182  1.0000
  H   H14       1.0  0.03877  0.14947  0.75818  1.0000
  H   H15       1.0  0.01938  0.75390  0.14064  1.0000
  H   H16       1.0  0.98062  0.24610  0.85936  1.0000
  H   H17       1.0  0.69717  0.76242  0.32408  1.0000
  H   H18       1.0  0.30283  0.23758  0.67592  1.0000
  H   H19       1.0  0.74347  0.66221  0.22472  1.0000
  H   H20       1.0  0.25652  0.33779  0.77528  1.0000
  C   C1        1.0  0.60359  0.27775  0.05644  1.0000
  C   C2        1.0  0.39641  0.72226  0.94356  1.0000
  C   C3        1.0  0.58938  0.29458  0.29982  1.0000
  C   C4        1.0  0.41062  0.70542  0.70018  1.0000
  C   C5        1.0  0.69825  0.05838  0.26880  1.0000
  C   C6        1.0  0.30174  0.94162  0.73120  1.0000
  C   C7        1.0  0.66637  0.12388  0.12000  1.0000
  C   C8        1.0  0.33363  0.87612  0.88000  1.0000
  C   C9        1.0  0.20248  0.06673  0.29925  1.0000
  C   C10       1.0  0.79752  0.93326  0.70075  1.0000
  C   C11       1.0  0.09573  0.31209  0.31526  1.0000
  C   C12       1.0  0.90427  0.68791  0.68474  1.0000
  C   C13       1.0  0.11256  0.27991  0.07933  1.0000
  C   C14       1.0  0.88744  0.72009  0.92067  1.0000
  C   C15       1.0  0.17738  0.12888  0.14760  1.0000
  C   C16       1.0  0.82262  0.87112  0.85240  1.0000
  N   N1        1.0  0.56524  0.35605  0.15269  1.0000
  N   N2        1.0  0.43476  0.64395  0.84731  1.0000
  N   N3        1.0  0.65735  0.14765  0.35349  1.0000
  N   N4        1.0  0.34265  0.85235  0.64651  1.0000
  N   N5        1.0  0.16219  0.16493  0.37622  1.0000
  N   N6        1.0  0.83781  0.83506  0.62378  1.0000
  N   N7        1.0  0.07230  0.36594  0.16823  1.0000
  N   N8        1.0  0.92770  0.63406  0.83177  1.0000
  O   O1        1.0  0.57931  0.35279  0.91938  1.0000
  O   O2        1.0  0.42069  0.64721  0.08062  1.0000
  O   O3        1.0  0.55146  0.36988  0.38197  1.0000
  O   O4        1.0  0.44854  0.63012  0.61803  1.0000
  O   O5        1.0  0.76311  0.92170  0.33672  1.0000
  O   O6        1.0  0.23689  0.07830  0.66328  1.0000
  O   O7        1.0  0.25873  0.92986  0.37227  1.0000
  O   O8        1.0  0.74127  0.07014  0.62773  1.0000
  O   O9        1.0  0.05746  0.39428  0.39145  1.0000
  O   O10       1.0  0.94253  0.60572  0.60855  1.0000
  O   O11       1.0  0.08603  0.34699  0.94125  1.0000
  O   O12       1.0  0.91397  0.65301  0.05875  1.0000
  O   O13       1.0  0.06603  0.79573  0.20098  1.0000
  O   O14       1.0  0.93397  0.20427  0.79903  1.0000
  O   O15       1.0  0.66485  0.66504  0.32167  1.0000
  O   O16       1.0  0.33515  0.33496  0.67833  1.0000
