data_image0
_chemical_formula_structural       Cu2P2H38C42I2N2
_chemical_formula_sum              "Cu2 P2 H38 C42 I2 N2"
_cell_length_a       8.21864
_cell_length_b       9.1773
_cell_length_c       14.2004
_cell_angle_alpha    79.0703
_cell_angle_beta     76.9167
_cell_angle_gamma    63.7712

_space_group_name_H-M_alt    "P 1"
_space_group_IT_number       1

loop_
  _space_group_symop_operation_xyz
  'x, y, z'

loop_
  _atom_site_type_symbol
  _atom_site_label
  _atom_site_symmetry_multiplicity
  _atom_site_fract_x
  _atom_site_fract_y
  _atom_site_fract_z
  _atom_site_occupancy
  Cu  Cu1       1.0  0.48467  0.33614  0.58086  1.0000
  Cu  Cu2       1.0  0.51533  0.66386  0.41914  1.0000
  P   P1        1.0  0.51319  0.33732  0.73227  1.0000
  P   P2        1.0  0.48681  0.66268  0.26772  1.0000
  H   H1        1.0  0.24941  0.91607  0.54898  1.0000
  H   H2        1.0  0.75059  0.08393  0.45102  1.0000
  H   H3        1.0  0.21818  0.18760  0.69657  1.0000
  H   H4        1.0  0.78182  0.81240  0.30343  1.0000
  H   H5        1.0  0.07387  0.15095  0.63625  1.0000
  H   H6        1.0  0.92613  0.84905  0.36375  1.0000
  H   H7        1.0  0.12763  0.32345  0.59610  1.0000
  H   H8        1.0  0.87237  0.67655  0.40390  1.0000
  H   H9        1.0  0.50102  0.12461  0.92144  1.0000
  H   H10       1.0  0.49898  0.87539  0.07856  1.0000
  H   H11       1.0  0.23563  0.12024  0.04719  1.0000
  H   H12       1.0  0.76437  0.87975  0.95281  1.0000
  H   H13       1.0  0.91829  0.31160  0.02453  1.0000
  H   H14       1.0  0.08171  0.68839  0.97547  1.0000
  H   H15       1.0  0.86158  0.50611  0.87361  1.0000
  H   H16       1.0  0.13842  0.49389  0.12639  1.0000
  H   H17       1.0  0.12469  0.50645  0.74696  1.0000
  H   H18       1.0  0.87531  0.49355  0.25304  1.0000
  H   H19       1.0  0.40917  0.48434  0.91963  1.0000
  H   H20       1.0  0.59083  0.51566  0.08037  1.0000
  H   H21       1.0  0.43195  0.72408  0.96243  1.0000
  H   H22       1.0  0.56805  0.27591  0.03757  1.0000
  H   H23       1.0  0.55698  0.89207  0.83493  1.0000
  H   H24       1.0  0.44302  0.10793  0.16507  1.0000
  H   H25       1.0  0.66198  0.81644  0.66496  1.0000
  H   H26       1.0  0.33802  0.18356  0.33504  1.0000
  H   H27       1.0  0.63758  0.57831  0.62207  1.0000
  H   H28       1.0  0.36242  0.42169  0.37793  1.0000
  H   H29       1.0  0.77243  0.27770  0.87123  1.0000
  H   H30       1.0  0.22757  0.72231  0.12877  1.0000
  H   H31       1.0  0.06288  0.04066  0.90147  1.0000
  H   H32       1.0  0.93712  0.95934  0.09853  1.0000
  H   H33       1.0  0.18055  0.79603  0.81127  1.0000
  H   H34       1.0  0.81945  0.20397  0.18873  1.0000
  H   H35       1.0  0.00535  0.78938  0.69191  1.0000
  H   H36       1.0  0.99465  0.21062  0.30809  1.0000
  H   H37       1.0  0.71764  0.03078  0.65925  1.0000
  H   H38       1.0  0.28236  0.96922  0.34075  1.0000
  C   C1        1.0  0.34769  0.09484  0.55927  1.0000
  C   C2        1.0  0.65230  0.90516  0.44073  1.0000
  C   C3        1.0  0.36162  0.95481  0.52675  1.0000
  C   C4        1.0  0.63838  0.04519  0.47325  1.0000
  C   C5        1.0  0.18214  0.19410  0.62541  1.0000
  C   C6        1.0  0.81786  0.80591  0.37459  1.0000
  C   C7        1.0  0.32986  0.31641  0.82638  1.0000
  C   C8        1.0  0.67014  0.68360  0.17362  1.0000
  C   C9        1.0  0.36066  0.20680  0.91065  1.0000
  C   C10       1.0  0.63934  0.79320  0.08935  1.0000
  C   C11       1.0  0.21233  0.20476  0.98132  1.0000
  C   C12       1.0  0.78767  0.79524  0.01869  1.0000
  C   C13       1.0  0.03304  0.31243  0.96843  1.0000
  C   C14       1.0  0.96696  0.68757  0.03157  1.0000
  C   C15       1.0  0.00120  0.42145  0.88427  1.0000
  C   C16       1.0  0.99880  0.57855  0.11574  1.0000
  C   C17       1.0  0.14864  0.42282  0.81337  1.0000
  C   C18       1.0  0.85136  0.57718  0.18663  1.0000
  C   C19       1.0  0.52364  0.51455  0.76790  1.0000
  C   C20       1.0  0.47636  0.48545  0.23209  1.0000
  C   C21       1.0  0.46634  0.55625  0.86391  1.0000
  C   C22       1.0  0.53366  0.44375  0.13608  1.0000
  C   C23       1.0  0.47867  0.69139  0.88797  1.0000
  C   C24       1.0  0.52134  0.30861  0.11203  1.0000
  C   C25       1.0  0.54852  0.78592  0.81655  1.0000
  C   C26       1.0  0.45148  0.21408  0.18345  1.0000
  C   C27       1.0  0.60641  0.74426  0.72123  1.0000
  C   C28       1.0  0.39359  0.25575  0.27877  1.0000
  C   C29       1.0  0.59346  0.60999  0.69675  1.0000
  C   C30       1.0  0.40653  0.39001  0.30325  1.0000
  C   C31       1.0  0.72353  0.16778  0.76470  1.0000
  C   C32       1.0  0.27647  0.83222  0.23530  1.0000
  C   C33       1.0  0.82159  0.16989  0.83305  1.0000
  C   C34       1.0  0.17841  0.83011  0.16695  1.0000
  C   C35       1.0  0.98541  0.03616  0.84991  1.0000
  C   C36       1.0  0.01459  0.96384  0.15009  1.0000
  C   C37       1.0  0.05124  0.89910  0.79954  1.0000
  C   C38       1.0  0.94876  0.10090  0.20046  1.0000
  C   C39       1.0  0.95295  0.89500  0.73259  1.0000
  C   C40       1.0  0.04705  0.10500  0.26741  1.0000
  C   C41       1.0  0.79151  0.02963  0.71440  1.0000
  C   C42       1.0  0.20849  0.97036  0.28559  1.0000
  I   I1        1.0  0.21583  0.62018  0.52901  1.0000
  I   I2        1.0  0.78417  0.37982  0.47100  1.0000
  N   N1        1.0  0.48949  0.14093  0.53170  1.0000
  N   N2        1.0  0.51051  0.85908  0.46830  1.0000
