data_image0
_chemical_formula_structural       Ag4H32C48N16Cl4O16
_chemical_formula_sum              "Ag4 H32 C48 N16 Cl4 O16"
_cell_length_a       7.15274
_cell_length_b       14.168
_cell_length_c       14.749
_cell_angle_alpha    89.9997
_cell_angle_beta     90.0001
_cell_angle_gamma    104.605

_space_group_name_H-M_alt    "P 1"
_space_group_IT_number       1

loop_
  _space_group_symop_operation_xyz
  'x, y, z'

loop_
  _atom_site_type_symbol
  _atom_site_label
  _atom_site_symmetry_multiplicity
  _atom_site_fract_x
  _atom_site_fract_y
  _atom_site_fract_z
  _atom_site_occupancy
  Ag  Ag1       1.0  0.15001  0.00004  0.37137  1.0000
  Ag  Ag2       1.0  0.34999  0.99996  0.87137  1.0000
  Ag  Ag3       1.0  0.84999  0.99996  0.62863  1.0000
  Ag  Ag4       1.0  0.65001  0.00004  0.12863  1.0000
  H   H1        1.0  0.38352  0.16771  0.49070  1.0000
  H   H2        1.0  0.11648  0.83229  0.99071  1.0000
  H   H3        1.0  0.78420  0.16763  0.50936  1.0000
  H   H4        1.0  0.71580  0.83238  0.00935  1.0000
  H   H5        1.0  0.61648  0.83229  0.50929  1.0000
  H   H6        1.0  0.88353  0.16771  0.00930  1.0000
  H   H7        1.0  0.21580  0.83238  0.49064  1.0000
  H   H8        1.0  0.28420  0.16762  0.99065  1.0000
  H   H9        1.0  0.47599  0.35051  0.49439  1.0000
  H   H10       1.0  0.02401  0.64949  0.99439  1.0000
  H   H11       1.0  0.87419  0.35046  0.50570  1.0000
  H   H12       1.0  0.62581  0.64955  0.00571  1.0000
  H   H13       1.0  0.52401  0.64949  0.50561  1.0000
  H   H14       1.0  0.97599  0.35051  0.00561  1.0000
  H   H15       1.0  0.12581  0.64954  0.49429  1.0000
  H   H16       1.0  0.37419  0.35046  0.99430  1.0000
  H   H17       1.0  0.10207  0.34452  0.26183  1.0000
  H   H18       1.0  0.39793  0.65548  0.76183  1.0000
  H   H19       1.0  0.24284  0.34445  0.73800  1.0000
  H   H20       1.0  0.25716  0.65555  0.23800  1.0000
  H   H21       1.0  0.89793  0.65548  0.73817  1.0000
  H   H22       1.0  0.60208  0.34452  0.23817  1.0000
  H   H23       1.0  0.75716  0.65555  0.26200  1.0000
  H   H24       1.0  0.74284  0.34445  0.76200  1.0000
  H   H25       1.0  0.02409  0.16171  0.26907  1.0000
  H   H26       1.0  0.47590  0.83829  0.76907  1.0000
  H   H27       1.0  0.13717  0.16163  0.73115  1.0000
  H   H28       1.0  0.36283  0.83837  0.23114  1.0000
  H   H29       1.0  0.97590  0.83829  0.73093  1.0000
  H   H30       1.0  0.52410  0.16171  0.23093  1.0000
  H   H31       1.0  0.86283  0.83837  0.26885  1.0000
  H   H32       1.0  0.63717  0.16163  0.76886  1.0000
  C   C1        1.0  0.32487  0.20995  0.44153  1.0000
  C   C2        1.0  0.17513  0.79005  0.94153  1.0000
  C   C3        1.0  0.88495  0.20989  0.55856  1.0000
  C   C4        1.0  0.61505  0.79011  0.05856  1.0000
  C   C5        1.0  0.67513  0.79005  0.55847  1.0000
  C   C6        1.0  0.82487  0.20995  0.05847  1.0000
  C   C7        1.0  0.11505  0.79011  0.44144  1.0000
  C   C8        1.0  0.38495  0.20989  0.94144  1.0000
  C   C9        1.0  0.37650  0.31133  0.44313  1.0000
  C   C10       1.0  0.12350  0.68867  0.94313  1.0000
  C   C11       1.0  0.93470  0.31127  0.55691  1.0000
  C   C12       1.0  0.56530  0.68873  0.05691  1.0000
  C   C13       1.0  0.62350  0.68867  0.55687  1.0000
  C   C14       1.0  0.87650  0.31133  0.05687  1.0000
  C   C15       1.0  0.06530  0.68873  0.44309  1.0000
  C   C16       1.0  0.43470  0.31127  0.94309  1.0000
  C   C17       1.0  0.29576  0.36131  0.37766  1.0000
  C   C18       1.0  0.20424  0.63869  0.87766  1.0000
  C   C19       1.0  0.06571  0.36124  0.62223  1.0000
  C   C20       1.0  0.43429  0.63876  0.12223  1.0000
  C   C21       1.0  0.70424  0.63869  0.62234  1.0000
  C   C22       1.0  0.79576  0.36131  0.12234  1.0000
  C   C23       1.0  0.93429  0.63876  0.37777  1.0000
  C   C24       1.0  0.56571  0.36124  0.87777  1.0000
  C   C25       1.0  0.34386  0.46535  0.37695  1.0000
  C   C26       1.0  0.15614  0.53465  0.87694  1.0000
  C   C27       1.0  0.12160  0.46528  0.62300  1.0000
  C   C28       1.0  0.37840  0.53472  0.12300  1.0000
  C   C29       1.0  0.65613  0.53465  0.62305  1.0000
  C   C30       1.0  0.84387  0.46535  0.12305  1.0000
  C   C31       1.0  0.87840  0.53472  0.37700  1.0000
  C   C32       1.0  0.62160  0.46528  0.87700  1.0000
  C   C33       1.0  0.16626  0.30796  0.31359  1.0000
  C   C34       1.0  0.33374  0.69204  0.81359  1.0000
  C   C35       1.0  0.14193  0.30789  0.68631  1.0000
  C   C36       1.0  0.35807  0.69211  0.18631  1.0000
  C   C37       1.0  0.83374  0.69204  0.68641  1.0000
  C   C38       1.0  0.66626  0.30796  0.18641  1.0000
  C   C39       1.0  0.85807  0.69211  0.31368  1.0000
  C   C40       1.0  0.64193  0.30789  0.81369  1.0000
  C   C41       1.0  0.12292  0.20669  0.31741  1.0000
  C   C42       1.0  0.37708  0.79331  0.81741  1.0000
  C   C43       1.0  0.08360  0.20663  0.68270  1.0000
  C   C44       1.0  0.41639  0.79337  0.18269  1.0000
  C   C45       1.0  0.87708  0.79331  0.68259  1.0000
  C   C46       1.0  0.62292  0.20669  0.18259  1.0000
  C   C47       1.0  0.91640  0.79337  0.31730  1.0000
  C   C48       1.0  0.58360  0.20663  0.81731  1.0000
  N   N1        1.0  0.20111  0.15857  0.37982  1.0000
  N   N2        1.0  0.29889  0.84143  0.87982  1.0000
  N   N3        1.0  0.95726  0.15851  0.62033  1.0000
  N   N4        1.0  0.54274  0.84149  0.12033  1.0000
  N   N5        1.0  0.79889  0.84143  0.62018  1.0000
  N   N6        1.0  0.70111  0.15857  0.12018  1.0000
  N   N7        1.0  0.04274  0.84149  0.37967  1.0000
  N   N8        1.0  0.45726  0.15851  0.87967  1.0000
  N   N9        1.0  0.38289  0.55052  0.37684  1.0000
  N   N10       1.0  0.11711  0.44947  0.87684  1.0000
  N   N11       1.0  0.16751  0.55046  0.62330  1.0000
  N   N12       1.0  0.33249  0.44954  0.12329  1.0000
  N   N13       1.0  0.61711  0.44947  0.62316  1.0000
  N   N14       1.0  0.88290  0.55053  0.12316  1.0000
  N   N15       1.0  0.83248  0.44954  0.37670  1.0000
  N   N16       1.0  0.66751  0.55046  0.87671  1.0000
  Cl  Cl1       1.0  0.34130  0.99999  0.62546  1.0000
  Cl  Cl2       1.0  0.15870  0.00001  0.12546  1.0000
  Cl  Cl3       1.0  0.65870  0.00001  0.37453  1.0000
  Cl  Cl4       1.0  0.84130  0.99998  0.87454  1.0000
  O   O1        1.0  0.22150  0.99988  0.54497  1.0000
  O   O2        1.0  0.27850  0.00012  0.04497  1.0000
  O   O3        1.0  0.77850  0.00012  0.45503  1.0000
  O   O4        1.0  0.72150  0.99988  0.95503  1.0000
  O   O5        1.0  0.22086  0.00000  0.70662  1.0000
  O   O6        1.0  0.27915  1.00000  0.20662  1.0000
  O   O7        1.0  0.77915  1.00000  0.29338  1.0000
  O   O8        1.0  0.72086  0.00000  0.79338  1.0000
  O   O9        1.0  0.50125  0.08758  0.62555  1.0000
  O   O10       1.0  0.99875  0.91242  0.12555  1.0000
  O   O11       1.0  0.58595  0.08751  0.37432  1.0000
  O   O12       1.0  0.91405  0.91249  0.87433  1.0000
  O   O13       1.0  0.49874  0.91243  0.37445  1.0000
  O   O14       1.0  0.00126  0.08757  0.87445  1.0000
  O   O15       1.0  0.41406  0.91249  0.62568  1.0000
  O   O16       1.0  0.08594  0.08751  0.12568  1.0000
