data_image0
_chemical_formula_structural       Cu8H32C44N16O28
_chemical_formula_sum              "Cu8 H32 C44 N16 O28"
_cell_length_a       7.27127
_cell_length_b       13.7228
_cell_length_c       14.0974
_cell_angle_alpha    112.234
_cell_angle_beta     89.9835
_cell_angle_gamma    90.0054

_space_group_name_H-M_alt    "P 1"
_space_group_IT_number       1

loop_
  _space_group_symop_operation_xyz
  'x, y, z'

loop_
  _atom_site_type_symbol
  _atom_site_label
  _atom_site_symmetry_multiplicity
  _atom_site_fract_x
  _atom_site_fract_y
  _atom_site_fract_z
  _atom_site_occupancy
  Cu  Cu1       1.0  0.89665  0.09391  0.58854  1.0000
  Cu  Cu2       1.0  0.39649  0.40613  0.91145  1.0000
  Cu  Cu3       1.0  0.10336  0.90609  0.41145  1.0000
  Cu  Cu4       1.0  0.60352  0.59387  0.08855  1.0000
  Cu  Cu5       1.0  0.56475  0.34825  0.09068  1.0000
  Cu  Cu6       1.0  0.06468  0.15169  0.40921  1.0000
  Cu  Cu7       1.0  0.43522  0.65175  0.90932  1.0000
  Cu  Cu8       1.0  0.93533  0.84831  0.59079  1.0000
  H   H1        1.0  0.27337  0.07894  0.49669  1.0000
  H   H2        1.0  0.77365  0.42098  0.00324  1.0000
  H   H3        1.0  0.72664  0.92106  0.50331  1.0000
  H   H4        1.0  0.22634  0.57901  0.99676  1.0000
  H   H5        1.0  0.10362  0.14423  0.01238  1.0000
  H   H6        1.0  0.60364  0.35573  0.48762  1.0000
  H   H7        1.0  0.89637  0.85576  0.98762  1.0000
  H   H8        1.0  0.39636  0.64429  0.51238  1.0000
  H   H9        1.0  0.88581  0.18904  0.00495  1.0000
  H   H10       1.0  0.38578  0.31092  0.49510  1.0000
  H   H11       1.0  0.11418  0.81096  0.99505  1.0000
  H   H12       1.0  0.61422  0.68910  0.50490  1.0000
  H   H13       1.0  0.97975  0.22685  0.83959  1.0000
  H   H14       1.0  0.47984  0.27307  0.66045  1.0000
  H   H15       1.0  0.02024  0.77315  0.16040  1.0000
  H   H16       1.0  0.52018  0.72694  0.33955  1.0000
  H   H17       1.0  0.97024  0.91970  0.84340  1.0000
  H   H18       1.0  0.47013  0.58020  0.65664  1.0000
  H   H19       1.0  0.02977  0.08030  0.15660  1.0000
  H   H20       1.0  0.52985  0.41981  0.34337  1.0000
  H   H21       1.0  0.54863  0.22183  0.33423  1.0000
  H   H22       1.0  0.04873  0.27824  0.16575  1.0000
  H   H23       1.0  0.45135  0.77817  0.66578  1.0000
  H   H24       1.0  0.95125  0.72176  0.83424  1.0000
  H   H25       1.0  0.56420  0.90310  0.32156  1.0000
  H   H26       1.0  0.06431  0.59700  0.17852  1.0000
  H   H27       1.0  0.43582  0.09689  0.67844  1.0000
  H   H28       1.0  0.93570  0.40300  0.82148  1.0000
  H   H29       1.0  0.40083  0.96566  0.05614  1.0000
  H   H30       1.0  0.90090  0.53436  0.44393  1.0000
  H   H31       1.0  0.59916  0.03435  0.94387  1.0000
  H   H32       1.0  0.09910  0.46564  0.55607  1.0000
  C   C1        1.0  0.97423  0.14158  0.81294  1.0000
  C   C2        1.0  0.47431  0.35834  0.68711  1.0000
  C   C3        1.0  0.02576  0.85842  0.18706  1.0000
  C   C4        1.0  0.52570  0.64167  0.31289  1.0000
  C   C5        1.0  0.97099  0.98305  0.81538  1.0000
  C   C6        1.0  0.47096  0.51686  0.68466  1.0000
  C   C7        1.0  0.02902  0.01695  0.18462  1.0000
  C   C8        1.0  0.52903  0.48315  0.31535  1.0000
  C   C9        1.0  0.46970  0.10155  0.19089  1.0000
  C   C10       1.0  0.96979  0.39849  0.30913  1.0000
  C   C11       1.0  0.53029  0.89845  0.80911  1.0000
  C   C12       1.0  0.03020  0.60150  0.69086  1.0000
  C   C13       1.0  0.52473  0.13804  0.29354  1.0000
  C   C14       1.0  0.02482  0.36204  0.20647  1.0000
  C   C15       1.0  0.47526  0.86196  0.70647  1.0000
  C   C16       1.0  0.97517  0.63796  0.79352  1.0000
  C   C17       1.0  0.55155  0.06705  0.34179  1.0000
  C   C18       1.0  0.05174  0.43305  0.15825  1.0000
  C   C19       1.0  0.44845  0.93295  0.65821  1.0000
  C   C20       1.0  0.94825  0.56694  0.84175  1.0000
  C   C21       1.0  0.53627  0.95883  0.28529  1.0000
  C   C22       1.0  0.03642  0.54127  0.21479  1.0000
  C   C23       1.0  0.46374  0.04117  0.71471  1.0000
  C   C24       1.0  0.96358  0.45872  0.78521  1.0000
  C   C25       1.0  0.48442  0.92191  0.18194  1.0000
  C   C26       1.0  0.98444  0.57816  0.31815  1.0000
  C   C27       1.0  0.51558  0.07809  0.81807  1.0000
  C   C28       1.0  0.01556  0.42183  0.68186  1.0000
  C   C29       1.0  0.44549  0.99375  0.13570  1.0000
  C   C30       1.0  0.94559  0.50629  0.36437  1.0000
  C   C31       1.0  0.55451  0.00625  0.86430  1.0000
  C   C32       1.0  0.05441  0.49371  0.63563  1.0000
  C   C33       1.0  0.43719  0.17752  0.13890  1.0000
  C   C34       1.0  0.93726  0.32248  0.36109  1.0000
  C   C35       1.0  0.56279  0.82247  0.86109  1.0000
  C   C36       1.0  0.06274  0.67751  0.63891  1.0000
  C   C37       1.0  0.60664  0.10371  0.45289  1.0000
  C   C38       1.0  0.10689  0.39637  0.04714  1.0000
  C   C39       1.0  0.39336  0.89629  0.54711  1.0000
  C   C40       1.0  0.89310  0.60362  0.95286  1.0000
  C   C41       1.0  0.47881  0.80582  0.11995  1.0000
  C   C42       1.0  0.97849  0.69424  0.38010  1.0000
  C   C43       1.0  0.52120  0.19418  0.88004  1.0000
  C   C44       1.0  0.02152  0.30575  0.61991  1.0000
  N   N1        1.0  0.95952  0.97458  0.71921  1.0000
  N   N2        1.0  0.45953  0.52535  0.78083  1.0000
  N   N3        1.0  0.04049  0.02541  0.28079  1.0000
  N   N4        1.0  0.54046  0.47466  0.21917  1.0000
  N   N5        1.0  0.95967  0.07307  0.71744  1.0000
  N   N6        1.0  0.45978  0.42687  0.78262  1.0000
  N   N7        1.0  0.04033  0.92693  0.28256  1.0000
  N   N8        1.0  0.54022  0.57314  0.21737  1.0000
  N   N9        1.0  0.98019  0.08697  0.87622  1.0000
  N   N10       1.0  0.48020  0.41293  0.62381  1.0000
  N   N11       1.0  0.01980  0.91302  0.12377  1.0000
  N   N12       1.0  0.51980  0.58709  0.37619  1.0000
  N   N13       1.0  0.97238  0.12565  0.98280  1.0000
  N   N14       1.0  0.47239  0.37429  0.51724  1.0000
  N   N15       1.0  0.02761  0.87435  0.01720  1.0000
  N   N16       1.0  0.52761  0.62573  0.48276  1.0000
  O   O1        1.0  0.54256  0.25968  0.17034  1.0000
  O   O2        1.0  0.04262  0.24033  0.32957  1.0000
  O   O3        1.0  0.45740  0.74033  0.82966  1.0000
  O   O4        1.0  0.95739  0.75967  0.67043  1.0000
  O   O5        1.0  0.31806  0.15731  0.07024  1.0000
  O   O6        1.0  0.81818  0.34268  0.42982  1.0000
  O   O7        1.0  0.68193  0.84268  0.92977  1.0000
  O   O8        1.0  0.18183  0.65731  0.57018  1.0000
  O   O9        1.0  0.48841  0.12585  0.52298  1.0000
  O   O10       1.0  0.98878  0.37408  0.97702  1.0000
  O   O11       1.0  0.51160  0.87415  0.47702  1.0000
  O   O12       1.0  0.01120  0.62591  0.02298  1.0000
  O   O13       1.0  0.78127  0.10662  0.46721  1.0000
  O   O14       1.0  0.28156  0.39355  0.03287  1.0000
  O   O15       1.0  0.21874  0.89337  0.53278  1.0000
  O   O16       1.0  0.71843  0.60644  0.96712  1.0000
  O   O17       1.0  0.56760  0.74749  0.15615  1.0000
  O   O18       1.0  0.06675  0.75268  0.34378  1.0000
  O   O19       1.0  0.43244  0.25251  0.84384  1.0000
  O   O20       1.0  0.93326  0.24731  0.65621  1.0000
  O   O21       1.0  0.38758  0.77560  0.03619  1.0000
  O   O22       1.0  0.88735  0.72449  0.46392  1.0000
  O   O23       1.0  0.61242  0.22440  0.96382  1.0000
  O   O24       1.0  0.11268  0.27551  0.53608  1.0000
  O   O25       1.0  0.14421  0.05710  0.47346  1.0000
  O   O26       1.0  0.64450  0.44283  0.02647  1.0000
  O   O27       1.0  0.85580  0.94289  0.52654  1.0000
  O   O28       1.0  0.35549  0.55717  0.97353  1.0000
