data_image0
_chemical_formula_structural       Ni2H40C40N16O8
_chemical_formula_sum              "Ni2 H40 C40 N16 O8"
_cell_length_a       8.02734
_cell_length_b       12.2351
_cell_length_c       11.3133
_cell_angle_alpha    79.6455
_cell_angle_beta     80.8867
_cell_angle_gamma    70.6669

_space_group_name_H-M_alt    "P 1"
_space_group_IT_number       1

loop_
  _space_group_symop_operation_xyz
  'x, y, z'

loop_
  _atom_site_type_symbol
  _atom_site_label
  _atom_site_symmetry_multiplicity
  _atom_site_fract_x
  _atom_site_fract_y
  _atom_site_fract_z
  _atom_site_occupancy
  Ni  Ni1       1.0  0.00000  0.00000  0.00000  1.0000
  Ni  Ni2       1.0  0.49999  0.50001  0.50000  1.0000
  H   H1        1.0  0.24647  0.44045  0.83798  1.0000
  H   H2        1.0  0.75354  0.55954  0.16202  1.0000
  H   H3        1.0  0.80766  0.37517  0.07704  1.0000
  H   H4        1.0  0.19235  0.62482  0.92296  1.0000
  H   H5        1.0  0.71202  0.08888  0.82621  1.0000
  H   H6        1.0  0.28799  0.91112  0.17379  1.0000
  H   H7        1.0  0.66632  0.09755  0.19213  1.0000
  H   H8        1.0  0.33368  0.90245  0.80787  1.0000
  H   H9        1.0  0.33536  0.20711  0.11638  1.0000
  H   H10       1.0  0.66464  0.79289  0.88362  1.0000
  H   H11       1.0  0.38809  0.18872  0.87172  1.0000
  H   H12       1.0  0.61191  0.81128  0.12828  1.0000
  H   H13       1.0  0.09416  0.15178  0.77114  1.0000
  H   H14       1.0  0.90584  0.84822  0.22887  1.0000
  H   H15       1.0  0.97699  0.83890  0.82739  1.0000
  H   H16       1.0  0.02302  0.16110  0.17260  1.0000
  H   H17       1.0  0.08187  0.88207  0.58111  1.0000
  H   H18       1.0  0.91815  0.11794  0.41888  1.0000
  H   H19       1.0  0.15653  0.08972  0.55942  1.0000
  H   H20       1.0  0.84349  0.91030  0.44058  1.0000
  H   H21       1.0  0.42793  0.19814  0.38278  1.0000
  H   H22       1.0  0.57206  0.80186  0.61721  1.0000
  H   H23       1.0  0.62392  0.96529  0.69674  1.0000
  H   H24       1.0  0.37608  0.03471  0.30325  1.0000
  H   H25       1.0  0.37218  0.69320  0.29465  1.0000
  H   H26       1.0  0.62780  0.30682  0.70536  1.0000
  H   H27       1.0  0.55613  0.33300  0.31223  1.0000
  H   H28       1.0  0.44387  0.66701  0.68778  1.0000
  H   H29       1.0  0.42962  0.42014  0.08804  1.0000
  H   H30       1.0  0.57038  0.57986  0.91197  1.0000
  H   H31       1.0  0.30598  0.66004  0.09179  1.0000
  H   H32       1.0  0.69400  0.33997  0.90821  1.0000
  H   H33       1.0  0.23593  0.39546  0.63937  1.0000
  H   H34       1.0  0.76407  0.60454  0.36064  1.0000
  H   H35       1.0  0.16383  0.72402  0.45194  1.0000
  H   H36       1.0  0.83616  0.27599  0.54806  1.0000
  H   H37       1.0  0.83405  0.71645  0.56273  1.0000
  H   H38       1.0  0.16594  0.28355  0.43727  1.0000
  H   H39       1.0  0.90561  0.49461  0.69302  1.0000
  H   H40       1.0  0.09439  0.50539  0.30698  1.0000
  C   C1        1.0  0.04930  0.28605  0.90028  1.0000
  C   C2        1.0  0.95070  0.71394  0.09972  1.0000
  C   C3        1.0  0.02846  0.39625  0.95124  1.0000
  C   C4        1.0  0.97154  0.60374  0.04877  1.0000
  C   C5        1.0  0.13788  0.46658  0.90843  1.0000
  C   C6        1.0  0.86213  0.53341  0.09158  1.0000
  C   C7        1.0  0.89142  0.43072  0.04374  1.0000
  C   C8        1.0  0.10858  0.56928  0.95627  1.0000
  C   C9        1.0  0.62644  0.10982  0.10250  1.0000
  C   C10       1.0  0.37357  0.89018  0.89750  1.0000
  C   C11       1.0  0.45762  0.16576  0.06319  1.0000
  C   C12       1.0  0.54238  0.83424  0.93681  1.0000
  C   C13       1.0  0.48007  0.15789  0.94029  1.0000
  C   C14       1.0  0.51993  0.84211  0.05970  1.0000
  C   C15       1.0  0.01249  0.91264  0.77422  1.0000
  C   C16       1.0  0.98752  0.08736  0.22577  1.0000
  C   C17       1.0  0.06892  0.93497  0.65117  1.0000
  C   C18       1.0  0.93110  0.06503  0.34882  1.0000
  C   C19       1.0  0.10639  0.04017  0.63797  1.0000
  C   C20       1.0  0.89363  0.95984  0.36204  1.0000
  C   C21       1.0  0.54714  0.19439  0.59107  1.0000
  C   C22       1.0  0.45285  0.80561  0.40893  1.0000
  C   C23       1.0  0.52681  0.09223  0.54469  1.0000
  C   C24       1.0  0.47319  0.90777  0.45530  1.0000
  C   C25       1.0  0.45829  0.11064  0.43362  1.0000
  C   C26       1.0  0.54171  0.88936  0.56637  1.0000
  C   C27       1.0  0.56965  0.98017  0.61073  1.0000
  C   C28       1.0  0.43035  0.01983  0.38926  1.0000
  C   C29       1.0  0.49528  0.42232  0.27244  1.0000
  C   C30       1.0  0.50472  0.57770  0.72756  1.0000
  C   C31       1.0  0.43095  0.46795  0.15957  1.0000
  C   C32       1.0  0.56905  0.53206  0.84044  1.0000
  C   C33       1.0  0.36837  0.58879  0.15884  1.0000
  C   C34       1.0  0.63161  0.41122  0.84117  1.0000
  C   C35       1.0  0.12715  0.65382  0.51191  1.0000
  C   C36       1.0  0.87284  0.34618  0.48810  1.0000
  C   C37       1.0  0.96130  0.64956  0.57075  1.0000
  C   C38       1.0  0.03869  0.35044  0.42926  1.0000
  C   C39       1.0  0.99278  0.53797  0.63540  1.0000
  C   C40       1.0  0.00722  0.46203  0.36461  1.0000
  N   N1        1.0  0.74539  0.06959  0.00933  1.0000
  N   N2        1.0  0.25462  0.93040  0.99067  1.0000
  N   N3        1.0  0.65265  0.10000  0.91217  1.0000
  N   N4        1.0  0.34735  0.90000  0.08783  1.0000
  N   N5        1.0  0.01538  0.99975  0.83133  1.0000
  N   N6        1.0  0.98462  0.00025  0.16866  1.0000
  N   N7        1.0  0.07326  0.07673  0.74727  1.0000
  N   N8        1.0  0.92674  0.92327  0.25273  1.0000
  N   N9        1.0  0.47116  0.51030  0.33617  1.0000
  N   N10       1.0  0.52884  0.48971  0.66384  1.0000
  N   N11       1.0  0.39397  0.61086  0.26621  1.0000
  N   N12       1.0  0.60602  0.38915  0.73379  1.0000
  N   N13       1.0  0.25141  0.55039  0.53924  1.0000
  N   N14       1.0  0.74859  0.44961  0.46077  1.0000
  N   N15       1.0  0.16762  0.48172  0.61444  1.0000
  N   N16       1.0  0.83237  0.51829  0.38557  1.0000
  O   O1        1.0  0.97704  0.21501  0.96488  1.0000
  O   O2        1.0  0.02296  0.78499  0.03512  1.0000
  O   O3        1.0  0.13476  0.27096  0.79512  1.0000
  O   O4        1.0  0.86524  0.72903  0.20488  1.0000
  O   O5        1.0  0.45258  0.29473  0.54946  1.0000
  O   O6        1.0  0.54742  0.70526  0.45053  1.0000
  O   O7        1.0  0.65856  0.17464  0.66833  1.0000
  O   O8        1.0  0.34144  0.82536  0.33166  1.0000
