data_image0
_chemical_formula_structural       Cu2H16C20N8O12
_chemical_formula_sum              "Cu2 H16 C20 N8 O12"
_cell_length_a       7.368
_cell_length_b       9.72304
_cell_length_c       10.0295
_cell_angle_alpha    116.901
_cell_angle_beta     101.156
_cell_angle_gamma    102.178

_space_group_name_H-M_alt    "P 1"
_space_group_IT_number       1

loop_
  _space_group_symop_operation_xyz
  'x, y, z'

loop_
  _atom_site_type_symbol
  _atom_site_label
  _atom_site_symmetry_multiplicity
  _atom_site_fract_x
  _atom_site_fract_y
  _atom_site_fract_z
  _atom_site_occupancy
  Cu  Cu1       1.0  0.75175  0.51824  0.11557  1.0000
  Cu  Cu2       1.0  0.24825  0.48175  0.88443  1.0000
  H   H1        1.0  0.23632  0.02505  0.63211  1.0000
  H   H2        1.0  0.76368  0.97495  0.36788  1.0000
  H   H3        1.0  0.09261  0.84274  0.33859  1.0000
  H   H4        1.0  0.90739  0.15726  0.66141  1.0000
  H   H5        1.0  0.44861  0.17614  0.96513  1.0000
  H   H6        1.0  0.55140  0.82386  0.03487  1.0000
  H   H7        1.0  0.41012  0.12613  0.36582  1.0000
  H   H8        1.0  0.58988  0.87388  0.63419  1.0000
  H   H9        1.0  0.29473  0.00924  0.07261  1.0000
  H   H10       1.0  0.70527  0.99076  0.92740  1.0000
  H   H11       1.0  0.66042  0.40463  0.54113  1.0000
  H   H12       1.0  0.33958  0.59537  0.45887  1.0000
  H   H13       1.0  0.86560  0.64922  0.67354  1.0000
  H   H14       1.0  0.13440  0.35079  0.32646  1.0000
  H   H15       1.0  0.10819  0.92753  0.80362  1.0000
  H   H16       1.0  0.89181  0.07248  0.19637  1.0000
  C   C1        1.0  0.04451  0.80609  0.41725  1.0000
  C   C2        1.0  0.95549  0.19391  0.58275  1.0000
  C   C3        1.0  0.12390  0.90619  0.58165  1.0000
  C   C4        1.0  0.87610  0.09381  0.41835  1.0000
  C   C5        1.0  0.05533  0.85132  0.67493  1.0000
  C   C6        1.0  0.94467  0.14869  0.32506  1.0000
  C   C7        1.0  0.91473  0.69561  0.60160  1.0000
  C   C8        1.0  0.08527  0.30439  0.39840  1.0000
  C   C9        1.0  0.83959  0.60184  0.43642  1.0000
  C   C10       1.0  0.16041  0.39816  0.56358  1.0000
  C   C11       1.0  0.68856  0.43759  0.34539  1.0000
  C   C12       1.0  0.31144  0.56241  0.65461  1.0000
  C   C13       1.0  0.61041  0.35204  0.41331  1.0000
  C   C14       1.0  0.38959  0.64797  0.58670  1.0000
  C   C15       1.0  0.46939  0.19586  0.31506  1.0000
  C   C16       1.0  0.53061  0.80414  0.68494  1.0000
  C   C17       1.0  0.40775  0.12950  0.15163  1.0000
  C   C18       1.0  0.59225  0.87050  0.84837  1.0000
  C   C19       1.0  0.49173  0.22119  0.09145  1.0000
  C   C20       1.0  0.50828  0.77881  0.90856  1.0000
  N   N1        1.0  0.90294  0.65980  0.34738  1.0000
  N   N2        1.0  0.09706  0.34020  0.65262  1.0000
  N   N3        1.0  0.62911  0.37055  0.18569  1.0000
  N   N4        1.0  0.37089  0.62945  0.81431  1.0000
  N   N5        1.0  0.58301  0.27003  0.77966  1.0000
  N   N6        1.0  0.41699  0.72996  0.22034  1.0000
  N   N7        1.0  0.07332  0.30707  0.02626  1.0000
  N   N8        1.0  0.92668  0.69293  0.97374  1.0000
  O   O1        1.0  0.48772  0.22581  0.64150  1.0000
  O   O2        1.0  0.51227  0.77418  0.35850  1.0000
  O   O3        1.0  0.69038  0.19951  0.81390  1.0000
  O   O4        1.0  0.30962  0.80049  0.18610  1.0000
  O   O5        1.0  0.56330  0.39731  0.89460  1.0000
  O   O6        1.0  0.43670  0.60269  0.10541  1.0000
  O   O7        1.0  0.06812  0.44278  0.12430  1.0000
  O   O8        1.0  0.93188  0.55722  0.87570  1.0000
  O   O9        1.0  0.14118  0.29416  0.91118  1.0000
  O   O10       1.0  0.85882  0.70584  0.08882  1.0000
  O   O11       1.0  0.01820  0.18019  0.03183  1.0000
  O   O12       1.0  0.98180  0.81981  0.96817  1.0000
