data_image0
_chemical_formula_structural       Cu2H16C12N4Cl4
_chemical_formula_sum              "Cu2 H16 C12 N4 Cl4"
_cell_length_a       6.00458
_cell_length_b       6.71415
_cell_length_c       10.5951
_cell_angle_alpha    90.0011
_cell_angle_beta     89.9995
_cell_angle_gamma    104.536

_space_group_name_H-M_alt    "P 1"
_space_group_IT_number       1

loop_
  _space_group_symop_operation_xyz
  'x, y, z'

loop_
  _atom_site_type_symbol
  _atom_site_label
  _atom_site_symmetry_multiplicity
  _atom_site_fract_x
  _atom_site_fract_y
  _atom_site_fract_z
  _atom_site_occupancy
  Cu  Cu1       1.0  0.99999  0.99998  1.00000  1.0000
  Cu  Cu2       1.0  0.50001  0.00002  0.49999  1.0000
  H   H1        1.0  0.42681  0.27277  0.08157  1.0000
  H   H2        1.0  0.07319  0.72724  0.58158  1.0000
  H   H3        1.0  0.57316  0.72720  0.91843  1.0000
  H   H4        1.0  0.92685  0.27279  0.41844  1.0000
  H   H5        1.0  0.26183  0.26409  0.21962  1.0000
  H   H6        1.0  0.23817  0.73592  0.71961  1.0000
  H   H7        1.0  0.73813  0.73589  0.78039  1.0000
  H   H8        1.0  0.76188  0.26409  0.28039  1.0000
  H   H9        1.0  0.47015  0.49777  0.17896  1.0000
  H   H10       1.0  0.02985  0.50227  0.67896  1.0000
  H   H11       1.0  0.52982  0.50222  0.82104  1.0000
  H   H12       1.0  0.97022  0.49778  0.32103  1.0000
  H   H13       1.0  0.71730  0.24174  0.88416  1.0000
  H   H14       1.0  0.78272  0.75828  0.38415  1.0000
  H   H15       1.0  0.28265  0.75822  0.11583  1.0000
  H   H16       1.0  0.21737  0.24180  0.61582  1.0000
  C   C1        1.0  0.34137  0.36545  0.14130  1.0000
  C   C2        1.0  0.15861  0.63457  0.64130  1.0000
  C   C3        1.0  0.65858  0.63453  0.85869  1.0000
  C   C4        1.0  0.84143  0.36545  0.35869  1.0000
  C   C5        1.0  0.84418  0.35838  0.93554  1.0000
  C   C6        1.0  0.65582  0.64162  0.43554  1.0000
  C   C7        1.0  0.15578  0.64159  0.06447  1.0000
  C   C8        1.0  0.34419  0.35841  0.56447  1.0000
  C   C9        1.0  0.16450  0.43552  0.06764  1.0000
  C   C10       1.0  0.33549  0.56448  0.56763  1.0000
  C   C11       1.0  0.83549  0.56447  0.93237  1.0000
  C   C12       1.0  0.66450  0.43551  0.43236  1.0000
  N   N1        1.0  0.00489  0.29691  0.00175  1.0000
  N   N2        1.0  0.49508  0.70306  0.50174  1.0000
  N   N3        1.0  0.99509  0.70307  0.99825  1.0000
  N   N4        1.0  0.50492  0.29692  0.49826  1.0000
  Cl  Cl1       1.0  0.28799  0.06378  0.85512  1.0000
  Cl  Cl2       1.0  0.21204  0.93624  0.35511  1.0000
  Cl  Cl3       1.0  0.71201  0.93619  0.14489  1.0000
  Cl  Cl4       1.0  0.78796  0.06379  0.64489  1.0000
