data_image0
_chemical_formula_structural       Rb4H4C16O16
_chemical_formula_sum              "Rb4 H4 C16 O16"
_cell_length_a       4.18735
_cell_length_b       8.06407
_cell_length_c       16.0481
_cell_angle_alpha    89.9999
_cell_angle_beta     90.0001
_cell_angle_gamma    96.6418

_space_group_name_H-M_alt    "P 1"
_space_group_IT_number       1

loop_
  _space_group_symop_operation_xyz
  'x, y, z'

loop_
  _atom_site_type_symbol
  _atom_site_label
  _atom_site_symmetry_multiplicity
  _atom_site_fract_x
  _atom_site_fract_y
  _atom_site_fract_z
  _atom_site_occupancy
  Rb  Rb1       1.0  0.28449  0.23866  0.56666  1.0000
  Rb  Rb2       1.0  0.71550  0.26134  0.06666  1.0000
  Rb  Rb3       1.0  0.71551  0.76134  0.43334  1.0000
  Rb  Rb4       1.0  0.28450  0.73866  0.93334  1.0000
  H   H1        1.0  0.50813  0.48334  0.76270  1.0000
  H   H2        1.0  0.49187  0.01666  0.26270  1.0000
  H   H3        1.0  0.49187  0.51666  0.23730  1.0000
  H   H4        1.0  0.50813  0.98334  0.73730  1.0000
  C   C1        1.0  0.14560  0.30068  0.78975  1.0000
  C   C2        1.0  0.85440  0.19932  0.28975  1.0000
  C   C3        1.0  0.85440  0.69932  0.21025  1.0000
  C   C4        1.0  0.14560  0.80068  0.71025  1.0000
  C   C5        1.0  0.89653  0.16480  0.77785  1.0000
  C   C6        1.0  0.10346  0.33520  0.27785  1.0000
  C   C7        1.0  0.10346  0.83520  0.22215  1.0000
  C   C8        1.0  0.89654  0.66480  0.72215  1.0000
  C   C9        1.0  0.88471  0.13434  0.86938  1.0000
  C   C10       1.0  0.11528  0.36566  0.36938  1.0000
  C   C11       1.0  0.11528  0.86566  0.13062  1.0000
  C   C12       1.0  0.88473  0.63434  0.63062  1.0000
  C   C13       1.0  0.13090  0.28441  0.88039  1.0000
  C   C14       1.0  0.86910  0.21560  0.38038  1.0000
  C   C15       1.0  0.86910  0.71560  0.11961  1.0000
  C   C16       1.0  0.13090  0.78440  0.61962  1.0000
  O   O1        1.0  0.31399  0.39437  0.73613  1.0000
  O   O2        1.0  0.68601  0.10562  0.23613  1.0000
  O   O3        1.0  0.68601  0.60562  0.26387  1.0000
  O   O4        1.0  0.31399  0.89438  0.76387  1.0000
  O   O5        1.0  0.75079  0.10009  0.71366  1.0000
  O   O6        1.0  0.24921  0.39991  0.21365  1.0000
  O   O7        1.0  0.24921  0.89991  0.28634  1.0000
  O   O8        1.0  0.75079  0.60009  0.78635  1.0000
  O   O9        1.0  0.74334  0.03008  0.91745  1.0000
  O   O10       1.0  0.25666  0.46992  0.41745  1.0000
  O   O11       1.0  0.25666  0.96992  0.08255  1.0000
  O   O12       1.0  0.74334  0.53008  0.58255  1.0000
  O   O13       1.0  0.25990  0.36165  0.94141  1.0000
  O   O14       1.0  0.74010  0.13835  0.44141  1.0000
  O   O15       1.0  0.74010  0.63835  0.05859  1.0000
  O   O16       1.0  0.25990  0.86165  0.55859  1.0000
