data_image0
_chemical_formula_structural       Cu2P2H36C44Br2N2
_chemical_formula_sum              "Cu2 P2 H36 C44 Br2 N2"
_cell_length_a       8.1933
_cell_length_b       9.46165
_cell_length_c       13.788
_cell_angle_alpha    87.0971
_cell_angle_beta     73.1119
_cell_angle_gamma    65.2613

_space_group_name_H-M_alt    "P 1"
_space_group_IT_number       1

loop_
  _space_group_symop_operation_xyz
  'x, y, z'

loop_
  _atom_site_type_symbol
  _atom_site_label
  _atom_site_symmetry_multiplicity
  _atom_site_fract_x
  _atom_site_fract_y
  _atom_site_fract_z
  _atom_site_occupancy
  Cu  Cu1       1.0  0.84328  0.15219  0.07862  1.0000
  Cu  Cu2       1.0  0.15672  0.84781  0.92138  1.0000
  P   P1        1.0  0.86003  0.16709  0.23327  1.0000
  P   P2        1.0  0.13997  0.83291  0.76673  1.0000
  H   H1        1.0  0.48932  0.15046  0.09200  1.0000
  H   H2        1.0  0.51068  0.84955  0.90800  1.0000
  H   H3        1.0  0.17436  0.32908  0.07710  1.0000
  H   H4        1.0  0.82564  0.67093  0.92290  1.0000
  H   H5        1.0  0.87658  0.40446  0.98568  1.0000
  H   H6        1.0  0.12342  0.59555  0.01432  1.0000
  H   H7        1.0  0.63242  0.99825  0.26206  1.0000
  H   H8        1.0  0.36758  0.00175  0.73794  1.0000
  H   H9        1.0  0.34909  0.01030  0.39700  1.0000
  H   H10       1.0  0.65090  0.98971  0.60299  1.0000
  H   H11       1.0  0.19423  0.21659  0.54207  1.0000
  H   H12       1.0  0.80577  0.78341  0.45793  1.0000
  H   H13       1.0  0.32843  0.40268  0.55355  1.0000
  H   H14       1.0  0.67158  0.59731  0.44645  1.0000
  H   H15       1.0  0.62055  0.38475  0.42131  1.0000
  H   H16       1.0  0.37946  0.61524  0.57869  1.0000
  H   H17       1.0  0.70209  0.48257  0.18567  1.0000
  H   H18       1.0  0.29791  0.51743  0.81433  1.0000
  H   H19       1.0  0.76637  0.71347  0.20314  1.0000
  H   H20       1.0  0.23363  0.28652  0.79686  1.0000
  H   H21       1.0  0.01286  0.69164  0.28043  1.0000
  H   H22       1.0  0.98715  0.30836  0.71957  1.0000
  H   H23       1.0  0.18553  0.44130  0.34896  1.0000
  H   H24       1.0  0.81447  0.55869  0.65104  1.0000
  H   H25       1.0  0.11818  0.21323  0.33406  1.0000
  H   H26       1.0  0.88182  0.78677  0.66594  1.0000
  H   H27       1.0  0.87654  0.01151  0.42650  1.0000
  H   H28       1.0  0.12346  0.98849  0.57350  1.0000
  H   H29       1.0  0.12788  0.78024  0.46929  1.0000
  H   H30       1.0  0.87212  0.21977  0.53071  1.0000
  H   H31       1.0  0.43465  0.63810  0.33747  1.0000
  H   H32       1.0  0.56535  0.36190  0.66254  1.0000
  H   H33       1.0  0.48921  0.72899  0.16256  1.0000
  H   H34       1.0  0.51079  0.27101  0.83744  1.0000
  H   H35       1.0  0.23552  0.95659  0.11928  1.0000
  H   H36       1.0  0.76448  0.04341  0.88072  1.0000
  C   C1        1.0  0.58833  0.44563  0.00591  1.0000
  C   C2        1.0  0.41168  0.55437  0.99409  1.0000
  C   C3        1.0  0.46466  0.26610  0.06531  1.0000
  C   C4        1.0  0.53534  0.73391  0.93468  1.0000
  C   C5        1.0  0.28722  0.36729  0.05609  1.0000
  C   C6        1.0  0.71278  0.63271  0.94391  1.0000
  C   C7        1.0  0.74050  0.48810  0.97920  1.0000
  C   C8        1.0  0.25951  0.51190  0.02080  1.0000
  C   C9        1.0  0.64529  0.19061  0.33313  1.0000
  C   C10       1.0  0.35472  0.80939  0.66687  1.0000
  C   C11       1.0  0.56632  0.08635  0.32643  1.0000
  C   C12       1.0  0.43368  0.91365  0.67357  1.0000
  C   C13       1.0  0.40604  0.09447  0.40185  1.0000
  C   C14       1.0  0.59396  0.90553  0.59815  1.0000
  C   C15       1.0  0.32003  0.20903  0.48317  1.0000
  C   C16       1.0  0.67998  0.79097  0.51683  1.0000
  C   C17       1.0  0.39602  0.31426  0.48955  1.0000
  C   C18       1.0  0.60399  0.68574  0.51045  1.0000
  C   C19       1.0  0.55893  0.30456  0.41530  1.0000
  C   C20       1.0  0.44107  0.69543  0.58470  1.0000
  C   C21       1.0  0.90445  0.33269  0.25942  1.0000
  C   C22       1.0  0.09555  0.66731  0.74058  1.0000
  C   C23       1.0  0.80522  0.47515  0.22340  1.0000
  C   C24       1.0  0.19477  0.52485  0.77660  1.0000
  C   C25       1.0  0.84115  0.60434  0.23307  1.0000
  C   C26       1.0  0.15884  0.39566  0.76693  1.0000
  C   C27       1.0  0.97990  0.59208  0.27693  1.0000
  C   C28       1.0  0.02010  0.40791  0.72307  1.0000
  C   C29       1.0  0.07747  0.45189  0.31428  1.0000
  C   C30       1.0  0.92253  0.54810  0.68572  1.0000
  C   C31       1.0  0.03915  0.32288  0.30618  1.0000
  C   C32       1.0  0.96085  0.67712  0.69382  1.0000
  C   C33       1.0  0.04035  0.99980  0.27035  1.0000
  C   C34       1.0  0.95965  0.00020  0.72965  1.0000
  C   C35       1.0  0.01104  0.94952  0.36882  1.0000
  C   C36       1.0  0.98896  0.05048  0.63118  1.0000
  C   C37       1.0  0.15241  0.81961  0.39282  1.0000
  C   C38       1.0  0.84758  0.18039  0.60719  1.0000
  C   C39       1.0  0.32461  0.73962  0.31885  1.0000
  C   C40       1.0  0.67539  0.26038  0.68116  1.0000
  C   C41       1.0  0.35509  0.79002  0.22085  1.0000
  C   C42       1.0  0.64491  0.20998  0.77916  1.0000
  C   C43       1.0  0.21360  0.91874  0.19628  1.0000
  C   C44       1.0  0.78640  0.08125  0.80372  1.0000
  Br  Br1       1.0  0.84447  0.88964  0.04882  1.0000
  Br  Br2       1.0  0.15554  0.11036  0.95118  1.0000
  N   N1        1.0  0.61203  0.30203  0.04215  1.0000
  N   N2        1.0  0.38796  0.69797  0.95785  1.0000
