data_image0
_chemical_formula_structural       Mn2H24C20N12O16
_chemical_formula_sum              "Mn2 H24 C20 N12 O16"
_cell_length_a       7.32648
_cell_length_b       11.851
_cell_length_c       13.3286
_cell_angle_alpha    116.06
_cell_angle_beta     86.9418
_cell_angle_gamma    90.0165

_space_group_name_H-M_alt    "P 1"
_space_group_IT_number       1

loop_
  _space_group_symop_operation_xyz
  'x, y, z'

loop_
  _atom_site_type_symbol
  _atom_site_label
  _atom_site_symmetry_multiplicity
  _atom_site_fract_x
  _atom_site_fract_y
  _atom_site_fract_z
  _atom_site_occupancy
  Mn  Mn1       1.0  0.49986  0.50008  0.50003  1.0000
  Mn  Mn2       1.0  0.99640  0.99971  0.50004  1.0000
  H   H1        1.0  0.44996  0.29048  0.57939  1.0000
  H   H2        1.0  0.05368  0.70999  0.42015  1.0000
  H   H3        1.0  0.54988  0.70954  0.42065  1.0000
  H   H4        1.0  0.95117  0.28987  0.57932  1.0000
  H   H5        1.0  0.45298  0.26875  0.75698  1.0000
  H   H6        1.0  0.04401  0.51128  0.24351  1.0000
  H   H7        1.0  0.54694  0.73127  0.24303  1.0000
  H   H8        1.0  0.95358  0.48845  0.75654  1.0000
  H   H9        1.0  0.53803  0.66805  0.93031  1.0000
  H   H10       1.0  0.95886  0.73686  0.06812  1.0000
  H   H11       1.0  0.46194  0.33196  0.06971  1.0000
  H   H12       1.0  0.04022  0.26321  0.93207  1.0000
  H   H13       1.0  0.53100  0.67430  0.74452  1.0000
  H   H14       1.0  0.97202  0.92798  0.25307  1.0000
  H   H15       1.0  0.46896  0.32572  0.25550  1.0000
  H   H16       1.0  0.03259  0.07205  0.74664  1.0000
  H   H17       1.0  0.39437  0.75194  0.59424  1.0000
  H   H18       1.0  0.10595  0.15777  0.40445  1.0000
  H   H19       1.0  0.60561  0.24822  0.40580  1.0000
  H   H20       1.0  0.89341  0.84254  0.59551  1.0000
  H   H21       1.0  0.21168  0.67921  0.59771  1.0000
  H   H22       1.0  0.28737  0.08106  0.40081  1.0000
  H   H23       1.0  0.78824  0.32107  0.40236  1.0000
  H   H24       1.0  0.70977  0.91799  0.59956  1.0000
  C   C1        1.0  0.46980  0.37204  0.65835  1.0000
  C   C2        1.0  0.03185  0.71253  0.34095  1.0000
  C   C3        1.0  0.53013  0.62799  0.34167  1.0000
  C   C4        1.0  0.97074  0.28728  0.65875  1.0000
  C   C5        1.0  0.47085  0.36010  0.75736  1.0000
  C   C6        1.0  0.02698  0.60200  0.24256  1.0000
  C   C7        1.0  0.52911  0.63992  0.24266  1.0000
  C   C8        1.0  0.97125  0.39777  0.75749  1.0000
  C   C9        1.0  0.49444  0.46726  0.85786  1.0000
  C   C10       1.0  0.00276  0.60926  0.14209  1.0000
  C   C11       1.0  0.50556  0.53276  0.14218  1.0000
  C   C12       1.0  0.99538  0.39055  0.85795  1.0000
  C   C13       1.0  0.51843  0.58329  0.85388  1.0000
  C   C14       1.0  0.97953  0.72844  0.14482  1.0000
  C   C15       1.0  0.48155  0.41672  0.14614  1.0000
  C   C16       1.0  0.01954  0.27149  0.85530  1.0000
  C   C17       1.0  0.51558  0.58658  0.75162  1.0000
  C   C18       1.0  0.98581  0.83343  0.24656  1.0000
  C   C19       1.0  0.48439  0.41343  0.24841  1.0000
  C   C20       1.0  0.01695  0.16652  0.75326  1.0000
  N   N1        1.0  0.49128  0.48321  0.65459  1.0000
  N   N2        1.0  0.01357  0.82686  0.34349  1.0000
  N   N3        1.0  0.50867  0.51680  0.34544  1.0000
  N   N4        1.0  0.99383  0.17320  0.65593  1.0000
  N   N5        1.0  0.49142  0.44939  0.95519  1.0000
  N   N6        1.0  0.00303  0.49412  0.04509  1.0000
  N   N7        1.0  0.50859  0.55063  0.04485  1.0000
  N   N8        1.0  0.99474  0.50578  0.95497  1.0000
  N   N9        1.0  0.87479  0.62976  0.59237  1.0000
  N   N10       1.0  0.62540  0.03785  0.40711  1.0000
  N   N11       1.0  0.12518  0.37070  0.40766  1.0000
  N   N12       1.0  0.37399  0.96201  0.59292  1.0000
  O   O1        1.0  0.72506  0.63771  0.55036  1.0000
  O   O2        1.0  0.77451  0.08804  0.44981  1.0000
  O   O3        1.0  0.27482  0.36244  0.44962  1.0000
  O   O4        1.0  0.22387  0.91304  0.55164  1.0000
  O   O5        1.0  0.91220  0.53940  0.61157  1.0000
  O   O6        1.0  0.58929  0.92817  0.38747  1.0000
  O   O7        1.0  0.08820  0.46121  0.38856  1.0000
  O   O8        1.0  0.41240  0.07118  0.61194  1.0000
  O   O9        1.0  0.98550  0.72052  0.61420  1.0000
  O   O10       1.0  0.51450  0.10665  0.38510  1.0000
  O   O11       1.0  0.01417  0.28014  0.38577  1.0000
  O   O12       1.0  0.48472  0.89245  0.61451  1.0000
  O   O13       1.0  0.34727  0.67005  0.58758  1.0000
  O   O14       1.0  0.15185  0.08194  0.41032  1.0000
  O   O15       1.0  0.65260  0.33004  0.41245  1.0000
  O   O16       1.0  0.84544  0.91802  0.58971  1.0000
