data_image0
_chemical_formula_structural       MnH16C26N8O2
_chemical_formula_sum              "Mn1 H16 C26 N8 O2"
_cell_length_a       7.05559
_cell_length_b       7.31838
_cell_length_c       13.7382
_cell_angle_alpha    78.6883
_cell_angle_beta     84.1811
_cell_angle_gamma    68.4524

_space_group_name_H-M_alt    "P 1"
_space_group_IT_number       1

loop_
  _space_group_symop_operation_xyz
  'x, y, z'

loop_
  _atom_site_type_symbol
  _atom_site_label
  _atom_site_symmetry_multiplicity
  _atom_site_fract_x
  _atom_site_fract_y
  _atom_site_fract_z
  _atom_site_occupancy
  Mn  Mn1       1.0  0.00001  1.00000  1.00000  1.0000
  H   H1        1.0  0.80091  0.42270  0.98809  1.0000
  H   H2        1.0  0.19911  0.57730  0.01191  1.0000
  H   H3        1.0  0.88581  0.78670  0.66575  1.0000
  H   H4        1.0  0.11420  0.21329  0.33425  1.0000
  H   H5        1.0  0.84149  0.68894  0.51131  1.0000
  H   H6        1.0  0.15849  0.31106  0.48869  1.0000
  H   H7        1.0  0.18672  0.89113  0.56923  1.0000
  H   H8        1.0  0.81328  0.10888  0.43078  1.0000
  H   H9        1.0  0.23003  0.99022  0.72226  1.0000
  H   H10       1.0  0.76997  0.00978  0.27775  1.0000
  H   H11       1.0  0.93832  0.54247  0.83410  1.0000
  H   H12       1.0  0.06169  0.45752  0.16590  1.0000
  H   H13       1.0  0.72017  0.48150  0.81576  1.0000
  H   H14       1.0  0.27983  0.51851  0.18424  1.0000
  H   H15       1.0  0.97314  0.30988  0.80024  1.0000
  H   H16       1.0  0.02684  0.69011  0.19976  1.0000
  C   C1        1.0  0.56138  0.89516  0.70637  1.0000
  C   C2        1.0  0.43862  0.10485  0.29363  1.0000
  C   C3        1.0  0.73258  0.81116  0.64426  1.0000
  C   C4        1.0  0.26742  0.18883  0.35574  1.0000
  C   C5        1.0  0.70838  0.75454  0.55784  1.0000
  C   C6        1.0  0.29161  0.24546  0.44216  1.0000
  C   C7        1.0  0.51072  0.77895  0.52897  1.0000
  C   C8        1.0  0.48927  0.22106  0.47103  1.0000
  C   C9        1.0  0.33939  0.86766  0.59059  1.0000
  C   C10       1.0  0.66060  0.13235  0.40942  1.0000
  C   C11       1.0  0.36435  0.92240  0.67700  1.0000
  C   C12       1.0  0.63564  0.07761  0.32300  1.0000
  C   C13       1.0  0.58449  0.94176  0.80104  1.0000
  C   C14       1.0  0.41553  0.05822  0.19896  1.0000
  C   C15       1.0  0.76537  0.94256  0.83286  1.0000
  C   C16       1.0  0.23463  0.05745  0.16713  1.0000
  C   C17       1.0  0.42292  0.97439  0.87095  1.0000
  C   C18       1.0  0.57709  0.02561  0.12905  1.0000
  C   C19       1.0  0.48222  0.71663  0.44164  1.0000
  C   C20       1.0  0.51779  0.28337  0.55835  1.0000
  C   C21       1.0  0.64434  0.61858  0.37951  1.0000
  C   C22       1.0  0.35564  0.38144  0.62048  1.0000
  C   C23       1.0  0.28576  0.73975  0.41425  1.0000
  C   C24       1.0  0.71424  0.26026  0.58575  1.0000
  C   C25       1.0  0.87598  0.42317  0.84294  1.0000
  C   C26       1.0  0.12402  0.57683  0.15706  1.0000
  N   N1        1.0  0.91136  0.94491  0.86644  1.0000
  N   N2        1.0  0.08866  0.05509  0.13356  1.0000
  N   N3        1.0  0.28556  0.99350  0.92888  1.0000
  N   N4        1.0  0.71446  0.00648  0.07112  1.0000
  N   N5        1.0  0.77311  0.53216  0.32679  1.0000
  N   N6        1.0  0.22689  0.46784  0.67321  1.0000
  N   N7        1.0  0.12337  0.75776  0.39132  1.0000
  N   N8        1.0  0.87662  0.24225  0.60867  1.0000
  O   O1        1.0  0.88089  0.32698  0.94605  1.0000
  O   O2        1.0  0.11911  0.67301  0.05395  1.0000
