data_image0
_chemical_formula_structural       K4P4H36C28N4O28
_chemical_formula_sum              "K4 P4 H36 C28 N4 O28"
_cell_length_a       7.39552
_cell_length_b       9.53528
_cell_length_c       16.3285
_cell_angle_alpha    85.0432
_cell_angle_beta     88.9899
_cell_angle_gamma    84.1315

_space_group_name_H-M_alt    "P 1"
_space_group_IT_number       1

loop_
  _space_group_symop_operation_xyz
  'x, y, z'

loop_
  _atom_site_type_symbol
  _atom_site_label
  _atom_site_symmetry_multiplicity
  _atom_site_fract_x
  _atom_site_fract_y
  _atom_site_fract_z
  _atom_site_occupancy
  K   K1        1.0  0.32227  0.64973  0.92139  1.0000
  K   K2        1.0  0.67774  0.35025  0.07861  1.0000
  K   K3        1.0  0.67663  0.83661  0.06641  1.0000
  K   K4        1.0  0.32337  0.16339  0.93358  1.0000
  P   P1        1.0  0.79933  0.58882  0.89079  1.0000
  P   P2        1.0  0.20067  0.41117  0.10921  1.0000
  P   P3        1.0  0.20336  0.90469  0.08342  1.0000
  P   P4        1.0  0.79664  0.09531  0.91658  1.0000
  H   H1        1.0  0.90763  0.79932  0.89164  1.0000
  H   H2        1.0  0.09237  0.20068  0.10836  1.0000
  H   H3        1.0  0.37266  0.66354  0.72467  1.0000
  H   H4        1.0  0.62734  0.33646  0.27533  1.0000
  H   H5        1.0  0.38436  0.66136  0.57178  1.0000
  H   H6        1.0  0.61564  0.33865  0.42822  1.0000
  H   H7        1.0  0.96924  0.60960  0.57924  1.0000
  H   H8        1.0  0.03076  0.39040  0.42076  1.0000
  H   H9        1.0  0.95831  0.61718  0.73190  1.0000
  H   H10       1.0  0.04169  0.38281  0.26810  1.0000
  H   H11       1.0  0.08391  0.69939  0.10623  1.0000
  H   H12       1.0  0.91609  0.30061  0.89377  1.0000
  H   H13       1.0  0.15416  0.68843  0.26286  1.0000
  H   H14       1.0  0.84584  0.31157  0.73714  1.0000
  H   H15       1.0  0.09637  0.72356  0.41226  1.0000
  H   H16       1.0  0.90363  0.27644  0.58774  1.0000
  H   H17       1.0  0.39306  0.09053  0.38784  1.0000
  H   H18       1.0  0.60694  0.90947  0.61216  1.0000
  H   H19       1.0  0.44415  0.05865  0.23694  1.0000
  H   H20       1.0  0.55585  0.94135  0.76306  1.0000
  H   H21       1.0  0.11533  0.94092  0.85868  1.0000
  H   H22       1.0  0.88467  0.05907  0.14132  1.0000
  H   H23       1.0  0.28113  0.91456  0.70052  1.0000
  H   H24       1.0  0.71886  0.08544  0.29948  1.0000
  H   H25       1.0  0.06393  0.86219  0.73191  1.0000
  H   H26       1.0  0.93607  0.13781  0.26809  1.0000
  H   H27       1.0  0.10148  0.04502  0.72107  1.0000
  H   H28       1.0  0.89852  0.95498  0.27893  1.0000
  H   H29       1.0  0.12077  0.43645  0.84084  1.0000
  H   H30       1.0  0.87923  0.56355  0.15916  1.0000
  H   H31       1.0  0.19889  0.43587  0.70173  1.0000
  H   H32       1.0  0.80111  0.56414  0.29827  1.0000
  H   H33       1.0  0.23097  0.26079  0.75023  1.0000
  H   H34       1.0  0.76904  0.73921  0.24977  1.0000
  H   H35       1.0  0.41973  0.36271  0.73297  1.0000
  H   H36       1.0  0.58028  0.63729  0.26703  1.0000
  C   C1        1.0  0.66401  0.63939  0.73693  1.0000
  C   C2        1.0  0.33599  0.36061  0.26307  1.0000
  C   C3        1.0  0.50231  0.65263  0.69213  1.0000
  C   C4        1.0  0.49769  0.34738  0.30787  1.0000
  C   C5        1.0  0.50855  0.65054  0.60743  1.0000
  C   C6        1.0  0.49145  0.34946  0.39257  1.0000
  C   C7        1.0  0.67807  0.63431  0.56828  1.0000
  C   C8        1.0  0.32193  0.36569  0.43172  1.0000
  C   C9        1.0  0.84019  0.62128  0.61202  1.0000
  C   C10       1.0  0.15981  0.37872  0.38798  1.0000
  C   C11       1.0  0.83345  0.62469  0.69694  1.0000
  C   C12       1.0  0.16655  0.37531  0.30306  1.0000
  C   C13       1.0  0.29970  0.87374  0.24260  1.0000
  C   C14       1.0  0.70030  0.12626  0.75739  1.0000
  C   C15       1.0  0.20295  0.77735  0.29048  1.0000
  C   C16       1.0  0.79705  0.22265  0.70952  1.0000
  C   C17       1.0  0.17218  0.79591  0.37337  1.0000
  C   C18       1.0  0.82781  0.20409  0.62663  1.0000
  C   C19       1.0  0.24108  0.90961  0.40658  1.0000
  C   C20       1.0  0.75892  0.09039  0.59342  1.0000
  C   C21       1.0  0.33894  0.00524  0.35916  1.0000
  C   C22       1.0  0.66105  0.99476  0.64084  1.0000
  C   C23       1.0  0.36731  0.98750  0.27624  1.0000
  C   C24       1.0  0.63269  0.01250  0.72376  1.0000
  C   C25       1.0  0.16355  0.93789  0.74049  1.0000
  C   C26       1.0  0.83645  0.06211  0.25951  1.0000
  C   C27       1.0  0.27538  0.36795  0.74975  1.0000
  C   C28       1.0  0.72463  0.63205  0.25025  1.0000
  N   N1        1.0  0.68522  0.63086  0.47944  1.0000
  N   N2        1.0  0.31477  0.36914  0.52056  1.0000
  N   N3        1.0  0.21590  0.92731  0.49420  1.0000
  N   N4        1.0  0.78410  0.07269  0.50580  1.0000
  O   O1        1.0  0.64337  0.64472  0.82036  1.0000
  O   O2        1.0  0.35663  0.35528  0.17964  1.0000
  O   O3        1.0  0.94829  0.69621  0.87926  1.0000
  O   O4        1.0  0.05171  0.30379  0.12074  1.0000
  O   O5        1.0  0.89282  0.44966  0.86644  1.0000
  O   O6        1.0  0.10719  0.55034  0.13356  1.0000
  O   O7        1.0  0.69369  0.59483  0.96964  1.0000
  O   O8        1.0  0.30631  0.40516  0.03036  1.0000
  O   O9        1.0  0.54020  0.65373  0.44091  1.0000
  O   O10       1.0  0.45980  0.34627  0.55909  1.0000
  O   O11       1.0  0.83631  0.60370  0.44623  1.0000
  O   O12       1.0  0.16369  0.39630  0.55377  1.0000
  O   O13       1.0  0.34109  0.85358  0.16110  1.0000
  O   O14       1.0  0.65891  0.14642  0.83890  1.0000
  O   O15       1.0  0.04396  0.80640  0.09486  1.0000
  O   O16       1.0  0.95604  0.19360  0.90514  1.0000
  O   O17       1.0  0.11555  0.05297  0.09177  1.0000
  O   O18       1.0  0.88445  0.94703  0.90823  1.0000
  O   O19       1.0  0.32323  0.87923  0.01003  1.0000
  O   O20       1.0  0.67677  0.12077  0.98997  1.0000
  O   O21       1.0  0.27961  0.02834  0.52273  1.0000
  O   O22       1.0  0.72039  0.97166  0.47727  1.0000
  O   O23       1.0  0.13255  0.83912  0.53668  1.0000
  O   O24       1.0  0.86745  0.16088  0.46332  1.0000
  O   O25       1.0  0.22538  0.92705  0.82405  1.0000
  O   O26       1.0  0.77462  0.07295  0.17595  1.0000
  O   O27       1.0  0.25318  0.42239  0.82901  1.0000
  O   O28       1.0  0.74682  0.57761  0.17099  1.0000
