data_image0
_chemical_formula_structural       K4P4H36C24N4O32
_chemical_formula_sum              "K4 P4 H36 C24 N4 O32"
_cell_length_a       6.65378
_cell_length_b       12.5696
_cell_length_c       13.3647
_cell_angle_alpha    93.5978
_cell_angle_beta     89.9999
_cell_angle_gamma    89.9999

_space_group_name_H-M_alt    "P 1"
_space_group_IT_number       1

loop_
  _space_group_symop_operation_xyz
  'x, y, z'

loop_
  _atom_site_type_symbol
  _atom_site_label
  _atom_site_symmetry_multiplicity
  _atom_site_fract_x
  _atom_site_fract_y
  _atom_site_fract_z
  _atom_site_occupancy
  K   K1        1.0  0.16178  0.09999  0.43564  1.0000
  K   K2        1.0  0.66178  0.90001  0.06436  1.0000
  K   K3        1.0  0.83821  0.90001  0.56435  1.0000
  K   K4        1.0  0.33821  0.09999  0.93564  1.0000
  P   P1        1.0  0.97182  0.17990  0.73009  1.0000
  P   P2        1.0  0.47182  0.82010  0.76991  1.0000
  P   P3        1.0  0.02818  0.82010  0.26991  1.0000
  P   P4        1.0  0.52818  0.17990  0.23009  1.0000
  H   H1        1.0  0.26762  0.11636  0.67953  1.0000
  H   H2        1.0  0.76762  0.88364  0.82047  1.0000
  H   H3        1.0  0.73238  0.88364  0.32047  1.0000
  H   H4        1.0  0.23238  0.11636  0.17953  1.0000
  H   H5        1.0  0.27409  0.46982  0.78610  1.0000
  H   H6        1.0  0.77409  0.53017  0.71390  1.0000
  H   H7        1.0  0.72591  0.53017  0.21390  1.0000
  H   H8        1.0  0.22591  0.46983  0.28610  1.0000
  H   H9        1.0  0.14371  0.63926  0.87211  1.0000
  H   H10       1.0  0.64371  0.36073  0.62789  1.0000
  H   H11       1.0  0.85629  0.36074  0.12789  1.0000
  H   H12       1.0  0.35629  0.63926  0.37211  1.0000
  H   H13       1.0  0.60136  0.47291  0.94768  1.0000
  H   H14       1.0  0.10136  0.52709  0.55232  1.0000
  H   H15       1.0  0.39864  0.52709  0.05232  1.0000
  H   H16       1.0  0.89864  0.47291  0.44768  1.0000
  H   H17       1.0  0.72654  0.30812  0.85885  1.0000
  H   H18       1.0  0.22654  0.69188  0.64115  1.0000
  H   H19       1.0  0.27347  0.69188  0.14115  1.0000
  H   H20       1.0  0.77346  0.30812  0.35885  1.0000
  H   H21       1.0  0.02743  0.01300  0.20707  1.0000
  H   H22       1.0  0.52743  0.98700  0.29293  1.0000
  H   H23       1.0  0.97257  0.98700  0.79293  1.0000
  H   H24       1.0  0.47257  0.01300  0.70707  1.0000
  H   H25       1.0  0.92964  0.13247  0.21009  1.0000
  H   H26       1.0  0.42965  0.86753  0.28991  1.0000
  H   H27       1.0  0.07035  0.86753  0.78991  1.0000
  H   H28       1.0  0.57035  0.13247  0.71009  1.0000
  H   H29       1.0  0.25653  0.85242  0.45353  1.0000
  H   H30       1.0  0.75653  0.14758  0.04647  1.0000
  H   H31       1.0  0.74346  0.14758  0.54647  1.0000
  H   H32       1.0  0.24346  0.85242  0.95353  1.0000
  H   H33       1.0  0.32760  0.88660  0.56502  1.0000
  H   H34       1.0  0.82760  0.11340  0.93498  1.0000
  H   H35       1.0  0.67240  0.11340  0.43498  1.0000
  H   H36       1.0  0.17240  0.88660  0.06502  1.0000
  C   C1        1.0  0.00618  0.38067  0.81429  1.0000
  C   C2        1.0  0.50618  0.61933  0.68571  1.0000
  C   C3        1.0  0.99382  0.61933  0.18571  1.0000
  C   C4        1.0  0.49382  0.38067  0.31429  1.0000
  C   C5        1.0  0.12614  0.47300  0.82077  1.0000
  C   C6        1.0  0.62614  0.52700  0.67923  1.0000
  C   C7        1.0  0.87386  0.52700  0.17923  1.0000
  C   C8        1.0  0.37386  0.47300  0.32077  1.0000
  C   C9        1.0  0.05548  0.56608  0.86944  1.0000
  C   C10       1.0  0.55548  0.43392  0.63056  1.0000
  C   C11       1.0  0.94452  0.43392  0.13056  1.0000
  C   C12       1.0  0.44452  0.56608  0.36944  1.0000
  C   C13       1.0  0.86499  0.56518  0.91397  1.0000
  C   C14       1.0  0.36499  0.43482  0.58603  1.0000
  C   C15       1.0  0.13501  0.43482  0.08603  1.0000
  C   C16       1.0  0.63501  0.56518  0.41397  1.0000
  C   C17       1.0  0.74727  0.47287  0.91134  1.0000
  C   C18       1.0  0.24727  0.52713  0.58866  1.0000
  C   C19       1.0  0.25273  0.52713  0.08866  1.0000
  C   C20       1.0  0.75273  0.47287  0.41134  1.0000
  C   C21       1.0  0.81768  0.38007  0.86172  1.0000
  C   C22       1.0  0.31768  0.61993  0.63828  1.0000
  C   C23       1.0  0.18232  0.61993  0.13828  1.0000
  C   C24       1.0  0.68232  0.38007  0.36172  1.0000
  N   N1        1.0  0.79202  0.66153  0.96592  1.0000
  N   N2        1.0  0.29202  0.33847  0.53408  1.0000
  N   N3        1.0  0.20798  0.33847  0.03408  1.0000
  N   N4        1.0  0.70798  0.66153  0.46592  1.0000
  O   O1        1.0  0.08466  0.29570  0.75982  1.0000
  O   O2        1.0  0.58466  0.70430  0.74017  1.0000
  O   O3        1.0  0.91534  0.70430  0.24017  1.0000
  O   O4        1.0  0.41534  0.29570  0.25983  1.0000
  O   O5        1.0  0.12253  0.13291  0.64886  1.0000
  O   O6        1.0  0.62253  0.86708  0.85114  1.0000
  O   O7        1.0  0.87746  0.86708  0.35114  1.0000
  O   O8        1.0  0.37747  0.13292  0.14886  1.0000
  O   O9        1.0  0.97649  0.11693  0.82350  1.0000
  O   O10       1.0  0.47649  0.88307  0.67650  1.0000
  O   O11       1.0  0.02351  0.88307  0.17650  1.0000
  O   O12       1.0  0.52351  0.11693  0.32350  1.0000
  O   O13       1.0  0.77035  0.20034  0.68317  1.0000
  O   O14       1.0  0.27035  0.79966  0.81683  1.0000
  O   O15       1.0  0.22965  0.79966  0.31683  1.0000
  O   O16       1.0  0.72965  0.20034  0.18317  1.0000
  O   O17       1.0  0.90597  0.74043  0.97321  1.0000
  O   O18       1.0  0.40596  0.25957  0.52679  1.0000
  O   O19       1.0  0.09403  0.25957  0.02679  1.0000
  O   O20       1.0  0.59403  0.74043  0.47321  1.0000
  O   O21       1.0  0.61911  0.66261  0.00282  1.0000
  O   O22       1.0  0.11911  0.33739  0.49718  1.0000
  O   O23       1.0  0.38089  0.33739  0.99718  1.0000
  O   O24       1.0  0.88089  0.66261  0.50282  1.0000
  O   O25       1.0  0.05191  0.09015  0.22769  1.0000
  O   O26       1.0  0.55191  0.90985  0.27231  1.0000
  O   O27       1.0  0.94809  0.90985  0.77231  1.0000
  O   O28       1.0  0.44809  0.09015  0.72769  1.0000
  O   O29       1.0  0.23559  0.90459  0.51060  1.0000
  O   O30       1.0  0.73559  0.09541  0.98940  1.0000
  O   O31       1.0  0.76441  0.09541  0.48940  1.0000
  O   O32       1.0  0.26441  0.90459  0.01060  1.0000
