data_image0
_chemical_formula_structural       Y2P2H48C78O12
_chemical_formula_sum              "Y2 P2 H48 C78 O12"
_cell_length_a       6.93686
_cell_length_b       17.8248
_cell_length_c       17.8252
_cell_angle_alpha    100.602
_cell_angle_beta     99.8583
_cell_angle_gamma    99.8596

_space_group_name_H-M_alt    "P 1"
_space_group_IT_number       1

loop_
  _space_group_symop_operation_xyz
  'x, y, z'

loop_
  _atom_site_type_symbol
  _atom_site_label
  _atom_site_symmetry_multiplicity
  _atom_site_fract_x
  _atom_site_fract_y
  _atom_site_fract_z
  _atom_site_occupancy
  Y   Y1        1.0  0.78793  0.50494  0.47605  1.0000
  Y   Y2        1.0  0.28793  0.47605  0.50494  1.0000
  P   P1        1.0  0.28137  0.07849  0.92963  1.0000
  P   P2        1.0  0.78137  0.92963  0.07848  1.0000
  H   H1        1.0  0.64158  0.08510  0.85293  1.0000
  H   H2        1.0  0.14157  0.85293  0.08510  1.0000
  H   H3        1.0  0.11503  0.91877  0.85747  1.0000
  H   H4        1.0  0.61504  0.85747  0.91877  1.0000
  H   H5        1.0  0.42719  0.25344  0.96724  1.0000
  H   H6        1.0  0.92717  0.96723  0.25343  1.0000
  H   H7        1.0  0.64533  0.05078  0.01646  1.0000
  H   H8        1.0  0.14533  0.01646  0.05078  1.0000
  H   H9        1.0  0.00449  0.17730  0.95553  1.0000
  H   H10       1.0  0.50448  0.95553  0.17729  1.0000
  H   H11       1.0  0.30231  0.10835  0.76839  1.0000
  H   H12       1.0  0.80230  0.76839  0.10834  1.0000
  H   H13       1.0  0.73103  0.98730  0.75584  1.0000
  H   H14       1.0  0.23104  0.75584  0.98729  1.0000
  H   H15       1.0  0.20627  0.82018  0.76073  1.0000
  H   H16       1.0  0.70628  0.76073  0.82018  1.0000
  H   H17       1.0  0.72316  0.33868  0.05912  1.0000
  H   H18       1.0  0.22315  0.05910  0.33866  1.0000
  H   H19       1.0  0.94085  0.13599  0.10646  1.0000
  H   H20       1.0  0.44086  0.10646  0.13599  1.0000
  H   H21       1.0  0.83682  0.25829  0.87948  1.0000
  H   H22       1.0  0.33682  0.87948  0.25828  1.0000
  H   H23       1.0  0.12579  0.18601  0.69035  1.0000
  H   H24       1.0  0.62579  0.69034  0.18601  1.0000
  H   H25       1.0  0.85051  0.37556  0.19383  1.0000
  H   H26       1.0  0.35049  0.19382  0.37556  1.0000
  H   H27       1.0  0.23991  0.22366  0.12213  1.0000
  H   H28       1.0  0.73991  0.12213  0.22366  1.0000
  H   H29       1.0  0.12634  0.45360  0.30053  1.0000
  H   H30       1.0  0.62633  0.30052  0.45360  1.0000
  H   H31       1.0  0.51685  0.30347  0.22942  1.0000
  H   H32       1.0  0.01684  0.22942  0.30347  1.0000
  H   H33       1.0  0.22416  0.78204  0.63385  1.0000
  H   H34       1.0  0.72416  0.63385  0.78204  1.0000
  H   H35       1.0  0.84889  0.87629  0.73779  1.0000
  H   H36       1.0  0.34889  0.73779  0.87629  1.0000
  H   H37       1.0  0.31445  0.67345  0.54996  1.0000
  H   H38       1.0  0.81444  0.54996  0.67345  1.0000
  H   H39       1.0  0.93692  0.76627  0.65210  1.0000
  H   H40       1.0  0.43691  0.65210  0.76627  1.0000
  H   H41       1.0  0.59304  0.25349  0.78249  1.0000
  H   H42       1.0  0.09304  0.78249  0.25349  1.0000
  H   H43       1.0  0.08612  0.30225  0.66725  1.0000
  H   H44       1.0  0.58612  0.66725  0.30225  1.0000
  H   H45       1.0  0.40334  0.32707  0.70226  1.0000
  H   H46       1.0  0.90335  0.70226  0.32707  1.0000
  H   H47       1.0  0.89453  0.37404  0.58772  1.0000
  H   H48       1.0  0.39454  0.58772  0.37404  1.0000
  C   C1        1.0  0.36872  0.00964  0.86070  1.0000
  C   C2        1.0  0.86872  0.86070  0.00963  1.0000
  C   C3        1.0  0.51302  0.14570  0.98464  1.0000
  C   C4        1.0  0.01301  0.98464  0.14569  1.0000
  C   C5        1.0  0.16720  0.13731  0.86788  1.0000
  C   C6        1.0  0.66718  0.86787  0.13730  1.0000
  C   C7        1.0  0.54411  0.02734  0.83235  1.0000
  C   C8        1.0  0.04411  0.83235  0.02733  1.0000
  C   C9        1.0  0.24812  0.93433  0.83388  1.0000
  C   C10       1.0  0.74813  0.83388  0.93433  1.0000
  C   C11       1.0  0.53912  0.22726  0.99775  1.0000
  C   C12       1.0  0.03911  0.99774  0.22725  1.0000
  C   C13       1.0  0.66183  0.11398  0.02424  1.0000
  C   C14       1.0  0.16182  0.02424  0.11397  1.0000
  C   C15       1.0  0.03386  0.17987  0.89775  1.0000
  C   C16       1.0  0.53386  0.89774  0.17986  1.0000
  C   C17       1.0  0.20039  0.14118  0.79306  1.0000
  C   C18       1.0  0.70039  0.79305  0.14118  1.0000
  C   C19       1.0  0.59579  0.97168  0.77798  1.0000
  C   C20       1.0  0.09580  0.77798  0.97168  1.0000
  C   C21       1.0  0.29899  0.87890  0.77901  1.0000
  C   C22       1.0  0.79899  0.77900  0.87890  1.0000
  C   C23       1.0  0.70628  0.27548  0.05008  1.0000
  C   C24       1.0  0.20626  0.05007  0.27547  1.0000
  C   C25       1.0  0.82963  0.16222  0.07553  1.0000
  C   C26       1.0  0.32963  0.07553  0.16221  1.0000
  C   C27       1.0  0.93676  0.22484  0.85417  1.0000
  C   C28       1.0  0.43675  0.85417  0.22483  1.0000
  C   C29       1.0  0.10120  0.18552  0.74911  1.0000
  C   C30       1.0  0.60119  0.74910  0.18551  1.0000
  C   C31       1.0  0.47365  0.89654  0.74988  1.0000
  C   C32       1.0  0.97366  0.74988  0.89653  1.0000
  C   C33       1.0  0.85399  0.24400  0.09052  1.0000
  C   C34       1.0  0.35398  0.09051  0.24400  1.0000
  C   C35       1.0  0.96622  0.22769  0.77852  1.0000
  C   C36       1.0  0.46621  0.77852  0.22768  1.0000
  C   C37       1.0  0.02479  0.29397  0.14979  1.0000
  C   C38       1.0  0.52479  0.14978  0.29397  1.0000
  C   C39       1.0  0.99722  0.36033  0.19988  1.0000
  C   C40       1.0  0.49721  0.19988  0.36033  1.0000
  C   C41       1.0  0.21453  0.27441  0.16075  1.0000
  C   C42       1.0  0.71453  0.16075  0.27441  1.0000
  C   C43       1.0  0.15152  0.40401  0.26048  1.0000
  C   C44       1.0  0.65151  0.26047  0.40401  1.0000
  C   C45       1.0  0.37066  0.31908  0.22040  1.0000
  C   C46       1.0  0.87066  0.22039  0.31908  1.0000
  C   C47       1.0  0.33893  0.38343  0.27160  1.0000
  C   C48       1.0  0.83892  0.27160  0.38344  1.0000
  C   C49       1.0  0.49838  0.42626  0.33952  1.0000
  C   C50       1.0  0.99837  0.33952  0.42627  1.0000
  C   C51       1.0  0.52907  0.83627  0.69382  1.0000
  C   C52       1.0  0.02906  0.69382  0.83627  1.0000
  C   C53       1.0  0.38109  0.77888  0.63908  1.0000
  C   C54       1.0  0.88109  0.63907  0.77888  1.0000
  C   C55       1.0  0.73108  0.83258  0.69604  1.0000
  C   C56       1.0  0.23108  0.69604  0.83258  1.0000
  C   C57       1.0  0.43150  0.71772  0.59124  1.0000
  C   C58       1.0  0.93149  0.59124  0.71772  1.0000
  C   C59       1.0  0.78160  0.77134  0.64835  1.0000
  C   C60       1.0  0.28159  0.64835  0.77134  1.0000
  C   C61       1.0  0.63251  0.71243  0.59685  1.0000
  C   C62       1.0  0.13251  0.59685  0.71243  1.0000
  C   C63       1.0  0.68938  0.64343  0.55341  1.0000
  C   C64       1.0  0.18937  0.55341  0.64343  1.0000
  C   C65       1.0  0.85453  0.27209  0.73108  1.0000
  C   C66       1.0  0.35452  0.73107  0.27209  1.0000
  C   C67       1.0  0.66124  0.28052  0.74059  1.0000
  C   C68       1.0  0.16124  0.74059  0.28052  1.0000
  C   C69       1.0  0.93597  0.30651  0.67535  1.0000
  C   C70       1.0  0.43596  0.67535  0.30651  1.0000
  C   C71       1.0  0.55306  0.32079  0.69529  1.0000
  C   C72       1.0  0.05306  0.69529  0.32080  1.0000
  C   C73       1.0  0.82874  0.34752  0.63029  1.0000
  C   C74       1.0  0.32875  0.63029  0.34752  1.0000
  C   C75       1.0  0.63534  0.35426  0.63947  1.0000
  C   C76       1.0  0.13535  0.63947  0.35426  1.0000
  C   C77       1.0  0.51347  0.39431  0.59053  1.0000
  C   C78       1.0  0.01347  0.59053  0.39432  1.0000
  O   O1        1.0  0.68040  0.42369  0.34272  1.0000
  O   O2        1.0  0.18039  0.34271  0.42369  1.0000
  O   O3        1.0  0.44910  0.46783  0.39864  1.0000
  O   O4        1.0  0.94910  0.39864  0.46784  1.0000
  O   O5        1.0  0.87001  0.64109  0.55224  1.0000
  O   O6        1.0  0.37001  0.55223  0.64109  1.0000
  O   O7        1.0  0.55052  0.58282  0.51710  1.0000
  O   O8        1.0  0.05052  0.51710  0.58282  1.0000
  O   O9        1.0  0.59539  0.43534  0.54603  1.0000
  O   O10       1.0  0.09540  0.54603  0.43534  1.0000
  O   O11       1.0  0.32958  0.38958  0.59065  1.0000
  O   O12       1.0  0.82960  0.59065  0.38959  1.0000
