data_image0
_chemical_formula_structural       CoH28C26N10
_chemical_formula_sum              "Co1 H28 C26 N10"
_cell_length_a       6.81962
_cell_length_b       10.3473
_cell_length_c       10.3822
_cell_angle_alpha    75.495
_cell_angle_beta     72.042
_cell_angle_gamma    72.7349

_space_group_name_H-M_alt    "P 1"
_space_group_IT_number       1

loop_
  _space_group_symop_operation_xyz
  'x, y, z'

loop_
  _atom_site_type_symbol
  _atom_site_label
  _atom_site_symmetry_multiplicity
  _atom_site_fract_x
  _atom_site_fract_y
  _atom_site_fract_z
  _atom_site_occupancy
  Co  Co1       1.0  0.00000  0.00000  1.00000  1.0000
  H   H1        1.0  0.93587  0.06299  0.72484  1.0000
  H   H2        1.0  0.07429  0.27440  0.92501  1.0000
  H   H3        1.0  0.06414  0.93701  0.27515  1.0000
  H   H4        1.0  0.92571  0.72559  0.07499  1.0000
  H   H5        1.0  0.12093  0.16212  0.48847  1.0000
  H   H6        1.0  0.88905  0.50984  0.82863  1.0000
  H   H7        1.0  0.87908  0.83788  0.51153  1.0000
  H   H8        1.0  0.11095  0.49016  0.17137  1.0000
  H   H9        1.0  0.64694  0.12715  0.65265  1.0000
  H   H10       1.0  0.34901  0.34513  0.89122  1.0000
  H   H11       1.0  0.35306  0.87286  0.34735  1.0000
  H   H12       1.0  0.65099  0.65487  0.10878  1.0000
  H   H13       1.0  0.44469  0.03067  0.87788  1.0000
  H   H14       1.0  0.55132  0.12103  0.98425  1.0000
  H   H15       1.0  0.55530  0.96934  0.12212  1.0000
  H   H16       1.0  0.44868  0.87896  0.01575  1.0000
  H   H17       1.0  0.52179  0.15798  0.33550  1.0000
  H   H18       1.0  0.48465  0.66168  0.84501  1.0000
  H   H19       1.0  0.47821  0.84202  0.66450  1.0000
  H   H20       1.0  0.51534  0.33832  0.15499  1.0000
  H   H21       1.0  0.68168  0.20989  0.40897  1.0000
  H   H22       1.0  0.32055  0.58624  0.79898  1.0000
  H   H23       1.0  0.31832  0.79011  0.59103  1.0000
  H   H24       1.0  0.67944  0.41376  0.20102  1.0000
  H   H25       1.0  0.23887  0.37523  0.37526  1.0000
  H   H26       1.0  0.76113  0.62477  0.62475  1.0000
  H   H27       1.0  0.41449  0.43451  0.42922  1.0000
  H   H28       1.0  0.58552  0.56548  0.57078  1.0000
  C   C1        1.0  0.09415  0.07911  0.70313  1.0000
  C   C2        1.0  0.91326  0.29564  0.91491  1.0000
  C   C3        1.0  0.90586  0.92089  0.29686  1.0000
  C   C4        1.0  0.08674  0.70436  0.08509  1.0000
  C   C5        1.0  0.19795  0.13474  0.57290  1.0000
  C   C6        1.0  0.80948  0.42530  0.86062  1.0000
  C   C7        1.0  0.80205  0.86526  0.42709  1.0000
  C   C8        1.0  0.19052  0.57470  0.13938  1.0000
  C   C9        1.0  0.40114  0.15569  0.54989  1.0000
  C   C10       1.0  0.60252  0.44754  0.84757  1.0000
  C   C11       1.0  0.59887  0.84430  0.45011  1.0000
  C   C12       1.0  0.39748  0.55246  0.15243  1.0000
  C   C13       1.0  0.48927  0.11500  0.66276  1.0000
  C   C14       1.0  0.51073  0.33491  0.89519  1.0000
  C   C15       1.0  0.51072  0.88500  0.33724  1.0000
  C   C16       1.0  0.48927  0.66508  0.10482  1.0000
  C   C17       1.0  0.37639  0.05961  0.79039  1.0000
  C   C18       1.0  0.62381  0.20793  0.94884  1.0000
  C   C19       1.0  0.62361  0.94040  0.20961  1.0000
  C   C20       1.0  0.37619  0.79207  0.05116  1.0000
  C   C21       1.0  0.51634  0.21769  0.41124  1.0000
  C   C22       1.0  0.48680  0.58535  0.78706  1.0000
  C   C23       1.0  0.48366  0.78231  0.58877  1.0000
  C   C24       1.0  0.51319  0.41465  0.21294  1.0000
  C   C25       1.0  0.40749  0.36744  0.36413  1.0000
  C   C26       1.0  0.59250  0.63257  0.63587  1.0000
  N   N1        1.0  0.80389  0.91373  0.91520  1.0000
  N   N2        1.0  0.19611  0.08628  0.08480  1.0000
  N   N3        1.0  0.87099  0.83353  0.83706  1.0000
  N   N4        1.0  0.12901  0.16647  0.16294  1.0000
  N   N5        1.0  0.93493  0.75488  0.76002  1.0000
  N   N6        1.0  0.06506  0.24512  0.23999  1.0000
  N   N7        1.0  0.17924  0.04273  0.81288  1.0000
  N   N8        1.0  0.82466  0.18594  0.95739  1.0000
  N   N9        1.0  0.82076  0.95726  0.18713  1.0000
  N   N10       1.0  0.17533  0.81405  0.04261  1.0000
