data_image0
_chemical_formula_structural       H18Pb2C6S4N2O8F4
_chemical_formula_sum              "H18 Pb2 C6 S4 N2 O8 F4"
_cell_length_a       7.51199
_cell_length_b       7.40306
_cell_length_c       10.0492
_cell_angle_alpha    96.7264
_cell_angle_beta     104.732
_cell_angle_gamma    104.791

_space_group_name_H-M_alt    "P 1"
_space_group_IT_number       1

loop_
  _space_group_symop_operation_xyz
  'x, y, z'

loop_
  _atom_site_type_symbol
  _atom_site_label
  _atom_site_symmetry_multiplicity
  _atom_site_fract_x
  _atom_site_fract_y
  _atom_site_fract_z
  _atom_site_occupancy
  H   H1        1.0  0.58700  0.38855  0.55942  1.0000
  H   H2        1.0  0.41298  0.61141  0.44059  1.0000
  H   H3        1.0  0.82916  0.38346  0.57098  1.0000
  H   H4        1.0  0.17082  0.61651  0.42901  1.0000
  H   H5        1.0  0.64895  0.17081  0.57325  1.0000
  H   H6        1.0  0.35104  0.82915  0.42673  1.0000
  H   H7        1.0  0.82977  0.57121  0.27353  1.0000
  H   H8        1.0  0.17023  0.42882  0.72651  1.0000
  H   H9        1.0  0.58315  0.54283  0.17767  1.0000
  H   H10       1.0  0.41686  0.45722  0.82235  1.0000
  H   H11       1.0  0.72106  0.41715  0.10288  1.0000
  H   H12       1.0  0.27898  0.58291  0.89715  1.0000
  H   H13       1.0  0.59716  0.92100  0.11377  1.0000
  H   H14       1.0  0.40286  0.07904  0.88623  1.0000
  H   H15       1.0  0.35863  0.89284  0.13240  1.0000
  H   H16       1.0  0.64138  0.10717  0.86758  1.0000
  H   H17       1.0  0.54193  0.84130  0.26554  1.0000
  H   H18       1.0  0.45808  0.15872  0.73445  1.0000
  Pb  Pb1       1.0  0.60700  0.22854  0.30073  1.0000
  Pb  Pb2       1.0  0.39298  0.77147  0.69927  1.0000
  C   C1        1.0  0.67633  0.30269  0.53311  1.0000
  C   C2        1.0  0.32366  0.69727  0.46689  1.0000
  C   C3        1.0  0.69683  0.47393  0.19986  1.0000
  C   C4        1.0  0.30318  0.52611  0.80017  1.0000
  C   C5        1.0  0.51259  0.92864  0.18702  1.0000
  C   C6        1.0  0.48743  0.07138  0.81297  1.0000
  S   S1        1.0  0.14087  0.26874  0.10637  1.0000
  S   S2        1.0  0.85917  0.73128  0.89364  1.0000
  S   S3        1.0  0.11798  0.15302  0.35784  1.0000
  S   S4        1.0  0.88202  0.84695  0.64212  1.0000
  N   N1        1.0  0.24213  0.22216  0.25589  1.0000
  N   N2        1.0  0.75781  0.77782  0.74409  1.0000
  O   O1        1.0  0.26563  0.26192  0.02114  1.0000
  O   O2        1.0  0.73431  0.73808  0.97889  1.0000
  O   O3        1.0  0.93707  0.18045  0.05362  1.0000
  O   O4        1.0  0.06299  0.81955  0.94638  1.0000
  O   O5        1.0  0.97529  0.24980  0.36430  1.0000
  O   O6        1.0  0.02473  0.75015  0.63568  1.0000
  O   O7        1.0  0.24398  0.13590  0.48556  1.0000
  O   O8        1.0  0.75598  0.86411  0.51443  1.0000
  F   F1        1.0  0.16466  0.49257  0.14984  1.0000
  F   F2        1.0  0.83531  0.50736  0.85014  1.0000
  F   F3        1.0  0.99421  0.93895  0.28059  1.0000
  F   F4        1.0  0.00581  0.06107  0.71943  1.0000
