data_image0
_chemical_formula_structural       Cu2H24C16S2N4O10
_chemical_formula_sum              "Cu2 H24 C16 S2 N4 O10"
_cell_length_a       5.16986
_cell_length_b       9.95074
_cell_length_c       11.074
_cell_angle_alpha    103.903
_cell_angle_beta     89.9998
_cell_angle_gamma    89.9992

_space_group_name_H-M_alt    "P 1"
_space_group_IT_number       1

loop_
  _space_group_symop_operation_xyz
  'x, y, z'

loop_
  _atom_site_type_symbol
  _atom_site_label
  _atom_site_symmetry_multiplicity
  _atom_site_fract_x
  _atom_site_fract_y
  _atom_site_fract_z
  _atom_site_occupancy
  Cu  Cu1       1.0  0.27977  0.67017  0.67050  1.0000
  Cu  Cu2       1.0  0.77974  0.32982  0.32949  1.0000
  H   H1        1.0  0.90510  0.50432  0.62000  1.0000
  H   H2        1.0  0.40510  0.49570  0.38000  1.0000
  H   H3        1.0  0.79222  0.47387  0.81476  1.0000
  H   H4        1.0  0.29222  0.52614  0.18524  1.0000
  H   H5        1.0  0.44856  0.92325  0.84762  1.0000
  H   H6        1.0  0.94856  0.07675  0.15239  1.0000
  H   H7        1.0  0.10250  0.29464  0.57881  1.0000
  H   H8        1.0  0.60255  0.70536  0.42118  1.0000
  H   H9        1.0  0.12787  0.46926  0.96970  1.0000
  H   H10       1.0  0.62788  0.53075  0.03029  1.0000
  H   H11       1.0  0.34687  0.56572  0.89666  1.0000
  H   H12       1.0  0.84689  0.43428  0.10332  1.0000
  H   H13       1.0  0.63554  0.11078  0.94906  1.0000
  H   H14       1.0  0.13553  0.88923  0.05096  1.0000
  H   H15       1.0  0.77824  0.22252  0.86341  1.0000
  H   H16       1.0  0.27826  0.77747  0.13660  1.0000
  H   H17       1.0  0.97533  0.09957  0.91318  1.0000
  H   H18       1.0  0.47534  0.90042  0.08682  1.0000
  H   H19       1.0  0.87943  0.91659  0.58979  1.0000
  H   H20       1.0  0.37945  0.08342  0.41022  1.0000
  H   H21       1.0  0.08753  0.03997  0.68696  1.0000
  H   H22       1.0  0.58756  0.96002  0.31304  1.0000
  H   H23       1.0  0.82168  0.09912  0.61006  1.0000
  H   H24       1.0  0.32171  0.90088  0.38995  1.0000
  C   C1        1.0  0.96876  0.53378  0.80845  1.0000
  C   C2        1.0  0.46875  0.46622  0.19155  1.0000
  C   C3        1.0  0.55248  0.91888  0.76019  1.0000
  C   C4        1.0  0.05250  0.08111  0.23981  1.0000
  C   C5        1.0  0.21371  0.37744  0.64043  1.0000
  C   C6        1.0  0.71378  0.62256  0.35957  1.0000
  C   C7        1.0  0.18977  0.48882  0.88102  1.0000
  C   C8        1.0  0.68978  0.51118  0.11896  1.0000
  C   C9        1.0  0.78201  0.11786  0.87930  1.0000
  C   C10       1.0  0.28202  0.88214  0.12071  1.0000
  C   C11       1.0  0.46458  0.40131  0.57604  1.0000
  C   C12       1.0  0.96460  0.59866  0.42394  1.0000
  C   C13       1.0  0.91515  0.69000  0.85580  1.0000
  C   C14       1.0  0.41515  0.30999  0.14419  1.0000
  C   C15       1.0  0.88748  0.01817  0.65535  1.0000
  C   C16       1.0  0.38751  0.98183  0.34466  1.0000
  S   S1        1.0  0.29702  0.32467  0.78374  1.0000
  S   S2        1.0  0.79702  0.67533  0.21625  1.0000
  N   N1        1.0  0.06129  0.50600  0.67859  1.0000
  N   N2        1.0  0.56130  0.49400  0.32140  1.0000
  N   N3        1.0  0.72628  0.01723  0.76328  1.0000
  N   N4        1.0  0.22629  0.98278  0.23673  1.0000
  O   O1        1.0  0.54224  0.52847  0.59143  1.0000
  O   O2        1.0  0.04228  0.47153  0.40858  1.0000
  O   O3        1.0  0.05910  0.77057  0.80759  1.0000
  O   O4        1.0  0.55910  0.22943  0.19241  1.0000
  O   O5        1.0  0.50588  0.82434  0.66319  1.0000
  O   O6        1.0  0.00587  0.17566  0.33683  1.0000
  O   O7        1.0  0.74941  0.73056  0.93784  1.0000
  O   O8        1.0  0.24936  0.26944  0.06214  1.0000
  O   O9        1.0  0.58787  0.29924  0.51544  1.0000
  O   O10       1.0  0.08797  0.70075  0.48456  1.0000
