data_image0
_chemical_formula_structural       Zn4H40C44N24O8
_chemical_formula_sum              "Zn4 H40 C44 N24 O8"
_cell_length_a       9.23534
_cell_length_b       9.92899
_cell_length_c       13.9795
_cell_angle_alpha    90
_cell_angle_beta     90.0001
_cell_angle_gamma    89.9999

_space_group_name_H-M_alt    "P 1"
_space_group_IT_number       1

loop_
  _space_group_symop_operation_xyz
  'x, y, z'

loop_
  _atom_site_type_symbol
  _atom_site_label
  _atom_site_symmetry_multiplicity
  _atom_site_fract_x
  _atom_site_fract_y
  _atom_site_fract_z
  _atom_site_occupancy
  Zn  Zn1       1.0  0.12764  0.57795  0.85136  1.0000
  Zn  Zn2       1.0  0.37236  0.42205  0.35136  1.0000
  Zn  Zn3       1.0  0.87236  0.07795  0.64864  1.0000
  Zn  Zn4       1.0  0.62765  0.92205  0.14864  1.0000
  H   H1        1.0  0.31698  0.48778  0.65005  1.0000
  H   H2        1.0  0.18301  0.51223  0.15005  1.0000
  H   H3        1.0  0.68302  0.98778  0.84995  1.0000
  H   H4        1.0  0.81699  0.01223  0.34995  1.0000
  H   H5        1.0  0.81556  0.56175  0.78827  1.0000
  H   H6        1.0  0.68443  0.43824  0.28827  1.0000
  H   H7        1.0  0.18444  0.06175  0.71173  1.0000
  H   H8        1.0  0.31557  0.93825  0.21173  1.0000
  H   H9        1.0  0.78057  0.47978  0.61860  1.0000
  H   H10       1.0  0.71942  0.52022  0.11860  1.0000
  H   H11       1.0  0.21943  0.97979  0.88140  1.0000
  H   H12       1.0  0.28058  0.02021  0.38139  1.0000
  H   H13       1.0  0.37909  0.64386  0.99223  1.0000
  H   H14       1.0  0.12091  0.35614  0.49223  1.0000
  H   H15       1.0  0.62091  0.14386  0.50777  1.0000
  H   H16       1.0  0.87909  0.85614  0.00776  1.0000
  H   H17       1.0  0.84600  0.34279  0.91161  1.0000
  H   H18       1.0  0.65400  0.65721  0.41161  1.0000
  H   H19       1.0  0.15400  0.84279  0.58839  1.0000
  H   H20       1.0  0.34600  0.15721  0.08839  1.0000
  H   H21       1.0  0.84574  0.17406  0.86944  1.0000
  H   H22       1.0  0.65426  0.82594  0.36944  1.0000
  H   H23       1.0  0.15426  0.67406  0.63056  1.0000
  H   H24       1.0  0.34574  0.32595  0.13056  1.0000
  H   H25       1.0  0.10090  0.31187  0.97356  1.0000
  H   H26       1.0  0.39910  0.68813  0.47356  1.0000
  H   H27       1.0  0.89910  0.81187  0.52644  1.0000
  H   H28       1.0  0.60090  0.18813  0.02643  1.0000
  H   H29       1.0  0.10037  0.14327  0.93062  1.0000
  H   H30       1.0  0.39963  0.85673  0.43063  1.0000
  H   H31       1.0  0.89963  0.64327  0.56938  1.0000
  H   H32       1.0  0.60037  0.35673  0.06937  1.0000
  H   H33       1.0  0.98004  0.19220  0.02353  1.0000
  H   H34       1.0  0.51996  0.80779  0.52353  1.0000
  H   H35       1.0  0.01996  0.69221  0.47647  1.0000
  H   H36       1.0  0.48004  0.30780  0.97647  1.0000
  H   H37       1.0  0.65013  0.62124  0.95308  1.0000
  H   H38       1.0  0.84987  0.37875  0.45308  1.0000
  H   H39       1.0  0.34987  0.12125  0.54692  1.0000
  H   H40       1.0  0.15013  0.87875  0.04692  1.0000
  C   C1        1.0  0.54852  0.48001  0.62580  1.0000
  C   C2        1.0  0.95147  0.51999  0.12580  1.0000
  C   C3        1.0  0.45148  0.98002  0.87420  1.0000
  C   C4        1.0  0.04853  0.01999  0.37420  1.0000
  C   C5        1.0  0.53613  0.44073  0.52249  1.0000
  C   C6        1.0  0.96385  0.55927  0.02249  1.0000
  C   C7        1.0  0.46387  0.94073  0.97751  1.0000
  C   C8        1.0  0.03614  0.05927  0.47751  1.0000
  C   C9        1.0  0.42414  0.50325  0.68064  1.0000
  C   C10       1.0  0.07585  0.49676  0.18064  1.0000
  C   C11       1.0  0.57586  0.00325  0.81936  1.0000
  C   C12       1.0  0.92415  0.99675  0.31936  1.0000
  C   C13       1.0  0.44364  0.54623  0.77494  1.0000
  C   C14       1.0  0.05635  0.45377  0.27494  1.0000
  C   C15       1.0  0.55636  0.04623  0.72506  1.0000
  C   C16       1.0  0.94365  0.95377  0.22506  1.0000
  C   C17       1.0  0.58474  0.56559  0.81231  1.0000
  C   C18       1.0  0.91525  0.43441  0.31230  1.0000
  C   C19       1.0  0.41526  0.06558  0.68769  1.0000
  C   C20       1.0  0.08475  0.93440  0.18769  1.0000
  C   C21       1.0  0.70906  0.54397  0.75785  1.0000
  C   C22       1.0  0.79094  0.45603  0.25785  1.0000
  C   C23       1.0  0.29094  0.04397  0.74215  1.0000
  C   C24       1.0  0.20906  0.95602  0.24215  1.0000
  C   C25       1.0  0.68820  0.49983  0.66468  1.0000
  C   C26       1.0  0.81179  0.50017  0.16468  1.0000
  C   C27       1.0  0.31180  0.99983  0.83532  1.0000
  C   C28       1.0  0.18820  0.00017  0.33531  1.0000
  C   C29       1.0  0.42249  0.61323  0.92354  1.0000
  C   C30       1.0  0.07750  0.38677  0.42354  1.0000
  C   C31       1.0  0.57751  0.11323  0.57646  1.0000
  C   C32       1.0  0.92250  0.88676  0.07646  1.0000
  C   C33       1.0  0.97343  0.30896  0.78961  1.0000
  C   C34       1.0  0.52657  0.69104  0.28961  1.0000
  C   C35       1.0  0.02657  0.80896  0.71039  1.0000
  C   C36       1.0  0.47343  0.19104  0.21039  1.0000
  C   C37       1.0  0.91501  0.26171  0.88311  1.0000
  C   C38       1.0  0.58499  0.73829  0.38311  1.0000
  C   C39       1.0  0.08499  0.76171  0.61689  1.0000
  C   C40       1.0  0.41501  0.23829  0.11689  1.0000
  C   C41       1.0  0.03167  0.22527  0.95682  1.0000
  C   C42       1.0  0.46833  0.77473  0.45682  1.0000
  C   C43       1.0  0.96833  0.72527  0.54318  1.0000
  C   C44       1.0  0.53167  0.27473  0.04318  1.0000
  N   N1        1.0  0.34456  0.57775  0.84720  1.0000
  N   N2        1.0  0.15544  0.42226  0.34720  1.0000
  N   N3        1.0  0.65544  0.07774  0.65280  1.0000
  N   N4        1.0  0.84457  0.92225  0.15280  1.0000
  N   N5        1.0  0.56627  0.60743  0.90571  1.0000
  N   N6        1.0  0.93373  0.39257  0.40571  1.0000
  N   N7        1.0  0.43373  0.10743  0.59429  1.0000
  N   N8        1.0  0.06627  0.89256  0.09429  1.0000
  N   N9        1.0  0.04867  0.42329  0.77506  1.0000
  N   N10       1.0  0.45132  0.57672  0.27506  1.0000
  N   N11       1.0  0.95133  0.92329  0.72494  1.0000
  N   N12       1.0  0.54868  0.07672  0.22494  1.0000
  N   N13       1.0  0.07265  0.43384  0.67953  1.0000
  N   N14       1.0  0.42735  0.56616  0.17952  1.0000
  N   N15       1.0  0.92735  0.93384  0.82048  1.0000
  N   N16       1.0  0.57265  0.06616  0.32048  1.0000
  N   N17       1.0  0.01610  0.33032  0.63715  1.0000
  N   N18       1.0  0.48390  0.66969  0.13715  1.0000
  N   N19       1.0  0.98390  0.83032  0.86285  1.0000
  N   N20       1.0  0.51610  0.16969  0.36285  1.0000
  N   N21       1.0  0.95410  0.24969  0.70388  1.0000
  N   N22       1.0  0.54591  0.75031  0.20388  1.0000
  N   N23       1.0  0.04590  0.74969  0.79612  1.0000
  N   N24       1.0  0.45410  0.25031  0.29612  1.0000
  O   O1        1.0  0.40476  0.43339  0.48938  1.0000
  O   O2        1.0  0.09523  0.56662  0.98938  1.0000
  O   O3        1.0  0.59524  0.93339  0.01062  1.0000
  O   O4        1.0  0.90477  0.06661  0.51062  1.0000
  O   O5        1.0  0.64766  0.42134  0.47286  1.0000
  O   O6        1.0  0.85234  0.57866  0.97286  1.0000
  O   O7        1.0  0.35235  0.92134  0.02715  1.0000
  O   O8        1.0  0.14766  0.07866  0.52714  1.0000
