data_image0
_chemical_formula_structural       Ni2H28C28N4O8
_chemical_formula_sum              "Ni2 H28 C28 N4 O8"
_cell_length_a       9.1505
_cell_length_b       9.15057
_cell_length_c       8.47137
_cell_angle_alpha    86.2386
_cell_angle_beta     86.24
_cell_angle_gamma    106.301

_space_group_name_H-M_alt    "P 1"
_space_group_IT_number       1

loop_
  _space_group_symop_operation_xyz
  'x, y, z'

loop_
  _atom_site_type_symbol
  _atom_site_label
  _atom_site_symmetry_multiplicity
  _atom_site_fract_x
  _atom_site_fract_y
  _atom_site_fract_z
  _atom_site_occupancy
  Ni  Ni1       1.0  0.63090  0.84680  0.98075  1.0000
  Ni  Ni2       1.0  0.84681  0.63091  0.48075  1.0000
  H   H1        1.0  0.51035  0.96945  0.68264  1.0000
  H   H2        1.0  0.96946  0.51038  0.18264  1.0000
  H   H3        1.0  0.41848  0.19239  0.54222  1.0000
  H   H4        1.0  0.19239  0.41847  0.04222  1.0000
  H   H5        1.0  0.52698  0.37796  0.57475  1.0000
  H   H6        1.0  0.37795  0.52697  0.07475  1.0000
  H   H7        1.0  0.72085  0.17685  0.07067  1.0000
  H   H8        1.0  0.17687  0.72083  0.57067  1.0000
  H   H9        1.0  0.60608  0.38898  0.92174  1.0000
  H   H10       1.0  0.38899  0.60606  0.42173  1.0000
  H   H11       1.0  0.33316  0.38760  0.79443  1.0000
  H   H12       1.0  0.38761  0.33316  0.29443  1.0000
  H   H13       1.0  0.26457  0.37410  0.60511  1.0000
  H   H14       1.0  0.37410  0.26457  0.10511  1.0000
  H   H15       1.0  0.96621  0.50871  0.77991  1.0000
  H   H16       1.0  0.50871  0.96621  0.27989  1.0000
  H   H17       1.0  0.95013  0.10068  0.88867  1.0000
  H   H18       1.0  0.10070  0.95014  0.38869  1.0000
  H   H19       1.0  0.05845  0.28635  0.92098  1.0000
  H   H20       1.0  0.28637  0.05845  0.42097  1.0000
  H   H21       1.0  0.75686  0.30056  0.39160  1.0000
  H   H22       1.0  0.30053  0.75685  0.89160  1.0000
  H   H23       1.0  0.87176  0.08894  0.54150  1.0000
  H   H24       1.0  0.08893  0.87176  0.04150  1.0000
  H   H25       1.0  0.21255  0.10445  0.85867  1.0000
  H   H26       1.0  0.10446  0.21255  0.35869  1.0000
  H   H27       1.0  0.14411  0.09076  0.66926  1.0000
  H   H28       1.0  0.09075  0.14411  0.16928  1.0000
  C   C1        1.0  0.65805  0.70499  0.70435  1.0000
  C   C2        1.0  0.70499  0.65807  0.20437  1.0000
  C   C3        1.0  0.52648  0.20614  0.75686  1.0000
  C   C4        1.0  0.20614  0.52647  0.25685  1.0000
  C   C5        1.0  0.54802  0.05840  0.76203  1.0000
  C   C6        1.0  0.05841  0.54803  0.26202  1.0000
  C   C7        1.0  0.44776  0.27262  0.63410  1.0000
  C   C8        1.0  0.27261  0.44775  0.13411  1.0000
  C   C9        1.0  0.65830  0.16752  0.96561  1.0000
  C   C10       1.0  0.16752  0.65829  0.46559  1.0000
  C   C11       1.0  0.59698  0.27473  0.88691  1.0000
  C   C12       1.0  0.27474  0.59697  0.38691  1.0000
  C   C13       1.0  0.30312  0.30970  0.70007  1.0000
  C   C14       1.0  0.30970  0.30312  0.20008  1.0000
  C   C15       1.0  0.95060  0.27208  0.70616  1.0000
  C   C16       1.0  0.27208  0.95060  0.20615  1.0000
  C   C17       1.0  0.92873  0.41968  0.70059  1.0000
  C   C18       1.0  0.41968  0.92873  0.20059  1.0000
  C   C19       1.0  0.02930  0.20596  0.82919  1.0000
  C   C20       1.0  0.20597  0.02930  0.32920  1.0000
  C   C21       1.0  0.81926  0.31022  0.49679  1.0000
  C   C22       1.0  0.31020  0.81926  0.99679  1.0000
  C   C23       1.0  0.88063  0.20327  0.57595  1.0000
  C   C24       1.0  0.20326  0.88063  0.07594  1.0000
  C   C25       1.0  0.17401  0.16873  0.76358  1.0000
  C   C26       1.0  0.16873  0.17401  0.26359  1.0000
  C   C27       1.0  0.81944  0.77326  0.75683  1.0000
  C   C28       1.0  0.77325  0.81944  0.25682  1.0000
  N   N1        1.0  0.63290  0.03911  0.88489  1.0000
  N   N2        1.0  0.03911  0.63290  0.38489  1.0000
  N   N3        1.0  0.84422  0.43874  0.57734  1.0000
  N   N4        1.0  0.43872  0.84420  0.07735  1.0000
  O   O1        1.0  0.54666  0.72827  0.78371  1.0000
  O   O2        1.0  0.72827  0.54666  0.28372  1.0000
  O   O3        1.0  0.82977  0.84927  0.87823  1.0000
  O   O4        1.0  0.84927  0.82979  0.37823  1.0000
  O   O5        1.0  0.93082  0.74995  0.67747  1.0000
  O   O6        1.0  0.74994  0.93081  0.17748  1.0000
  O   O7        1.0  0.64789  0.62921  0.58281  1.0000
  O   O8        1.0  0.62920  0.64788  0.08282  1.0000
