data_image0
_chemical_formula_structural       Zn2H32C44N24
_chemical_formula_sum              "Zn2 H32 C44 N24"
_cell_length_a       10.3772
_cell_length_b       10.3772
_cell_length_c       11.9774
_cell_angle_alpha    70.7547
_cell_angle_beta     70.7552
_cell_angle_gamma    66.7571

_space_group_name_H-M_alt    "P 1"
_space_group_IT_number       1

loop_
  _space_group_symop_operation_xyz
  'x, y, z'

loop_
  _atom_site_type_symbol
  _atom_site_label
  _atom_site_symmetry_multiplicity
  _atom_site_fract_x
  _atom_site_fract_y
  _atom_site_fract_z
  _atom_site_occupancy
  Zn  Zn1       1.0  0.07254  0.92746  0.75000  1.0000
  Zn  Zn2       1.0  0.92746  0.07254  0.25000  1.0000
  H   H1        1.0  0.49892  0.59059  0.13323  1.0000
  H   H2        1.0  0.40941  0.50109  0.36677  1.0000
  H   H3        1.0  0.50108  0.40942  0.86677  1.0000
  H   H4        1.0  0.59059  0.49892  0.63323  1.0000
  H   H5        1.0  0.76338  0.47538  0.13306  1.0000
  H   H6        1.0  0.52462  0.23662  0.36694  1.0000
  H   H7        1.0  0.23662  0.52462  0.86694  1.0000
  H   H8        1.0  0.47538  0.76338  0.63306  1.0000
  H   H9        1.0  0.94364  0.50674  0.93413  1.0000
  H   H10       1.0  0.49326  0.05636  0.56587  1.0000
  H   H11       1.0  0.05636  0.49325  0.06587  1.0000
  H   H12       1.0  0.50675  0.94364  0.43413  1.0000
  H   H13       1.0  0.62232  0.75012  0.74682  1.0000
  H   H14       1.0  0.24987  0.37768  0.75318  1.0000
  H   H15       1.0  0.37768  0.24988  0.25318  1.0000
  H   H16       1.0  0.75013  0.62232  0.24682  1.0000
  H   H17       1.0  0.91853  0.84838  0.01343  1.0000
  H   H18       1.0  0.15163  0.08147  0.48657  1.0000
  H   H19       1.0  0.08147  0.15163  0.98657  1.0000
  H   H20       1.0  0.84837  0.91853  0.51343  1.0000
  H   H21       1.0  0.66574  0.88366  0.13004  1.0000
  H   H22       1.0  0.11635  0.33426  0.36996  1.0000
  H   H23       1.0  0.33426  0.11635  0.86996  1.0000
  H   H24       1.0  0.88365  0.66573  0.63004  1.0000
  H   H25       1.0  0.53763  0.09075  0.78567  1.0000
  H   H26       1.0  0.90924  0.46236  0.71433  1.0000
  H   H27       1.0  0.46236  0.90924  0.21434  1.0000
  H   H28       1.0  0.09076  0.53764  0.28567  1.0000
  H   H29       1.0  0.79432  0.04808  0.68560  1.0000
  H   H30       1.0  0.95191  0.20567  0.81439  1.0000
  H   H31       1.0  0.20567  0.95191  0.31440  1.0000
  H   H32       1.0  0.04809  0.79433  0.18561  1.0000
  C   C1        1.0  0.38988  0.74341  0.93318  1.0000
  C   C2        1.0  0.25659  0.61012  0.56682  1.0000
  C   C3        1.0  0.61013  0.25659  0.06682  1.0000
  C   C4        1.0  0.74341  0.38988  0.43318  1.0000
  C   C5        1.0  0.54069  0.67869  0.93964  1.0000
  C   C6        1.0  0.32131  0.45931  0.56036  1.0000
  C   C7        1.0  0.45931  0.32131  0.06036  1.0000
  C   C8        1.0  0.67869  0.54069  0.43964  1.0000
  C   C9        1.0  0.58179  0.60167  0.04972  1.0000
  C   C10       1.0  0.39833  0.41821  0.45028  1.0000
  C   C11       1.0  0.41821  0.39833  0.95029  1.0000
  C   C12       1.0  0.60168  0.58180  0.54971  1.0000
  C   C13       1.0  0.72779  0.53912  0.04937  1.0000
  C   C14       1.0  0.46088  0.27221  0.45064  1.0000
  C   C15       1.0  0.27221  0.46088  0.95064  1.0000
  C   C16       1.0  0.53912  0.72779  0.54936  1.0000
  C   C17       1.0  0.82808  0.55604  0.93884  1.0000
  C   C18       1.0  0.44395  0.17192  0.56116  1.0000
  C   C19       1.0  0.17192  0.44396  0.06116  1.0000
  C   C20       1.0  0.55605  0.82808  0.43884  1.0000
  C   C21       1.0  0.65042  0.69008  0.83405  1.0000
  C   C22       1.0  0.30992  0.34958  0.66595  1.0000
  C   C23       1.0  0.34958  0.30992  0.16596  1.0000
  C   C24       1.0  0.69008  0.65042  0.33404  1.0000
  C   C25       1.0  0.82990  0.89939  0.96726  1.0000
  C   C26       1.0  0.10061  0.17010  0.53274  1.0000
  C   C27       1.0  0.17010  0.10061  0.03274  1.0000
  C   C28       1.0  0.89939  0.82990  0.46726  1.0000
  C   C29       1.0  0.68764  0.91950  0.03104  1.0000
  C   C30       1.0  0.08050  0.31236  0.46896  1.0000
  C   C31       1.0  0.31236  0.08050  0.96896  1.0000
  C   C32       1.0  0.91950  0.68764  0.53104  1.0000
  C   C33       1.0  0.57663  0.98836  0.96794  1.0000
  C   C34       1.0  0.01164  0.42337  0.53206  1.0000
  C   C35       1.0  0.42337  0.01164  0.03206  1.0000
  C   C36       1.0  0.98836  0.57663  0.46794  1.0000
  C   C37       1.0  0.61700  0.03533  0.84127  1.0000
  C   C38       1.0  0.96467  0.38300  0.65873  1.0000
  C   C39       1.0  0.38300  0.96466  0.15873  1.0000
  C   C40       1.0  0.03534  0.61700  0.34127  1.0000
  C   C41       1.0  0.76144  0.01149  0.78381  1.0000
  C   C42       1.0  0.98851  0.23857  0.71619  1.0000
  C   C43       1.0  0.23856  0.98851  0.21620  1.0000
  C   C44       1.0  0.01149  0.76144  0.28380  1.0000
  N   N1        1.0  0.20140  0.84789  0.86552  1.0000
  N   N2        1.0  0.15211  0.79860  0.63447  1.0000
  N   N3        1.0  0.79860  0.15211  0.13448  1.0000
  N   N4        1.0  0.84789  0.20140  0.36553  1.0000
  N   N5        1.0  0.15990  0.81057  0.98688  1.0000
  N   N6        1.0  0.18943  0.84010  0.51312  1.0000
  N   N7        1.0  0.84011  0.18943  0.01312  1.0000
  N   N8        1.0  0.81056  0.15990  0.48688  1.0000
  N   N9        1.0  0.27707  0.74475  0.03106  1.0000
  N   N10       1.0  0.25525  0.72293  0.46894  1.0000
  N   N11       1.0  0.72293  0.25525  0.96894  1.0000
  N   N12       1.0  0.74475  0.27707  0.53106  1.0000
  N   N13       1.0  0.34486  0.80734  0.82873  1.0000
  N   N14       1.0  0.19266  0.65514  0.67127  1.0000
  N   N15       1.0  0.65514  0.19266  0.17127  1.0000
  N   N16       1.0  0.80734  0.34486  0.32873  1.0000
  N   N17       1.0  0.79088  0.63059  0.83265  1.0000
  N   N18       1.0  0.36941  0.20912  0.66735  1.0000
  N   N19       1.0  0.20912  0.36941  0.16735  1.0000
  N   N20       1.0  0.63059  0.79089  0.33264  1.0000
  N   N21       1.0  0.86713  0.94400  0.84520  1.0000
  N   N22       1.0  0.05600  0.13287  0.65480  1.0000
  N   N23       1.0  0.13287  0.05600  0.15480  1.0000
  N   N24       1.0  0.94400  0.86713  0.34520  1.0000
