data_image0
_chemical_formula_structural       Ag4H40C48N20O8
_chemical_formula_sum              "Ag4 H40 C48 N20 O8"
_cell_length_a       10.5508
_cell_length_b       10.5508
_cell_length_c       12.0529
_cell_angle_alpha    76.7329
_cell_angle_beta     76.733
_cell_angle_gamma    77.9632

_space_group_name_H-M_alt    "P 1"
_space_group_IT_number       1

loop_
  _space_group_symop_operation_xyz
  'x, y, z'

loop_
  _atom_site_type_symbol
  _atom_site_label
  _atom_site_symmetry_multiplicity
  _atom_site_fract_x
  _atom_site_fract_y
  _atom_site_fract_z
  _atom_site_occupancy
  Ag  Ag1       1.0  0.27580  0.21604  0.73031  1.0000
  Ag  Ag2       1.0  0.78396  0.72420  0.76969  1.0000
  Ag  Ag3       1.0  0.72420  0.78396  0.26969  1.0000
  Ag  Ag4       1.0  0.21604  0.27580  0.23031  1.0000
  H   H1        1.0  0.20017  0.52096  0.33112  1.0000
  H   H2        1.0  0.47904  0.79984  0.16888  1.0000
  H   H3        1.0  0.79984  0.47904  0.66888  1.0000
  H   H4        1.0  0.52096  0.20016  0.83112  1.0000
  H   H5        1.0  0.00973  0.26716  0.67870  1.0000
  H   H6        1.0  0.73284  0.99027  0.82130  1.0000
  H   H7        1.0  0.99027  0.73284  0.32130  1.0000
  H   H8        1.0  0.26716  0.00973  0.17870  1.0000
  H   H9        1.0  0.35662  0.63487  0.39183  1.0000
  H   H10       1.0  0.36513  0.64338  0.10817  1.0000
  H   H11       1.0  0.64338  0.36513  0.60817  1.0000
  H   H12       1.0  0.63487  0.35662  0.89183  1.0000
  H   H13       1.0  0.38827  0.49999  0.61295  1.0000
  H   H14       1.0  0.50001  0.61173  0.88705  1.0000
  H   H15       1.0  0.61173  0.50001  0.38705  1.0000
  H   H16       1.0  0.49999  0.38827  0.11295  1.0000
  H   H17       1.0  0.88692  0.11521  0.61775  1.0000
  H   H18       1.0  0.88479  0.11309  0.88225  1.0000
  H   H19       1.0  0.11308  0.88479  0.38225  1.0000
  H   H20       1.0  0.11521  0.88691  0.11775  1.0000
  H   H21       1.0  0.96940  0.13926  0.37910  1.0000
  H   H22       1.0  0.86074  0.03060  0.12090  1.0000
  H   H23       1.0  0.03060  0.86074  0.62090  1.0000
  H   H24       1.0  0.13926  0.96940  0.87910  1.0000
  H   H25       1.0  0.25129  0.08288  0.49153  1.0000
  H   H26       1.0  0.91712  0.74871  0.00848  1.0000
  H   H27       1.0  0.74871  0.91712  0.50847  1.0000
  H   H28       1.0  0.08288  0.25129  0.99153  1.0000
  H   H29       1.0  0.50973  0.71050  0.49386  1.0000
  H   H30       1.0  0.28950  0.49027  0.00614  1.0000
  H   H31       1.0  0.49027  0.28950  0.50614  1.0000
  H   H32       1.0  0.71049  0.50973  0.99386  1.0000
  H   H33       1.0  0.52796  0.71257  0.69808  1.0000
  H   H34       1.0  0.28742  0.47203  0.80192  1.0000
  H   H35       1.0  0.47204  0.28743  0.30192  1.0000
  H   H36       1.0  0.71257  0.52797  0.19808  1.0000
  H   H37       1.0  0.40361  0.90427  0.78858  1.0000
  H   H38       1.0  0.09572  0.59638  0.71142  1.0000
  H   H39       1.0  0.59638  0.09573  0.21142  1.0000
  H   H40       1.0  0.90427  0.40362  0.28858  1.0000
  C   C1        1.0  0.19393  0.39145  0.50070  1.0000
  C   C2        1.0  0.60855  0.80607  0.99930  1.0000
  C   C3        1.0  0.80607  0.60855  0.49930  1.0000
  C   C4        1.0  0.39145  0.19393  0.00070  1.0000
  C   C5        1.0  0.31457  0.55098  0.44707  1.0000
  C   C6        1.0  0.44902  0.68543  0.05293  1.0000
  C   C7        1.0  0.68543  0.44902  0.55293  1.0000
  C   C8        1.0  0.55098  0.31457  0.94707  1.0000
  C   C9        1.0  0.32816  0.48405  0.55727  1.0000
  C   C10       1.0  0.51595  0.67183  0.94273  1.0000
  C   C11       1.0  0.67184  0.51595  0.44274  1.0000
  C   C12       1.0  0.48405  0.32817  0.05726  1.0000
  C   C13       1.0  0.10486  0.30603  0.49713  1.0000
  C   C14       1.0  0.69397  0.89514  0.00287  1.0000
  C   C15       1.0  0.89514  0.69397  0.50287  1.0000
  C   C16       1.0  0.30603  0.10486  0.99713  1.0000
  C   C17       1.0  0.95753  0.17195  0.55767  1.0000
  C   C18       1.0  0.82805  0.04247  0.94233  1.0000
  C   C19       1.0  0.04247  0.82805  0.44233  1.0000
  C   C20       1.0  0.17195  0.95753  0.05767  1.0000
  C   C21       1.0  0.99852  0.18499  0.43909  1.0000
  C   C22       1.0  0.81501  0.00148  0.06091  1.0000
  C   C23       1.0  0.00148  0.81501  0.56091  1.0000
  C   C24       1.0  0.18499  0.99852  0.93909  1.0000
  C   C25       1.0  0.31157  0.99886  0.53646  1.0000
  C   C26       1.0  0.00114  0.68843  0.96354  1.0000
  C   C27       1.0  0.68843  0.00114  0.46354  1.0000
  C   C28       1.0  0.99886  0.31157  0.03646  1.0000
  C   C29       1.0  0.37750  0.89609  0.47838  1.0000
  C   C30       1.0  0.10391  0.62250  0.02162  1.0000
  C   C31       1.0  0.62250  0.10391  0.52162  1.0000
  C   C32       1.0  0.89609  0.37750  0.97838  1.0000
  C   C33       1.0  0.45589  0.79062  0.53763  1.0000
  C   C34       1.0  0.20938  0.54411  0.96237  1.0000
  C   C35       1.0  0.54412  0.20937  0.46237  1.0000
  C   C36       1.0  0.79062  0.45589  0.03763  1.0000
  C   C37       1.0  0.46538  0.79183  0.65052  1.0000
  C   C38       1.0  0.20817  0.53461  0.84948  1.0000
  C   C39       1.0  0.53462  0.20818  0.34948  1.0000
  C   C40       1.0  0.79182  0.46539  0.15052  1.0000
  C   C41       1.0  0.39671  0.89894  0.70089  1.0000
  C   C42       1.0  0.10106  0.60329  0.79912  1.0000
  C   C43       1.0  0.60329  0.10106  0.29911  1.0000
  C   C44       1.0  0.89894  0.39671  0.20089  1.0000
  C   C45       1.0  0.36738  0.90017  0.35507  1.0000
  C   C46       1.0  0.09983  0.63262  0.14493  1.0000
  C   C47       1.0  0.63263  0.09983  0.64493  1.0000
  C   C48       1.0  0.90017  0.36738  0.85507  1.0000
  N   N1        1.0  0.25329  0.38409  0.59035  1.0000
  N   N2        1.0  0.61591  0.74671  0.90965  1.0000
  N   N3        1.0  0.74671  0.61591  0.40965  1.0000
  N   N4        1.0  0.38409  0.25329  0.09035  1.0000
  N   N5        1.0  0.22980  0.49162  0.41298  1.0000
  N   N6        1.0  0.50838  0.77020  0.08702  1.0000
  N   N7        1.0  0.77020  0.50838  0.58702  1.0000
  N   N8        1.0  0.49162  0.22980  0.91298  1.0000
  N   N9        1.0  0.09067  0.26862  0.40168  1.0000
  N   N10       1.0  0.73138  0.90933  0.09832  1.0000
  N   N11       1.0  0.90933  0.73139  0.59832  1.0000
  N   N12       1.0  0.26862  0.09067  0.90168  1.0000
  N   N13       1.0  0.02499  0.24889  0.59272  1.0000
  N   N14       1.0  0.75111  0.97501  0.90728  1.0000
  N   N15       1.0  0.97501  0.75111  0.40728  1.0000
  N   N16       1.0  0.24889  0.02499  0.09272  1.0000
  N   N17       1.0  0.32056  0.00129  0.64538  1.0000
  N   N18       1.0  0.99871  0.67944  0.85463  1.0000
  N   N19       1.0  0.67943  0.99871  0.35463  1.0000
  N   N20       1.0  0.00129  0.32057  0.14537  1.0000
  O   O1        1.0  0.44358  0.81098  0.30422  1.0000
  O   O2        1.0  0.18902  0.55642  0.19578  1.0000
  O   O3        1.0  0.55643  0.18901  0.69578  1.0000
  O   O4        1.0  0.81098  0.44358  0.80422  1.0000
  O   O5        1.0  0.28280  0.99031  0.31082  1.0000
  O   O6        1.0  0.00968  0.71720  0.18918  1.0000
  O   O7        1.0  0.71721  0.00968  0.68918  1.0000
  O   O8        1.0  0.99032  0.28280  0.81082  1.0000
