data_image0
_chemical_formula_structural       Ag2H12C14N8O4
_chemical_formula_sum              "Ag2 H12 C14 N8 O4"
_cell_length_a       7.52313
_cell_length_b       7.8438
_cell_length_c       8.34454
_cell_angle_alpha    103.761
_cell_angle_beta     112.312
_cell_angle_gamma    105.228

_space_group_name_H-M_alt    "P 1"
_space_group_IT_number       1

loop_
  _space_group_symop_operation_xyz
  'x, y, z'

loop_
  _atom_site_type_symbol
  _atom_site_label
  _atom_site_symmetry_multiplicity
  _atom_site_fract_x
  _atom_site_fract_y
  _atom_site_fract_z
  _atom_site_occupancy
  Ag  Ag1       1.0  0.31283  0.52371  0.91720  1.0000
  Ag  Ag2       1.0  0.68717  0.47629  0.08280  1.0000
  H   H1        1.0  0.74519  0.96672  0.69325  1.0000
  H   H2        1.0  0.25482  0.03328  0.30676  1.0000
  H   H3        1.0  0.79047  0.69205  0.55077  1.0000
  H   H4        1.0  0.20952  0.30795  0.44922  1.0000
  H   H5        1.0  0.47252  0.11220  0.69858  1.0000
  H   H6        1.0  0.52748  0.88780  0.30142  1.0000
  H   H7        1.0  0.23465  0.88899  0.81404  1.0000
  H   H8        1.0  0.76535  0.11101  0.18596  1.0000
  H   H9        1.0  0.86768  0.30700  0.82639  1.0000
  H   H10       1.0  0.13232  0.69300  0.17359  1.0000
  H   H11       1.0  0.93075  0.43207  0.56408  1.0000
  H   H12       1.0  0.06924  0.56793  0.43591  1.0000
  C   C1        1.0  0.58877  0.75728  0.76956  1.0000
  C   C2        1.0  0.41124  0.24272  0.23044  1.0000
  C   C3        1.0  0.47838  0.98679  0.72983  1.0000
  C   C4        1.0  0.52163  0.01322  0.27018  1.0000
  C   C5        1.0  0.36149  0.87459  0.78776  1.0000
  C   C6        1.0  0.63851  0.12541  0.21225  1.0000
  C   C7        1.0  0.70096  0.63488  0.75894  1.0000
  C   C8        1.0  0.29904  0.36512  0.24106  1.0000
  C   C9        1.0  0.82603  0.41485  0.77937  1.0000
  C   C10       1.0  0.17397  0.58514  0.22063  1.0000
  C   C11       1.0  0.86349  0.47920  0.65091  1.0000
  C   C12       1.0  0.13650  0.52080  0.34908  1.0000
  C   C13       1.0  0.04325  0.08832  0.59266  1.0000
  C   C14       1.0  0.95674  0.91168  0.40734  1.0000
  N   N1        1.0  0.43055  0.73156  0.81149  1.0000
  N   N2        1.0  0.56946  0.26844  0.18851  1.0000
  N   N3        1.0  0.62040  0.91092  0.71902  1.0000
  N   N4        1.0  0.37961  0.08908  0.28099  1.0000
  N   N5        1.0  0.72646  0.51356  0.84741  1.0000
  N   N6        1.0  0.27354  0.48644  0.15259  1.0000
  N   N7        1.0  0.78508  0.61761  0.63998  1.0000
  N   N8        1.0  0.21492  0.38239  0.36002  1.0000
  O   O1        1.0  0.17882  0.24214  0.61573  1.0000
  O   O2        1.0  0.82116  0.75786  0.38427  1.0000
  O   O3        1.0  0.97711  0.06780  0.70763  1.0000
  O   O4        1.0  0.02289  0.93219  0.29238  1.0000
