data_image0
_chemical_formula_structural       Zn2H12C22N10O8
_chemical_formula_sum              "Zn2 H12 C22 N10 O8"
_cell_length_a       7.2701
_cell_length_b       8.36685
_cell_length_c       10.0388
_cell_angle_alpha    96.6741
_cell_angle_beta     94.1226
_cell_angle_gamma    106.536

_space_group_name_H-M_alt    "P 1"
_space_group_IT_number       1

loop_
  _space_group_symop_operation_xyz
  'x, y, z'

loop_
  _atom_site_type_symbol
  _atom_site_label
  _atom_site_symmetry_multiplicity
  _atom_site_fract_x
  _atom_site_fract_y
  _atom_site_fract_z
  _atom_site_occupancy
  Zn  Zn1       1.0  0.20793  0.01706  0.08587  1.0000
  Zn  Zn2       1.0  0.79207  0.98294  0.91413  1.0000
  H   H1        1.0  0.24986  0.46424  0.67930  1.0000
  H   H2        1.0  0.75013  0.53576  0.32070  1.0000
  H   H3        1.0  0.25106  0.75301  0.78831  1.0000
  H   H4        1.0  0.74894  0.24700  0.21169  1.0000
  H   H5        1.0  0.24426  0.97346  0.63882  1.0000
  H   H6        1.0  0.75574  0.02654  0.36118  1.0000
  H   H7        1.0  0.24519  0.65065  0.29369  1.0000
  H   H8        1.0  0.75481  0.34935  0.70631  1.0000
  H   H9        1.0  0.19979  0.58444  0.00386  1.0000
  H   H10       1.0  0.80021  0.41556  0.99613  1.0000
  H   H11       1.0  0.24343  0.91254  0.40960  1.0000
  H   H12       1.0  0.75657  0.08746  0.59040  1.0000
  C   C1        1.0  0.25418  0.37070  0.41131  1.0000
  C   C2        1.0  0.74582  0.62930  0.58869  1.0000
  C   C3        1.0  0.25244  0.53416  0.47865  1.0000
  C   C4        1.0  0.74756  0.46584  0.52135  1.0000
  C   C5        1.0  0.25297  0.56562  0.61936  1.0000
  C   C6        1.0  0.74703  0.43438  0.38064  1.0000
  C   C7        1.0  0.25021  0.72325  0.67995  1.0000
  C   C8        1.0  0.74979  0.27676  0.32005  1.0000
  C   C9        1.0  0.24681  0.84713  0.60011  1.0000
  C   C10       1.0  0.75319  0.15287  0.39989  1.0000
  C   C11       1.0  0.24757  0.66290  0.40286  1.0000
  C   C12       1.0  0.75243  0.33710  0.59714  1.0000
  C   C13       1.0  0.12642  0.25774  0.89641  1.0000
  C   C14       1.0  0.87358  0.74226  0.10359  1.0000
  C   C15       1.0  0.49263  0.15839  0.90332  1.0000
  C   C16       1.0  0.50737  0.84161  0.09668  1.0000
  C   C17       1.0  0.33055  0.54543  0.00147  1.0000
  C   C18       1.0  0.66945  0.45457  0.99853  1.0000
  C   C19       1.0  0.32011  0.37986  0.95267  1.0000
  C   C20       1.0  0.67989  0.62014  0.04733  1.0000
  C   C21       1.0  0.49214  0.33434  0.95154  1.0000
  C   C22       1.0  0.50786  0.66566  0.04846  1.0000
  N   N1        1.0  0.23570  0.32913  0.27619  1.0000
  N   N2        1.0  0.76430  0.67087  0.72381  1.0000
  N   N3        1.0  0.24153  0.17088  0.25930  1.0000
  N   N4        1.0  0.75847  0.82912  0.74070  1.0000
  N   N5        1.0  0.26299  0.11759  0.37843  1.0000
  N   N6        1.0  0.73701  0.88241  0.62157  1.0000
  N   N7        1.0  0.27128  0.24120  0.47609  1.0000
  N   N8        1.0  0.72872  0.75880  0.52391  1.0000
  N   N9        1.0  0.24470  0.81268  0.46543  1.0000
  N   N10       1.0  0.75530  0.18732  0.53457  1.0000
  O   O1        1.0  0.34888  0.03478  0.91983  1.0000
  O   O2        1.0  0.65112  0.96522  0.08017  1.0000
  O   O3        1.0  0.63903  0.14065  0.84871  1.0000
  O   O4        1.0  0.36097  0.85934  0.15129  1.0000
  O   O5        1.0  0.03703  0.16449  0.98182  1.0000
  O   O6        1.0  0.96297  0.83551  0.01818  1.0000
  O   O7        1.0  0.06178  0.25466  0.77835  1.0000
  O   O8        1.0  0.93821  0.74533  0.22165  1.0000
