data_image0
_chemical_formula_structural       Cd4H20C16O26
_chemical_formula_sum              "Cd4 H20 C16 O26"
_cell_length_a       7.45023
_cell_length_b       9.03365
_cell_length_c       11.3115
_cell_angle_alpha    90.0002
_cell_angle_beta     89.9999
_cell_angle_gamma    95.7204

_space_group_name_H-M_alt    "P 1"
_space_group_IT_number       1

loop_
  _space_group_symop_operation_xyz
  'x, y, z'

loop_
  _atom_site_type_symbol
  _atom_site_label
  _atom_site_symmetry_multiplicity
  _atom_site_fract_x
  _atom_site_fract_y
  _atom_site_fract_z
  _atom_site_occupancy
  Cd  Cd1       1.0  0.72046  0.75190  0.33300  1.0000
  Cd  Cd2       1.0  0.27954  0.24809  0.83299  1.0000
  Cd  Cd3       1.0  0.82748  0.73949  0.83094  1.0000
  Cd  Cd4       1.0  0.17252  0.26052  0.33094  1.0000
  H   H1        1.0  0.01155  0.52715  0.74058  1.0000
  H   H2        1.0  0.98845  0.47285  0.24058  1.0000
  H   H3        1.0  0.75726  0.70468  0.55996  1.0000
  H   H4        1.0  0.24273  0.29532  0.05996  1.0000
  H   H5        1.0  0.84344  0.35153  0.65648  1.0000
  H   H6        1.0  0.15656  0.64847  0.15648  1.0000
  H   H7        1.0  0.60349  0.40934  0.51073  1.0000
  H   H8        1.0  0.39650  0.59066  0.01073  1.0000
  H   H9        1.0  0.56624  0.94956  0.77121  1.0000
  H   H10       1.0  0.43376  0.05044  0.27121  1.0000
  H   H11       1.0  0.00822  0.93717  0.48983  1.0000
  H   H12       1.0  0.99178  0.06281  0.98983  1.0000
  H   H13       1.0  0.69995  0.13634  0.68724  1.0000
  H   H14       1.0  0.30005  0.86366  0.18724  1.0000
  H   H15       1.0  0.87116  0.12728  0.50847  1.0000
  H   H16       1.0  0.12885  0.87271  0.00847  1.0000
  H   H17       1.0  0.67170  0.88798  0.99920  1.0000
  H   H18       1.0  0.32831  0.11202  0.49920  1.0000
  H   H19       1.0  0.84870  0.84507  0.06852  1.0000
  H   H20       1.0  0.15131  0.15493  0.56853  1.0000
  C   C1        1.0  0.62621  0.44873  0.74221  1.0000
  C   C2        1.0  0.37378  0.55127  0.24221  1.0000
  C   C3        1.0  0.78670  0.45922  0.65558  1.0000
  C   C4        1.0  0.21329  0.54078  0.15558  1.0000
  C   C5        1.0  0.72190  0.48824  0.53033  1.0000
  C   C6        1.0  0.27809  0.51176  0.03033  1.0000
  C   C7        1.0  0.86350  0.45915  0.43618  1.0000
  C   C8        1.0  0.13650  0.54085  0.93618  1.0000
  C   C9        1.0  0.95460  0.04924  0.72364  1.0000
  C   C10       1.0  0.04540  0.95077  0.22364  1.0000
  C   C11       1.0  0.76439  0.03435  0.66921  1.0000
  C   C12       1.0  0.23561  0.96566  0.16922  1.0000
  C   C13       1.0  0.78883  0.02434  0.53414  1.0000
  C   C14       1.0  0.21118  0.97566  0.03414  1.0000
  C   C15       1.0  0.61477  0.03673  0.46489  1.0000
  C   C16       1.0  0.38524  0.96328  0.96489  1.0000
  O   O1        1.0  0.61281  0.54632  0.82146  1.0000
  O   O2        1.0  0.38719  0.45368  0.32145  1.0000
  O   O3        1.0  0.51529  0.33459  0.72512  1.0000
  O   O4        1.0  0.48471  0.66540  0.22511  1.0000
  O   O5        1.0  0.92599  0.57415  0.68545  1.0000
  O   O6        1.0  0.07401  0.42585  0.18545  1.0000
  O   O7        1.0  0.66431  0.63464  0.52268  1.0000
  O   O8        1.0  0.33568  0.36536  0.02267  1.0000
  O   O9        1.0  0.88037  0.54523  0.34607  1.0000
  O   O10       1.0  0.11962  0.45476  0.84608  1.0000
  O   O11       1.0  0.94926  0.34705  0.45068  1.0000
  O   O12       1.0  0.05074  0.65295  0.95067  1.0000
  O   O13       1.0  0.01565  0.94166  0.77481  1.0000
  O   O14       1.0  0.98436  0.05834  0.27481  1.0000
  O   O15       1.0  0.04548  0.17662  0.70760  1.0000
  O   O16       1.0  0.95452  0.82338  0.20759  1.0000
  O   O17       1.0  0.65350  0.90892  0.71598  1.0000
  O   O18       1.0  0.34650  0.09109  0.21598  1.0000
  O   O19       1.0  0.88075  0.89787  0.50199  1.0000
  O   O20       1.0  0.11924  0.10212  0.00198  1.0000
  O   O21       1.0  0.57057  0.95260  0.37640  1.0000
  O   O22       1.0  0.42943  0.04740  0.87640  1.0000
  O   O23       1.0  0.52820  0.14204  0.49820  1.0000
  O   O24       1.0  0.47181  0.85797  0.99822  1.0000
  O   O25       1.0  0.81007  0.89223  0.99493  1.0000
  O   O26       1.0  0.18994  0.10777  0.49493  1.0000
