data_image0
_chemical_formula_structural       Cu2H8C16N4Cl2O2
_chemical_formula_sum              "Cu2 H8 C16 N4 Cl2 O2"
_cell_length_a       3.6748
_cell_length_b       9.01706
_cell_length_c       11.0739
_cell_angle_alpha    77.6226
_cell_angle_beta     89.6201
_cell_angle_gamma    86.6801

_space_group_name_H-M_alt    "P 1"
_space_group_IT_number       1

loop_
  _space_group_symop_operation_xyz
  'x, y, z'

loop_
  _atom_site_type_symbol
  _atom_site_label
  _atom_site_symmetry_multiplicity
  _atom_site_fract_x
  _atom_site_fract_y
  _atom_site_fract_z
  _atom_site_occupancy
  Cu  Cu1       1.0  0.34124  0.92909  0.64664  1.0000
  Cu  Cu2       1.0  0.65877  0.07091  0.35337  1.0000
  H   H1        1.0  0.73971  0.52364  0.59316  1.0000
  H   H2        1.0  0.26028  0.47636  0.40684  1.0000
  H   H3        1.0  0.64699  0.25356  0.57642  1.0000
  H   H4        1.0  0.35300  0.74645  0.42358  1.0000
  H   H5        1.0  0.23250  0.43197  0.95360  1.0000
  H   H6        1.0  0.76753  0.56802  0.04641  1.0000
  H   H7        1.0  0.52947  0.61421  0.78025  1.0000
  H   H8        1.0  0.47055  0.38578  0.21975  1.0000
  C   C1        1.0  0.60554  0.44562  0.66637  1.0000
  C   C2        1.0  0.39447  0.55438  0.33363  1.0000
  C   C3        1.0  0.12679  0.13739  0.94051  1.0000
  C   C4        1.0  0.87321  0.86261  0.05949  1.0000
  C   C5        1.0  0.55484  0.29798  0.65605  1.0000
  C   C6        1.0  0.44515  0.70203  0.34395  1.0000
  C   C7        1.0  0.32730  0.40233  0.86835  1.0000
  C   C8        1.0  0.67272  0.59767  0.13165  1.0000
  C   C9        1.0  0.49008  0.49792  0.77260  1.0000
  C   C10       1.0  0.50993  0.50207  0.22740  1.0000
  C   C11       1.0  0.15010  0.01343  0.88181  1.0000
  C   C12       1.0  0.84988  0.98657  0.11819  1.0000
  C   C13       1.0  0.38375  0.20182  0.75308  1.0000
  C   C14       1.0  0.61623  0.79817  0.24692  1.0000
  C   C15       1.0  0.96982  0.13832  0.06005  1.0000
  C   C16       1.0  0.03016  0.86169  0.93995  1.0000
  N   N1        1.0  0.27597  0.25630  0.85782  1.0000
  N   N2        1.0  0.72404  0.74370  0.14217  1.0000
  N   N3        1.0  0.30211  0.05299  0.76759  1.0000
  N   N4        1.0  0.69788  0.94701  0.23242  1.0000
  Cl  Cl1       1.0  0.85078  0.82470  0.57704  1.0000
  Cl  Cl2       1.0  0.14921  0.17532  0.42298  1.0000
  O   O1        1.0  0.92973  0.25186  0.10786  1.0000
  O   O2        1.0  0.07027  0.74813  0.89214  1.0000
