data_image0
_chemical_formula_structural       Co2H8C12N12O8
_chemical_formula_sum              "Co2 H8 C12 N12 O8"
_cell_length_a       6.00512
_cell_length_b       6.00498
_cell_length_c       14.1551
_cell_angle_alpha    102.168
_cell_angle_beta     102.167
_cell_angle_gamma    90.0398

_space_group_name_H-M_alt    "P 1"
_space_group_IT_number       1

loop_
  _space_group_symop_operation_xyz
  'x, y, z'

loop_
  _atom_site_type_symbol
  _atom_site_label
  _atom_site_symmetry_multiplicity
  _atom_site_fract_x
  _atom_site_fract_y
  _atom_site_fract_z
  _atom_site_occupancy
  Co  Co1       1.0  0.12498  0.87502  0.25000  1.0000
  Co  Co2       1.0  0.87501  0.12499  0.75000  1.0000
  H   H1        1.0  0.28224  0.76468  0.02872  1.0000
  H   H2        1.0  0.76507  0.74723  0.52869  1.0000
  H   H3        1.0  0.74724  0.76507  0.02868  1.0000
  H   H4        1.0  0.76469  0.28225  0.52873  1.0000
  H   H5        1.0  0.71775  0.23532  0.97128  1.0000
  H   H6        1.0  0.23531  0.71776  0.47128  1.0000
  H   H7        1.0  0.25275  0.23493  0.97132  1.0000
  H   H8        1.0  0.23493  0.25278  0.47132  1.0000
  C   C1        1.0  0.61978  0.86994  0.23981  1.0000
  C   C2        1.0  0.86995  0.61978  0.73981  1.0000
  C   C3        1.0  0.38022  0.13006  0.76019  1.0000
  C   C4        1.0  0.13005  0.38022  0.26020  1.0000
  C   C5        1.0  0.42846  0.79554  0.09044  1.0000
  C   C6        1.0  0.79551  0.66222  0.59038  1.0000
  C   C7        1.0  0.66221  0.79550  0.09037  1.0000
  C   C8        1.0  0.79555  0.42847  0.59045  1.0000
  C   C9        1.0  0.57152  0.20446  0.90955  1.0000
  C   C10       1.0  0.20446  0.57154  0.40955  1.0000
  C   C11       1.0  0.33778  0.20450  0.90962  1.0000
  C   C12       1.0  0.20449  0.33778  0.40962  1.0000
  N   N1        1.0  0.67134  0.92157  0.34320  1.0000
  N   N2        1.0  0.92156  0.67132  0.84320  1.0000
  N   N3        1.0  0.32867  0.07843  0.65679  1.0000
  N   N4        1.0  0.07844  0.32867  0.15680  1.0000
  N   N5        1.0  0.40311  0.84292  0.18581  1.0000
  N   N6        1.0  0.84307  0.78259  0.68572  1.0000
  N   N7        1.0  0.78258  0.84308  0.18572  1.0000
  N   N8        1.0  0.84292  0.40311  0.68581  1.0000
  N   N9        1.0  0.59689  0.15708  0.81419  1.0000
  N   N10       1.0  0.15708  0.59690  0.31419  1.0000
  N   N11       1.0  0.21741  0.15692  0.81428  1.0000
  N   N12       1.0  0.15693  0.21741  0.31428  1.0000
  O   O1        1.0  0.87709  0.94368  0.38756  1.0000
  O   O2        1.0  0.94405  0.50990  0.88769  1.0000
  O   O3        1.0  0.50991  0.94405  0.38769  1.0000
  O   O4        1.0  0.94369  0.87708  0.88757  1.0000
  O   O5        1.0  0.12292  0.05631  0.61243  1.0000
  O   O6        1.0  0.05633  0.12291  0.11244  1.0000
  O   O7        1.0  0.49010  0.05596  0.61231  1.0000
  O   O8        1.0  0.05595  0.49010  0.11231  1.0000
