data_image0
_chemical_formula_structural       K4H24C28S4N4O20
_chemical_formula_sum              "K4 H24 C28 S4 N4 O20"
_cell_length_a       7.21012
_cell_length_b       9.32813
_cell_length_c       13.8594
_cell_angle_alpha    90.0011
_cell_angle_beta     101.498
_cell_angle_gamma    90.0006

_space_group_name_H-M_alt    "P 1"
_space_group_IT_number       1

loop_
  _space_group_symop_operation_xyz
  'x, y, z'

loop_
  _atom_site_type_symbol
  _atom_site_label
  _atom_site_symmetry_multiplicity
  _atom_site_fract_x
  _atom_site_fract_y
  _atom_site_fract_z
  _atom_site_occupancy
  K   K1        1.0  0.88455  0.83200  0.57094  1.0000
  K   K2        1.0  0.61548  0.33202  0.42904  1.0000
  K   K3        1.0  0.11549  0.16800  0.42906  1.0000
  K   K4        1.0  0.38455  0.66798  0.57097  1.0000
  H   H1        1.0  0.48211  0.16607  0.17877  1.0000
  H   H2        1.0  0.01789  0.66606  0.82123  1.0000
  H   H3        1.0  0.51788  0.83393  0.82123  1.0000
  H   H4        1.0  0.98212  0.33393  0.17877  1.0000
  H   H5        1.0  0.65935  0.16653  0.10638  1.0000
  H   H6        1.0  0.84065  0.66651  0.89362  1.0000
  H   H7        1.0  0.34064  0.83348  0.89362  1.0000
  H   H8        1.0  0.15936  0.33348  0.10638  1.0000
  H   H9        1.0  0.72228  0.17115  0.23684  1.0000
  H   H10       1.0  0.77772  0.67114  0.76315  1.0000
  H   H11       1.0  0.27771  0.82886  0.76316  1.0000
  H   H12       1.0  0.22229  0.32886  0.23685  1.0000
  H   H13       1.0  0.57660  0.67521  0.32062  1.0000
  H   H14       1.0  0.92339  0.17520  0.67937  1.0000
  H   H15       1.0  0.42340  0.32479  0.67938  1.0000
  H   H16       1.0  0.07661  0.82480  0.32063  1.0000
  H   H17       1.0  0.65959  0.68323  0.02131  1.0000
  H   H18       1.0  0.84043  0.18322  0.97868  1.0000
  H   H19       1.0  0.34042  0.31677  0.97869  1.0000
  H   H20       1.0  0.15956  0.81678  0.02132  1.0000
  H   H21       1.0  0.66885  0.94962  0.02710  1.0000
  H   H22       1.0  0.83116  0.44960  0.97289  1.0000
  H   H23       1.0  0.33116  0.05039  0.97290  1.0000
  H   H24       1.0  0.16882  0.55039  0.02711  1.0000
  C   C1        1.0  0.62301  0.12533  0.17418  1.0000
  C   C2        1.0  0.87699  0.62531  0.82581  1.0000
  C   C3        1.0  0.37699  0.87467  0.82582  1.0000
  C   C4        1.0  0.12301  0.37468  0.17419  1.0000
  C   C5        1.0  0.62550  0.96532  0.17607  1.0000
  C   C6        1.0  0.87449  0.46531  0.82392  1.0000
  C   C7        1.0  0.37450  0.03468  0.82393  1.0000
  C   C8        1.0  0.12550  0.53469  0.17608  1.0000
  C   C9        1.0  0.60270  0.88451  0.25922  1.0000
  C   C10       1.0  0.89729  0.38449  0.74077  1.0000
  C   C11       1.0  0.39730  0.11550  0.74078  1.0000
  C   C12       1.0  0.10270  0.61550  0.25923  1.0000
  C   C13       1.0  0.59724  0.73561  0.25661  1.0000
  C   C14       1.0  0.90274  0.23559  0.74337  1.0000
  C   C15       1.0  0.40275  0.26440  0.74339  1.0000
  C   C16       1.0  0.09725  0.76441  0.25663  1.0000
  C   C17       1.0  0.61798  0.66561  0.17061  1.0000
  C   C18       1.0  0.88201  0.16559  0.82938  1.0000
  C   C19       1.0  0.38201  0.33440  0.82939  1.0000
  C   C20       1.0  0.11798  0.83441  0.17062  1.0000
  C   C21       1.0  0.64506  0.74079  0.08760  1.0000
  C   C22       1.0  0.85494  0.24077  0.91239  1.0000
  C   C23       1.0  0.35493  0.25922  0.91240  1.0000
  C   C24       1.0  0.14505  0.75922  0.08761  1.0000
  C   C25       1.0  0.64797  0.88956  0.09152  1.0000
  C   C26       1.0  0.85203  0.38955  0.90847  1.0000
  C   C27       1.0  0.35203  0.11044  0.90848  1.0000
  C   C28       1.0  0.14797  0.61045  0.09153  1.0000
  S   S1        1.0  0.57871  0.96813  0.37276  1.0000
  S   S2        1.0  0.92129  0.46812  0.62723  1.0000
  S   S3        1.0  0.42130  0.03187  0.62724  1.0000
  S   S4        1.0  0.07871  0.53188  0.37277  1.0000
  N   N1        1.0  0.60521  0.51017  0.16699  1.0000
  N   N2        1.0  0.89479  0.01016  0.83299  1.0000
  N   N3        1.0  0.39478  0.48984  0.83301  1.0000
  N   N4        1.0  0.10521  0.98984  0.16700  1.0000
  O   O1        1.0  0.76434  0.03538  0.41286  1.0000
  O   O2        1.0  0.73566  0.53537  0.58713  1.0000
  O   O3        1.0  0.23566  0.96462  0.58714  1.0000
  O   O4        1.0  0.26434  0.46463  0.41287  1.0000
  O   O5        1.0  0.53463  0.85055  0.43471  1.0000
  O   O6        1.0  0.96537  0.35054  0.56528  1.0000
  O   O7        1.0  0.46538  0.14946  0.56529  1.0000
  O   O8        1.0  0.03463  0.64946  0.43472  1.0000
  O   O9        1.0  0.42777  0.07510  0.34676  1.0000
  O   O10       1.0  0.07223  0.57510  0.65324  1.0000
  O   O11       1.0  0.57223  0.92490  0.65324  1.0000
  O   O12       1.0  0.92778  0.42490  0.34676  1.0000
  O   O13       1.0  0.54668  0.44765  0.23419  1.0000
  O   O14       1.0  0.95332  0.94764  0.76580  1.0000
  O   O15       1.0  0.45333  0.55236  0.76581  1.0000
  O   O16       1.0  0.04667  0.05236  0.23420  1.0000
  O   O17       1.0  0.65012  0.44729  0.09576  1.0000
  O   O18       1.0  0.84988  0.94729  0.90423  1.0000
  O   O19       1.0  0.34987  0.55271  0.90424  1.0000
  O   O20       1.0  0.15013  0.05271  0.09576  1.0000
