data_image0
_chemical_formula_structural       Ba2H8C12N4O10
_chemical_formula_sum              "Ba2 H8 C12 N4 O10"
_cell_length_a       5.65157
_cell_length_b       8.06148
_cell_length_c       9.82792
_cell_angle_alpha    93.9896
_cell_angle_beta     105.495
_cell_angle_gamma    96.8297

_space_group_name_H-M_alt    "P 1"
_space_group_IT_number       1

loop_
  _space_group_symop_operation_xyz
  'x, y, z'

loop_
  _atom_site_type_symbol
  _atom_site_label
  _atom_site_symmetry_multiplicity
  _atom_site_fract_x
  _atom_site_fract_y
  _atom_site_fract_z
  _atom_site_occupancy
  Ba  Ba1       1.0  0.31659  0.21654  0.05285  1.0000
  Ba  Ba2       1.0  0.68341  0.78346  0.94715  1.0000
  H   H1        1.0  0.32515  0.30112  0.66296  1.0000
  H   H2        1.0  0.67485  0.69888  0.33704  1.0000
  H   H3        1.0  0.82483  0.14732  0.34694  1.0000
  H   H4        1.0  0.17516  0.85268  0.65305  1.0000
  H   H5        1.0  0.94967  0.08043  0.60083  1.0000
  H   H6        1.0  0.05032  0.91957  0.39916  1.0000
  H   H7        1.0  0.23255  0.36754  0.41016  1.0000
  H   H8        1.0  0.76745  0.63247  0.58985  1.0000
  C   C1        1.0  0.69112  0.11775  0.79335  1.0000
  C   C2        1.0  0.30888  0.88226  0.20665  1.0000
  C   C3        1.0  0.64196  0.18106  0.64928  1.0000
  C   C4        1.0  0.35803  0.81894  0.35072  1.0000
  C   C5        1.0  0.44015  0.26564  0.59590  1.0000
  C   C6        1.0  0.55984  0.73436  0.40411  1.0000
  C   C7        1.0  0.72107  0.18207  0.42101  1.0000
  C   C8        1.0  0.27893  0.81792  0.57899  1.0000
  C   C9        1.0  0.78916  0.14363  0.56089  1.0000
  C   C10       1.0  0.21083  0.85637  0.43911  1.0000
  C   C11       1.0  0.38891  0.30203  0.45550  1.0000
  C   C12       1.0  0.61109  0.69798  0.54450  1.0000
  N   N1        1.0  0.52177  0.25773  0.36704  1.0000
  N   N2        1.0  0.47823  0.74228  0.63295  1.0000
  N   N3        1.0  0.90041  0.43305  0.14033  1.0000
  N   N4        1.0  0.09959  0.56696  0.85967  1.0000
  O   O1        1.0  0.51261  0.09978  0.84984  1.0000
  O   O2        1.0  0.48738  0.90022  0.15016  1.0000
  O   O3        1.0  0.90159  0.07199  0.84597  1.0000
  O   O4        1.0  0.09842  0.92801  0.15403  1.0000
  O   O5        1.0  0.71753  0.51379  0.13036  1.0000
  O   O6        1.0  0.28248  0.48621  0.86964  1.0000
  O   O7        1.0  0.86509  0.27361  0.13776  1.0000
  O   O8        1.0  0.13492  0.72639  0.86225  1.0000
  O   O9        1.0  0.11448  0.50790  0.15107  1.0000
  O   O10       1.0  0.88552  0.49210  0.84892  1.0000
