data_image0
_chemical_formula_structural       Cu4H28C32N12O16
_chemical_formula_sum              "Cu4 H28 C32 N12 O16"
_cell_length_a       9.16585
_cell_length_b       9.95178
_cell_length_c       10.2399
_cell_angle_alpha    95.4588
_cell_angle_beta     89.9994
_cell_angle_gamma    89.9998

_space_group_name_H-M_alt    "P 1"
_space_group_IT_number       1

loop_
  _space_group_symop_operation_xyz
  'x, y, z'

loop_
  _atom_site_type_symbol
  _atom_site_label
  _atom_site_symmetry_multiplicity
  _atom_site_fract_x
  _atom_site_fract_y
  _atom_site_fract_z
  _atom_site_occupancy
  Cu  Cu1       1.0  0.82938  0.90862  0.77399  1.0000
  Cu  Cu2       1.0  0.32938  0.09138  0.72601  1.0000
  Cu  Cu3       1.0  0.17062  0.09138  0.22602  1.0000
  Cu  Cu4       1.0  0.67062  0.90862  0.27399  1.0000
  H   H1        1.0  0.39500  0.69749  0.76143  1.0000
  H   H2        1.0  0.89500  0.30251  0.73857  1.0000
  H   H3        1.0  0.60500  0.30252  0.23858  1.0000
  H   H4        1.0  0.10500  0.69748  0.26143  1.0000
  H   H5        1.0  0.17959  0.40836  0.71242  1.0000
  H   H6        1.0  0.67958  0.59164  0.78758  1.0000
  H   H7        1.0  0.82042  0.59165  0.28758  1.0000
  H   H8        1.0  0.32042  0.40836  0.21242  1.0000
  H   H9        1.0  0.16956  0.56500  0.53098  1.0000
  H   H10       1.0  0.66955  0.43499  0.96902  1.0000
  H   H11       1.0  0.83044  0.43500  0.46903  1.0000
  H   H12       1.0  0.33045  0.56501  0.03098  1.0000
  H   H13       1.0  0.00098  0.76736  0.56894  1.0000
  H   H14       1.0  0.50098  0.23264  0.93106  1.0000
  H   H15       1.0  0.99901  0.23264  0.43106  1.0000
  H   H16       1.0  0.49902  0.76736  0.06894  1.0000
  H   H17       1.0  0.83348  0.75369  0.98808  1.0000
  H   H18       1.0  0.33348  0.24631  0.51192  1.0000
  H   H19       1.0  0.16652  0.24631  0.01192  1.0000
  H   H20       1.0  0.66652  0.75369  0.48808  1.0000
  H   H21       1.0  0.91387  0.60358  0.03896  1.0000
  H   H22       1.0  0.41387  0.39643  0.46104  1.0000
  H   H23       1.0  0.08613  0.39643  0.96104  1.0000
  H   H24       1.0  0.58613  0.60357  0.53896  1.0000
  H   H25       1.0  0.19272  0.76121  0.89918  1.0000
  H   H26       1.0  0.69272  0.23879  0.60081  1.0000
  H   H27       1.0  0.80727  0.23880  0.10081  1.0000
  H   H28       1.0  0.30728  0.76120  0.39919  1.0000
  C   C1        1.0  0.24870  0.96684  0.96681  1.0000
  C   C2        1.0  0.74870  0.03316  0.53319  1.0000
  C   C3        1.0  0.75130  0.03317  0.03318  1.0000
  C   C4        1.0  0.25131  0.96684  0.46682  1.0000
  C   C5        1.0  0.38952  0.80084  0.80749  1.0000
  C   C6        1.0  0.88952  0.19916  0.69251  1.0000
  C   C7        1.0  0.61048  0.19916  0.19251  1.0000
  C   C8        1.0  0.11049  0.80083  0.30749  1.0000
  C   C9        1.0  0.52205  0.88233  0.78725  1.0000
  C   C10       1.0  0.02204  0.11766  0.71275  1.0000
  C   C11       1.0  0.47796  0.11767  0.21276  1.0000
  C   C12       1.0  0.97796  0.88233  0.28724  1.0000
  C   C13       1.0  0.95932  0.63916  0.85110  1.0000
  C   C14       1.0  0.45932  0.36084  0.64890  1.0000
  C   C15       1.0  0.04068  0.36084  0.14890  1.0000
  C   C16       1.0  0.54068  0.63916  0.35110  1.0000
  C   C17       1.0  0.11600  0.50140  0.72255  1.0000
  C   C18       1.0  0.61600  0.49860  0.77745  1.0000
  C   C19       1.0  0.88400  0.49861  0.27745  1.0000
  C   C20       1.0  0.38400  0.50140  0.22255  1.0000
  C   C21       1.0  0.10852  0.58577  0.62163  1.0000
  C   C22       1.0  0.60852  0.41423  0.87837  1.0000
  C   C23       1.0  0.89148  0.41423  0.37838  1.0000
  C   C24       1.0  0.39148  0.58577  0.12162  1.0000
  C   C25       1.0  0.01666  0.69661  0.64275  1.0000
  C   C26       1.0  0.51666  0.30339  0.85725  1.0000
  C   C27       1.0  0.98334  0.30339  0.35725  1.0000
  C   C28       1.0  0.48334  0.69661  0.14275  1.0000
  C   C29       1.0  0.27469  0.83740  0.88408  1.0000
  C   C30       1.0  0.77469  0.16260  0.61592  1.0000
  C   C31       1.0  0.72531  0.16261  0.11591  1.0000
  C   C32       1.0  0.22531  0.83740  0.38409  1.0000
  N   N1        1.0  0.94143  0.72363  0.75467  1.0000
  N   N2        1.0  0.44143  0.27637  0.74533  1.0000
  N   N3        1.0  0.05856  0.27637  0.24534  1.0000
  N   N4        1.0  0.55857  0.72363  0.25466  1.0000
  N   N5        1.0  0.89226  0.66675  0.96684  1.0000
  N   N6        1.0  0.39226  0.33325  0.53316  1.0000
  N   N7        1.0  0.10774  0.33325  0.03316  1.0000
  N   N8        1.0  0.60774  0.66675  0.46684  1.0000
  N   N9        1.0  0.04355  0.52593  0.83558  1.0000
  N   N10       1.0  0.54355  0.47408  0.66442  1.0000
  N   N11       1.0  0.95644  0.47408  0.16442  1.0000
  N   N12       1.0  0.45645  0.52592  0.33558  1.0000
  O   O1        1.0  0.27636  0.08166  0.92805  1.0000
  O   O2        1.0  0.77637  0.91834  0.57195  1.0000
  O   O3        1.0  0.72363  0.91835  0.07195  1.0000
  O   O4        1.0  0.22363  0.08165  0.42805  1.0000
  O   O5        1.0  0.19497  0.94831  0.07875  1.0000
  O   O6        1.0  0.69497  0.05169  0.42125  1.0000
  O   O7        1.0  0.80502  0.05170  0.92124  1.0000
  O   O8        1.0  0.30504  0.94830  0.57875  1.0000
  O   O9        1.0  0.51748  0.00525  0.76352  1.0000
  O   O10       1.0  0.01748  0.99475  0.73648  1.0000
  O   O11       1.0  0.48253  0.99475  0.23648  1.0000
  O   O12       1.0  0.98253  0.00525  0.26352  1.0000
  O   O13       1.0  0.64190  0.81756  0.79648  1.0000
  O   O14       1.0  0.14190  0.18244  0.70352  1.0000
  O   O15       1.0  0.35810  0.18244  0.20353  1.0000
  O   O16       1.0  0.85810  0.81755  0.29648  1.0000
