data_image0
_chemical_formula_structural       MnH24C30N4O8
_chemical_formula_sum              "Mn1 H24 C30 N4 O8"
_cell_length_a       8.25977
_cell_length_b       9.51968
_cell_length_c       9.6442
_cell_angle_alpha    108.25
_cell_angle_beta     104.523
_cell_angle_gamma    107.616

_space_group_name_H-M_alt    "P 1"
_space_group_IT_number       1

loop_
  _space_group_symop_operation_xyz
  'x, y, z'

loop_
  _atom_site_type_symbol
  _atom_site_label
  _atom_site_symmetry_multiplicity
  _atom_site_fract_x
  _atom_site_fract_y
  _atom_site_fract_z
  _atom_site_occupancy
  Mn  Mn1       1.0  0.00000  0.50000  1.00000  1.0000
  H   H1        1.0  0.93303  0.76336  0.82275  1.0000
  H   H2        1.0  0.06697  0.23664  0.17725  1.0000
  H   H3        1.0  0.82342  0.97330  0.93406  1.0000
  H   H4        1.0  0.17658  0.02670  0.06594  1.0000
  H   H5        1.0  0.58221  0.01331  0.75626  1.0000
  H   H6        1.0  0.41779  0.98669  0.24374  1.0000
  H   H7        1.0  0.45345  0.84719  0.46843  1.0000
  H   H8        1.0  0.54655  0.15282  0.53157  1.0000
  H   H9        1.0  0.54555  0.40265  0.13311  1.0000
  H   H10       1.0  0.45445  0.59735  0.86689  1.0000
  H   H11       1.0  0.18623  0.27514  0.96699  1.0000
  H   H12       1.0  0.81378  0.72486  0.03301  1.0000
  H   H13       1.0  0.19579  0.05590  0.75763  1.0000
  H   H14       1.0  0.80421  0.94410  0.24237  1.0000
  H   H15       1.0  0.81335  0.13237  0.42046  1.0000
  H   H16       1.0  0.18665  0.86763  0.57954  1.0000
  H   H17       1.0  0.83115  0.35489  0.64365  1.0000
  H   H18       1.0  0.16885  0.64511  0.35635  1.0000
  H   H19       1.0  0.93842  0.57799  0.58726  1.0000
  H   H20       1.0  0.06157  0.42202  0.41274  1.0000
  H   H21       1.0  0.27335  0.73058  0.04242  1.0000
  H   H22       1.0  0.72665  0.26942  0.95758  1.0000
  H   H23       1.0  0.16336  0.65912  0.85411  1.0000
  H   H24       1.0  0.83664  0.34088  0.14589  1.0000
  C   C1        1.0  0.82762  0.78178  0.74604  1.0000
  C   C2        1.0  0.17238  0.21821  0.25396  1.0000
  C   C3        1.0  0.76479  0.89730  0.80732  1.0000
  C   C4        1.0  0.23521  0.10270  0.19268  1.0000
  C   C5        1.0  0.62848  0.92029  0.70750  1.0000
  C   C6        1.0  0.37152  0.07971  0.29250  1.0000
  C   C7        1.0  0.55562  0.82682  0.54618  1.0000
  C   C8        1.0  0.44438  0.17318  0.45382  1.0000
  C   C9        1.0  0.61365  0.70586  0.47965  1.0000
  C   C10       1.0  0.38635  0.29414  0.52035  1.0000
  C   C11       1.0  0.53970  0.60117  0.31386  1.0000
  C   C12       1.0  0.46030  0.39882  0.68614  1.0000
  C   C13       1.0  0.60050  0.48409  0.25809  1.0000
  C   C14       1.0  0.39950  0.51591  0.74191  1.0000
  C   C15       1.0  0.74903  0.47209  0.36169  1.0000
  C   C16       1.0  0.25097  0.52792  0.63831  1.0000
  C   C17       1.0  0.75220  0.68544  0.58235  1.0000
  C   C18       1.0  0.24779  0.31456  0.41765  1.0000
  C   C19       1.0  0.39866  0.62474  0.20087  1.0000
  C   C20       1.0  0.60134  0.37526  0.79913  1.0000
  C   C21       1.0  0.10575  0.23953  0.84385  1.0000
  C   C22       1.0  0.89425  0.76047  0.15615  1.0000
  C   C23       1.0  0.10760  0.11422  0.72418  1.0000
  C   C24       1.0  0.89240  0.88578  0.27582  1.0000
  C   C25       1.0  0.00144  0.06663  0.56488  1.0000
  C   C26       1.0  0.99856  0.93337  0.43512  1.0000
  C   C27       1.0  0.89922  0.15716  0.53880  1.0000
  C   C28       1.0  0.10078  0.84284  0.46120  1.0000
  C   C29       1.0  0.90736  0.28343  0.66412  1.0000
  C   C30       1.0  0.09264  0.71657  0.33588  1.0000
  N   N1        1.0  0.81504  0.57190  0.51856  1.0000
  N   N2        1.0  0.18496  0.42810  0.48144  1.0000
  N   N3        1.0  0.00724  0.32664  0.81777  1.0000
  N   N4        1.0  0.99276  0.67335  0.18223  1.0000
  O   O1        1.0  0.82517  0.37785  0.31505  1.0000
  O   O2        1.0  0.17483  0.62215  0.68495  1.0000
  O   O3        1.0  0.45236  0.74725  0.17111  1.0000
  O   O4        1.0  0.54764  0.25276  0.82889  1.0000
  O   O5        1.0  0.23302  0.51659  0.14430  1.0000
  O   O6        1.0  0.76698  0.48341  0.85570  1.0000
  O   O7        1.0  0.14652  0.68901  0.95817  1.0000
  O   O8        1.0  0.85349  0.31099  0.04183  1.0000
