data_image0
_chemical_formula_structural       CoH24C30N4O8
_chemical_formula_sum              "Co1 H24 C30 N4 O8"
_cell_length_a       8.19695
_cell_length_b       9.62132
_cell_length_c       9.912
_cell_angle_alpha    111.2
_cell_angle_beta     105.186
_cell_angle_gamma    107.032

_space_group_name_H-M_alt    "P 1"
_space_group_IT_number       1

loop_
  _space_group_symop_operation_xyz
  'x, y, z'

loop_
  _atom_site_type_symbol
  _atom_site_label
  _atom_site_symmetry_multiplicity
  _atom_site_fract_x
  _atom_site_fract_y
  _atom_site_fract_z
  _atom_site_occupancy
  Co  Co1       1.0  0.00000  0.00000  0.00000  1.0000
  H   H1        1.0  0.55209  0.90233  0.12747  1.0000
  H   H2        1.0  0.44791  0.09766  0.87253  1.0000
  H   H3        1.0  0.92629  0.26525  0.82654  1.0000
  H   H4        1.0  0.07371  0.73474  0.17346  1.0000
  H   H5        1.0  0.81339  0.47690  0.93904  1.0000
  H   H6        1.0  0.18661  0.52310  0.06095  1.0000
  H   H7        1.0  0.57637  0.51560  0.76017  1.0000
  H   H8        1.0  0.42363  0.48440  0.23983  1.0000
  H   H9        1.0  0.45346  0.34863  0.46921  1.0000
  H   H10       1.0  0.54655  0.65136  0.53079  1.0000
  H   H11       1.0  0.83230  0.82375  0.13960  1.0000
  H   H12       1.0  0.16770  0.17625  0.86040  1.0000
  H   H13       1.0  0.72320  0.76350  0.95750  1.0000
  H   H14       1.0  0.27679  0.23650  0.04250  1.0000
  H   H15       1.0  0.16751  0.76858  0.97186  1.0000
  H   H16       1.0  0.83249  0.23142  0.02814  1.0000
  H   H17       1.0  0.17752  0.54555  0.75773  1.0000
  H   H18       1.0  0.82248  0.45445  0.24227  1.0000
  H   H19       1.0  0.83101  0.64477  0.42526  1.0000
  H   H20       1.0  0.16899  0.35524  0.57474  1.0000
  H   H21       1.0  0.84854  0.87014  0.65456  1.0000
  H   H22       1.0  0.15146  0.12986  0.34544  1.0000
  H   H23       1.0  0.93739  0.07885  0.58961  1.0000
  H   H24       1.0  0.06260  0.92115  0.41039  1.0000
  C   C1        1.0  0.74937  0.97012  0.35988  1.0000
  C   C2        1.0  0.25063  0.02988  0.64012  1.0000
  C   C3        1.0  0.60474  0.98412  0.25433  1.0000
  C   C4        1.0  0.39526  0.01587  0.74567  1.0000
  C   C5        1.0  0.54277  0.10136  0.31184  1.0000
  C   C6        1.0  0.45723  0.89864  0.68816  1.0000
  C   C7        1.0  0.40136  0.12391  0.19904  1.0000
  C   C8        1.0  0.59863  0.87609  0.80097  1.0000
  C   C9        1.0  0.61320  0.20649  0.47981  1.0000
  C   C10       1.0  0.38681  0.79351  0.52019  1.0000
  C   C11       1.0  0.74990  0.18641  0.58338  1.0000
  C   C12       1.0  0.25011  0.81360  0.41662  1.0000
  C   C13       1.0  0.82216  0.28349  0.74915  1.0000
  C   C14       1.0  0.17784  0.71651  0.25085  1.0000
  C   C15       1.0  0.75771  0.39940  0.81098  1.0000
  C   C16       1.0  0.24229  0.60059  0.18902  1.0000
  C   C17       1.0  0.62352  0.42227  0.71025  1.0000
  C   C18       1.0  0.37648  0.57773  0.28975  1.0000
  C   C19       1.0  0.55393  0.32823  0.54725  1.0000
  C   C20       1.0  0.44608  0.67177  0.45275  1.0000
  C   C21       1.0  0.09626  0.73736  0.84868  1.0000
  C   C22       1.0  0.90375  0.26264  0.15132  1.0000
  C   C23       1.0  0.09826  0.61027  0.72598  1.0000
  C   C24       1.0  0.90174  0.38973  0.27402  1.0000
  C   C25       1.0  0.00178  0.56820  0.56681  1.0000
  C   C26       1.0  0.99822  0.43180  0.43319  1.0000
  C   C27       1.0  0.90946  0.66535  0.54329  1.0000
  C   C28       1.0  0.09054  0.33466  0.45671  1.0000
  C   C29       1.0  0.91746  0.79344  0.67181  1.0000
  C   C30       1.0  0.08254  0.20657  0.32819  1.0000
  N   N1        1.0  0.81329  0.07175  0.51876  1.0000
  N   N2        1.0  0.18672  0.92825  0.48124  1.0000
  N   N3        1.0  0.00766  0.83042  0.82450  1.0000
  N   N4        1.0  0.99234  0.16958  0.17550  1.0000
  O   O1        1.0  0.82312  0.87236  0.31409  1.0000
  O   O2        1.0  0.17688  0.12764  0.68592  1.0000
  O   O3        1.0  0.46084  0.24108  0.16978  1.0000
  O   O4        1.0  0.53915  0.75892  0.83023  1.0000
  O   O5        1.0  0.23110  0.01893  0.14542  1.0000
  O   O6        1.0  0.76890  0.98106  0.85458  1.0000
  O   O7        1.0  0.84768  0.79202  0.03751  1.0000
  O   O8        1.0  0.15231  0.20798  0.96249  1.0000
