data_image0
_chemical_formula_structural       CdH24C30N4O8
_chemical_formula_sum              "Cd1 H24 C30 N4 O8"
_cell_length_a       8.61027
_cell_length_b       9.51439
_cell_length_c       9.63775
_cell_angle_alpha    104.614
_cell_angle_beta     104.205
_cell_angle_gamma    108.213

_space_group_name_H-M_alt    "P 1"
_space_group_IT_number       1

loop_
  _space_group_symop_operation_xyz
  'x, y, z'

loop_
  _atom_site_type_symbol
  _atom_site_label
  _atom_site_symmetry_multiplicity
  _atom_site_fract_x
  _atom_site_fract_y
  _atom_site_fract_z
  _atom_site_occupancy
  Cd  Cd1       1.0  1.00000  1.00000  0.00000  1.0000
  H   H1        1.0  0.43699  0.08626  0.84600  1.0000
  H   H2        1.0  0.56301  0.91373  0.15400  1.0000
  H   H3        1.0  0.06055  0.73059  0.18402  1.0000
  H   H4        1.0  0.93945  0.26941  0.81598  1.0000
  H   H5        1.0  0.17454  0.53018  0.08474  1.0000
  H   H6        1.0  0.82547  0.46982  0.91526  1.0000
  H   H7        1.0  0.41522  0.49845  0.25936  1.0000
  H   H8        1.0  0.58479  0.50155  0.74064  1.0000
  H   H9        1.0  0.54187  0.66487  0.53635  1.0000
  H   H10       1.0  0.45814  0.33513  0.46365  1.0000
  H   H11       1.0  0.17334  0.16260  0.36016  1.0000
  H   H12       1.0  0.82665  0.83740  0.63984  1.0000
  H   H13       1.0  0.19131  0.37709  0.57758  1.0000
  H   H14       1.0  0.80869  0.62291  0.42242  1.0000
  H   H15       1.0  0.79526  0.44368  0.25499  1.0000
  H   H16       1.0  0.20474  0.55632  0.74500  1.0000
  H   H17       1.0  0.79957  0.22844  0.05190  1.0000
  H   H18       1.0  0.20043  0.77155  0.94810  1.0000
  H   H19       1.0  0.05920  0.91821  0.40905  1.0000
  H   H20       1.0  0.94080  0.08179  0.59095  1.0000
  H   H21       1.0  0.71029  0.76044  0.96475  1.0000
  H   H22       1.0  0.28972  0.23956  0.03525  1.0000
  H   H23       1.0  0.81060  0.81509  0.14578  1.0000
  H   H24       1.0  0.18940  0.18491  0.85422  1.0000
  C   C1        1.0  0.59060  0.87969  0.78924  1.0000
  C   C2        1.0  0.40940  0.12031  0.21076  1.0000
  C   C3        1.0  0.44864  0.89774  0.67600  1.0000
  C   C4        1.0  0.55136  0.10226  0.32400  1.0000
  C   C5        1.0  0.38460  0.00790  0.72651  1.0000
  C   C6        1.0  0.61541  0.99210  0.27349  1.0000
  C   C7        1.0  0.23969  0.01923  0.62527  1.0000
  C   C8        1.0  0.76031  0.98077  0.37473  1.0000
  C   C9        1.0  0.24037  0.81290  0.41652  1.0000
  C   C10       1.0  0.75963  0.18710  0.58349  1.0000
  C   C11       1.0  0.16669  0.71664  0.26029  1.0000
  C   C12       1.0  0.83331  0.28335  0.73971  1.0000
  C   C13       1.0  0.23138  0.60618  0.20545  1.0000
  C   C14       1.0  0.76863  0.39382  0.79455  1.0000
  C   C15       1.0  0.36813  0.58782  0.30398  1.0000
  C   C16       1.0  0.63187  0.41219  0.69602  1.0000
  C   C17       1.0  0.43973  0.68129  0.45806  1.0000
  C   C18       1.0  0.56027  0.31871  0.54194  1.0000
  C   C19       1.0  0.37887  0.79657  0.51758  1.0000
  C   C20       1.0  0.62113  0.20343  0.48243  1.0000
  C   C21       1.0  0.09448  0.23071  0.34231  1.0000
  C   C22       1.0  0.90552  0.76929  0.65769  1.0000
  C   C23       1.0  0.10338  0.35175  0.46354  1.0000
  C   C24       1.0  0.89662  0.64825  0.53646  1.0000
  C   C25       1.0  0.99732  0.43518  0.43695  1.0000
  C   C26       1.0  0.00268  0.56482  0.56305  1.0000
  C   C27       1.0  0.88543  0.38882  0.28557  1.0000
  C   C28       1.0  0.11457  0.61118  0.71442  1.0000
  C   C29       1.0  0.88509  0.26687  0.17042  1.0000
  C   C30       1.0  0.11491  0.73313  0.82958  1.0000
  N   N1        1.0  0.17670  0.92190  0.47492  1.0000
  N   N2        1.0  0.82330  0.07810  0.52508  1.0000
  N   N3        1.0  0.98842  0.18902  0.19773  1.0000
  N   N4        1.0  0.01158  0.81098  0.80227  1.0000
  O   O1        1.0  0.74273  0.98844  0.83436  1.0000
  O   O2        1.0  0.25728  0.01156  0.16565  1.0000
  O   O3        1.0  0.54537  0.76012  0.82829  1.0000
  O   O4        1.0  0.45463  0.23988  0.17171  1.0000
  O   O5        1.0  0.16674  0.11125  0.66855  1.0000
  O   O6        1.0  0.83326  0.88875  0.33145  1.0000
  O   O7        1.0  0.82260  0.77877  0.04364  1.0000
  O   O8        1.0  0.17740  0.22123  0.95636  1.0000
