data_image0
_chemical_formula_structural       Zn2H48C64N8O12
_chemical_formula_sum              "Zn2 H48 C64 N8 O12"
_cell_length_a       9.03201
_cell_length_b       13.0072
_cell_length_c       13.0155
_cell_angle_alpha    109.674
_cell_angle_beta     105.398
_cell_angle_gamma    89.5533

_space_group_name_H-M_alt    "P 1"
_space_group_IT_number       1

loop_
  _space_group_symop_operation_xyz
  'x, y, z'

loop_
  _atom_site_type_symbol
  _atom_site_label
  _atom_site_symmetry_multiplicity
  _atom_site_fract_x
  _atom_site_fract_y
  _atom_site_fract_z
  _atom_site_occupancy
  Zn  Zn1       1.0  0.85175  0.06354  0.12828  1.0000
  Zn  Zn2       1.0  0.14825  0.93646  0.87172  1.0000
  H   H1        1.0  0.37936  0.50622  0.23021  1.0000
  H   H2        1.0  0.62061  0.49377  0.76979  1.0000
  H   H3        1.0  0.32372  0.43429  0.01925  1.0000
  H   H4        1.0  0.67628  0.56572  0.98075  1.0000
  H   H5        1.0  0.34521  0.23553  0.91934  1.0000
  H   H6        1.0  0.65481  0.76447  0.08065  1.0000
  H   H7        1.0  0.42249  0.11266  0.03017  1.0000
  H   H8        1.0  0.57752  0.88734  0.96981  1.0000
  H   H9        1.0  0.52179  0.17737  0.43810  1.0000
  H   H10       1.0  0.47821  0.82263  0.56189  1.0000
  H   H11       1.0  0.20810  0.22163  0.30087  1.0000
  H   H12       1.0  0.79188  0.77836  0.69914  1.0000
  H   H13       1.0  0.30472  0.85170  0.44993  1.0000
  H   H14       1.0  0.69529  0.14828  0.55005  1.0000
  H   H15       1.0  0.44172  0.70779  0.34130  1.0000
  H   H16       1.0  0.55830  0.29220  0.65869  1.0000
  H   H17       1.0  0.52858  0.73394  0.18327  1.0000
  H   H18       1.0  0.47145  0.26606  0.81672  1.0000
  H   H19       1.0  0.48007  0.90597  0.13969  1.0000
  H   H20       1.0  0.51995  0.09404  0.86031  1.0000
  H   H21       1.0  0.72754  0.21136  0.01252  1.0000
  H   H22       1.0  0.27245  0.78866  0.98748  1.0000
  H   H23       1.0  0.71116  0.41034  0.04527  1.0000
  H   H24       1.0  0.28881  0.58967  0.95474  1.0000
  H   H25       1.0  0.98211  0.47490  0.39161  1.0000
  H   H26       1.0  0.01783  0.52510  0.60841  1.0000
  H   H27       1.0  0.98122  0.27301  0.34694  1.0000
  H   H28       1.0  0.01876  0.72700  0.65307  1.0000
  H   H29       1.0  0.75667  0.59397  0.17260  1.0000
  H   H30       1.0  0.24332  0.40605  0.82741  1.0000
  H   H31       1.0  0.81431  0.62443  0.32132  1.0000
  H   H32       1.0  0.18568  0.37559  0.67869  1.0000
  H   H33       1.0  0.05371  0.57811  0.18595  1.0000
  H   H34       1.0  0.94627  0.42189  0.81405  1.0000
  H   H35       1.0  0.08420  0.64729  0.33341  1.0000
  H   H36       1.0  0.91580  0.35270  0.66660  1.0000
  H   H37       1.0  0.06061  0.68928  0.07530  1.0000
  H   H38       1.0  0.93939  0.31072  0.92471  1.0000
  H   H39       1.0  0.00364  0.86273  0.03654  1.0000
  H   H40       1.0  0.99638  0.13726  0.96347  1.0000
  H   H41       1.0  0.85079  0.99328  0.32272  1.0000
  H   H42       1.0  0.14925  0.00673  0.67730  1.0000
  H   H43       1.0  0.90131  0.82340  0.37490  1.0000
  H   H44       1.0  0.09873  0.17661  0.62512  1.0000
  H   H45       1.0  0.46722  0.48104  0.40172  1.0000
  H   H46       1.0  0.53274  0.51895  0.59826  1.0000
  H   H47       1.0  0.21252  0.02024  0.48633  1.0000
  H   H48       1.0  0.78750  0.97974  0.51366  1.0000
  C   C1        1.0  0.42543  0.34890  0.24672  1.0000
  C   C2        1.0  0.57455  0.65110  0.75327  1.0000
  C   C3        1.0  0.38632  0.41975  0.18469  1.0000
  C   C4        1.0  0.61367  0.58025  0.81530  1.0000
  C   C5        1.0  0.35663  0.37911  0.06709  1.0000
  C   C6        1.0  0.64336  0.62089  0.93291  1.0000
  C   C7        1.0  0.36927  0.26846  0.01142  1.0000
  C   C8        1.0  0.63072  0.73154  0.98857  1.0000
  C   C9        1.0  0.40986  0.19846  0.07336  1.0000
  C   C10       1.0  0.59015  0.80154  0.92663  1.0000
  C   C11       1.0  0.43455  0.23626  0.19143  1.0000
  C   C12       1.0  0.56542  0.76374  0.80856  1.0000
  C   C13       1.0  0.47168  0.16090  0.26033  1.0000
  C   C14       1.0  0.52832  0.83911  0.73966  1.0000
  C   C15       1.0  0.45398  0.21638  0.38107  1.0000
  C   C16       1.0  0.54602  0.78362  0.61892  1.0000
  C   C17       1.0  0.48235  0.33760  0.43596  1.0000
  C   C18       1.0  0.51763  0.66239  0.56403  1.0000
  C   C19       1.0  0.28287  0.16769  0.33576  1.0000
  C   C20       1.0  0.71713  0.83231  0.66424  1.0000
  C   C21       1.0  0.21899  0.14017  0.41927  1.0000
  C   C22       1.0  0.78103  0.85982  0.58073  1.0000
  C   C23       1.0  0.32099  0.95989  0.35869  1.0000
  C   C24       1.0  0.67904  0.04010  0.64132  1.0000
  C   C25       1.0  0.34598  0.86277  0.38228  1.0000
  C   C26       1.0  0.65404  0.13722  0.61771  1.0000
  C   C27       1.0  0.42030  0.78147  0.31948  1.0000
  C   C28       1.0  0.57973  0.21853  0.68051  1.0000
  C   C29       1.0  0.46925  0.79698  0.23222  1.0000
  C   C30       1.0  0.53078  0.20302  0.76777  1.0000
  C   C31       1.0  0.44264  0.89310  0.20763  1.0000
  C   C32       1.0  0.55738  0.10690  0.79237  1.0000
  C   C33       1.0  0.36760  0.97603  0.26961  1.0000
  C   C34       1.0  0.63242  0.02396  0.73039  1.0000
  C   C35       1.0  0.32688  0.07695  0.23877  1.0000
  C   C36       1.0  0.67312  0.92304  0.76123  1.0000
  C   C37       1.0  0.20936  0.04755  0.12142  1.0000
  C   C38       1.0  0.79064  0.95245  0.87857  1.0000
  C   C39       1.0  0.62861  0.11498  0.25705  1.0000
  C   C40       1.0  0.37139  0.88503  0.74294  1.0000
  C   C41       1.0  0.78273  0.27272  0.09530  1.0000
  C   C42       1.0  0.21729  0.72729  0.90470  1.0000
  C   C43       1.0  0.77544  0.38408  0.11438  1.0000
  C   C44       1.0  0.22453  0.61593  0.88564  1.0000
  C   C45       1.0  0.84781  0.46086  0.22156  1.0000
  C   C46       1.0  0.15217  0.53915  0.77845  1.0000
  C   C47       1.0  0.92397  0.41947  0.30610  1.0000
  C   C48       1.0  0.07601  0.58054  0.69391  1.0000
  C   C49       1.0  0.92547  0.30679  0.28157  1.0000
  C   C50       1.0  0.07448  0.69322  0.71844  1.0000
  C   C51       1.0  0.84580  0.58167  0.24251  1.0000
  C   C52       1.0  0.15419  0.41834  0.75750  1.0000
  C   C53       1.0  0.00346  0.63441  0.24933  1.0000
  C   C54       1.0  0.99654  0.36559  0.75068  1.0000
  C   C55       1.0  0.98493  0.74130  0.22846  1.0000
  C   C56       1.0  0.01508  0.25870  0.77154  1.0000
  C   C57       1.0  0.01601  0.75468  0.13390  1.0000
  C   C58       1.0  0.98400  0.24532  0.86611  1.0000
  C   C59       1.0  0.98637  0.85131  0.11185  1.0000
  C   C60       1.0  0.01364  0.14870  0.88816  1.0000
  C   C61       1.0  0.89893  0.92321  0.27194  1.0000
  C   C62       1.0  0.10109  0.07679  0.72808  1.0000
  C   C63       1.0  0.92679  0.82914  0.29932  1.0000
  C   C64       1.0  0.07325  0.17086  0.70070  1.0000
  N   N1        1.0  0.45858  0.39516  0.36523  1.0000
  N   N2        1.0  0.54139  0.60484  0.63476  1.0000
  N   N3        1.0  0.24616  0.03907  0.42562  1.0000
  N   N4        1.0  0.75386  0.96092  0.57437  1.0000
  N   N5        1.0  0.85737  0.23415  0.17711  1.0000
  N   N6        1.0  0.14262  0.76586  0.82289  1.0000
  N   N7        1.0  0.92747  0.93434  0.17920  1.0000
  N   N8        1.0  0.07254  0.06566  0.82081  1.0000
  O   O1        1.0  0.73303  0.13797  0.34886  1.0000
  O   O2        1.0  0.26697  0.86204  0.65113  1.0000
  O   O3        1.0  0.63968  0.05864  0.15774  1.0000
  O   O4        1.0  0.36032  0.94135  0.84226  1.0000
  O   O5        1.0  0.24764  0.97751  0.03928  1.0000
  O   O6        1.0  0.75236  0.02249  0.96071  1.0000
  O   O7        1.0  0.08778  0.09594  0.11418  1.0000
  O   O8        1.0  0.91223  0.90406  0.88582  1.0000
  O   O9        1.0  0.52180  0.38339  0.54207  1.0000
  O   O10       1.0  0.47816  0.61661  0.45792  1.0000
  O   O11       1.0  0.15045  0.20559  0.48079  1.0000
  O   O12       1.0  0.84957  0.79440  0.51921  1.0000
