data_image0
_chemical_formula_structural       Cd2H28C26N10Cl2O4
_chemical_formula_sum              "Cd2 H28 C26 N10 Cl2 O4"
_cell_length_a       7.94033
_cell_length_b       9.12671
_cell_length_c       12.942
_cell_angle_alpha    69.3405
_cell_angle_beta     81.4101
_cell_angle_gamma    64.9018

_space_group_name_H-M_alt    "P 1"
_space_group_IT_number       1

loop_
  _space_group_symop_operation_xyz
  'x, y, z'

loop_
  _atom_site_type_symbol
  _atom_site_label
  _atom_site_symmetry_multiplicity
  _atom_site_fract_x
  _atom_site_fract_y
  _atom_site_fract_z
  _atom_site_occupancy
  Cd  Cd1       1.0  0.37924  0.60740  0.05153  1.0000
  Cd  Cd2       1.0  0.87920  0.65894  0.94834  1.0000
  H   H1        1.0  0.38225  0.77392  0.23961  1.0000
  H   H2        1.0  0.88245  0.01406  0.76016  1.0000
  H   H3        1.0  0.45980  0.65926  0.46863  1.0000
  H   H4        1.0  0.95945  0.12913  0.53152  1.0000
  H   H5        1.0  0.51910  0.66877  0.64886  1.0000
  H   H6        1.0  0.01886  0.31872  0.35123  1.0000
  H   H7        1.0  0.99348  0.78421  0.51039  1.0000
  H   H8        1.0  0.49442  0.29419  0.48947  1.0000
  H   H9        1.0  0.93933  0.76993  0.33023  1.0000
  H   H10       1.0  0.44005  0.10003  0.66976  1.0000
  H   H11       1.0  0.85519  0.83085  0.68273  1.0000
  H   H12       1.0  0.35590  0.51355  0.31718  1.0000
  H   H13       1.0  0.65877  0.78779  0.74046  1.0000
  H   H14       1.0  0.15927  0.52851  0.25943  1.0000
  H   H15       1.0  0.18440  0.58181  0.74108  1.0000
  H   H16       1.0  0.68490  0.32250  0.25891  1.0000
  H   H17       1.0  0.11379  0.48616  0.66575  1.0000
  H   H18       1.0  0.61399  0.15175  0.33432  1.0000
  H   H19       1.0  0.25400  0.33559  0.90217  1.0000
  H   H20       1.0  0.75402  0.23729  0.09792  1.0000
  H   H21       1.0  0.29835  0.23006  0.80503  1.0000
  H   H22       1.0  0.79820  0.03465  0.19516  1.0000
  H   H23       1.0  0.02919  0.16496  0.87058  1.0000
  H   H24       1.0  0.52864  0.03551  0.12972  1.0000
  H   H25       1.0  0.00160  0.26323  0.97065  1.0000
  H   H26       1.0  0.50132  0.23378  0.02952  1.0000
  H   H27       1.0  0.82509  0.41671  0.74261  1.0000
  H   H28       1.0  0.32489  0.15966  0.25757  1.0000
  C   C1        1.0  0.67925  0.70002  0.28195  1.0000
  C   C2        1.0  0.17948  0.98223  0.71799  1.0000
  C   C3        1.0  0.69657  0.71403  0.38802  1.0000
  C   C4        1.0  0.19682  0.10248  0.61199  1.0000
  C   C5        1.0  0.57684  0.68706  0.47738  1.0000
  C   C6        1.0  0.07685  0.16527  0.52267  1.0000
  C   C7        1.0  0.61033  0.69159  0.57871  1.0000
  C   C8        1.0  0.11039  0.27102  0.42133  1.0000
  C   C9        1.0  0.76157  0.72479  0.59219  1.0000
  C   C10       1.0  0.26201  0.31719  0.40775  1.0000
  C   C11       1.0  0.87818  0.75407  0.50165  1.0000
  C   C12       1.0  0.37886  0.25564  0.49828  1.0000
  C   C13       1.0  0.84822  0.74767  0.40067  1.0000
  C   C14       1.0  0.34877  0.14838  0.59933  1.0000
  C   C15       1.0  0.79290  0.73777  0.70006  1.0000
  C   C16       1.0  0.29340  0.43797  0.29986  1.0000
  C   C17       1.0  0.11078  0.50059  0.74743  1.0000
  C   C18       1.0  0.61104  0.24780  0.25261  1.0000
  C   C19       1.0  0.18929  0.32629  0.83705  1.0000
  C   C20       1.0  0.68925  0.16301  0.16309  1.0000
  C   C21       1.0  0.01852  0.28193  0.88184  1.0000
  C   C22       1.0  0.51826  0.16369  0.11835  1.0000
  C   C23       1.0  0.85140  0.43760  0.81654  1.0000
  C   C24       1.0  0.35132  0.25432  0.18357  1.0000
  C   C25       1.0  0.67052  0.47391  0.88330  1.0000
  C   C26       1.0  0.17040  0.35757  0.11680  1.0000
  N   N1        1.0  0.82581  0.65553  0.21569  1.0000
  N   N2        1.0  0.32606  0.87102  0.78417  1.0000
  N   N3        1.0  0.75911  0.65437  0.12727  1.0000
  N   N4        1.0  0.25937  0.78131  0.87249  1.0000
  N   N5        1.0  0.58144  0.69374  0.13488  1.0000
  N   N6        1.0  0.08160  0.82866  0.86490  1.0000
  N   N7        1.0  0.52765  0.72321  0.23152  1.0000
  N   N8        1.0  0.02780  0.95514  0.76836  1.0000
  N   N9        1.0  0.91535  0.57887  0.78244  1.0000
  N   N10       1.0  0.41562  0.36138  0.21754  1.0000
  Cl  Cl1       1.0  0.15510  0.83858  0.13848  1.0000
  Cl  Cl2       1.0  0.65510  0.97698  0.86121  1.0000
  O   O1        1.0  0.54973  0.43272  0.86627  1.0000
  O   O2        1.0  0.04947  0.29956  0.13376  1.0000
  O   O3        1.0  0.65896  0.54306  0.95845  1.0000
  O   O4        1.0  0.15894  0.50190  0.04165  1.0000
