data_image0
_chemical_formula_structural       Cu4H24C24S2I4N4
_chemical_formula_sum              "Cu4 H24 C24 S2 I4 N4"
_cell_length_a       8.22397
_cell_length_b       9.43001
_cell_length_c       10.2503
_cell_angle_alpha    71.5416
_cell_angle_beta     81.4071
_cell_angle_gamma    86.1054

_space_group_name_H-M_alt    "P 1"
_space_group_IT_number       1

loop_
  _space_group_symop_operation_xyz
  'x, y, z'

loop_
  _atom_site_type_symbol
  _atom_site_label
  _atom_site_symmetry_multiplicity
  _atom_site_fract_x
  _atom_site_fract_y
  _atom_site_fract_z
  _atom_site_occupancy
  Cu  Cu1       1.0  0.40660  0.99660  0.40268  1.0000
  Cu  Cu2       1.0  0.59340  0.00340  0.59732  1.0000
  Cu  Cu3       1.0  0.87591  0.99279  0.43046  1.0000
  Cu  Cu4       1.0  0.12410  0.00721  0.56954  1.0000
  H   H1        1.0  0.05193  0.91895  0.18397  1.0000
  H   H2        1.0  0.94808  0.08105  0.81603  1.0000
  H   H3        1.0  0.16400  0.81798  0.00778  1.0000
  H   H4        1.0  0.83601  0.18201  0.99222  1.0000
  H   H5        1.0  0.01581  0.72697  0.95496  1.0000
  H   H6        1.0  0.98420  0.27303  0.04504  1.0000
  H   H7        1.0  0.69839  0.48845  0.42011  1.0000
  H   H8        1.0  0.30161  0.51156  0.57988  1.0000
  H   H9        1.0  0.28770  0.72328  0.36462  1.0000
  H   H10       1.0  0.71230  0.27672  0.63538  1.0000
  H   H11       1.0  0.56169  0.67568  0.98699  1.0000
  H   H12       1.0  0.43831  0.32431  0.01301  1.0000
  H   H13       1.0  0.65815  0.02019  0.15823  1.0000
  H   H14       1.0  0.34185  0.97981  0.84176  1.0000
  H   H15       1.0  0.22450  0.52044  0.28949  1.0000
  H   H16       1.0  0.77550  0.47956  0.71051  1.0000
  H   H17       1.0  0.39915  0.44259  0.21097  1.0000
  H   H18       1.0  0.60085  0.55741  0.78903  1.0000
  H   H19       1.0  0.70150  0.70809  0.50963  1.0000
  H   H20       1.0  0.29850  0.29191  0.49037  1.0000
  H   H21       1.0  0.88196  0.48881  0.20287  1.0000
  H   H22       1.0  0.11804  0.51119  0.79712  1.0000
  H   H23       1.0  0.72508  0.89505  0.97182  1.0000
  H   H24       1.0  0.27492  0.10494  0.02817  1.0000
  C   C1        1.0  0.97460  0.82122  0.23243  1.0000
  C   C2        1.0  0.02540  0.17878  0.76757  1.0000
  C   C3        1.0  0.08849  0.71776  0.03949  1.0000
  C   C4        1.0  0.91151  0.28224  0.96051  1.0000
  C   C5        1.0  0.77891  0.58214  0.36531  1.0000
  C   C6        1.0  0.22109  0.41786  0.63469  1.0000
  C   C7        1.0  0.38438  0.75700  0.27602  1.0000
  C   C8        1.0  0.61562  0.24300  0.72397  1.0000
  C   C9        1.0  0.41457  0.67844  0.17968  1.0000
  C   C10       1.0  0.58542  0.32156  0.82033  1.0000
  C   C11       1.0  0.53815  0.73051  0.06717  1.0000
  C   C12       1.0  0.46185  0.26949  0.93283  1.0000
  C   C13       1.0  0.59139  0.92317  0.16049  1.0000
  C   C14       1.0  0.40861  0.07683  0.83951  1.0000
  C   C15       1.0  0.31791  0.54263  0.19718  1.0000
  C   C16       1.0  0.68209  0.45737  0.80282  1.0000
  C   C17       1.0  0.97933  0.70622  0.17343  1.0000
  C   C18       1.0  0.02067  0.29378  0.82657  1.0000
  C   C19       1.0  0.78019  0.70300  0.41551  1.0000
  C   C20       1.0  0.21981  0.29700  0.58449  1.0000
  C   C21       1.0  0.87974  0.58295  0.24338  1.0000
  C   C22       1.0  0.12025  0.41705  0.75661  1.0000
  C   C23       1.0  0.62834  0.85308  0.05855  1.0000
  C   C24       1.0  0.37166  0.14691  0.94145  1.0000
  S   S1        1.0  0.21973  0.55358  0.04673  1.0000
  S   S2        1.0  0.78027  0.44642  0.95328  1.0000
  I   I1        1.0  0.14140  0.15188  0.30282  1.0000
  I   I2        1.0  0.85860  0.84813  0.69719  1.0000
  I   I3        1.0  0.63972  0.19723  0.34815  1.0000
  I   I4        1.0  0.36028  0.80277  0.65185  1.0000
  N   N1        1.0  0.47026  0.87756  0.26710  1.0000
  N   N2        1.0  0.52974  0.12244  0.73290  1.0000
  N   N3        1.0  0.87755  0.82108  0.35064  1.0000
  N   N4        1.0  0.12246  0.17892  0.64936  1.0000
