data_image0
_chemical_formula_structural       Cu2H24C24S4I2N4
_chemical_formula_sum              "Cu2 H24 C24 S4 I2 N4"
_cell_length_a       8.17356
_cell_length_b       8.53744
_cell_length_c       11.8192
_cell_angle_alpha    102.662
_cell_angle_beta     95.1495
_cell_angle_gamma    117.036

_space_group_name_H-M_alt    "P 1"
_space_group_IT_number       1

loop_
  _space_group_symop_operation_xyz
  'x, y, z'

loop_
  _atom_site_type_symbol
  _atom_site_label
  _atom_site_symmetry_multiplicity
  _atom_site_fract_x
  _atom_site_fract_y
  _atom_site_fract_z
  _atom_site_occupancy
  Cu  Cu1       1.0  0.05361  0.54197  0.90719  1.0000
  Cu  Cu2       1.0  0.94639  0.45803  0.09281  1.0000
  H   H1        1.0  0.07693  0.88393  0.87590  1.0000
  H   H2        1.0  0.92307  0.11607  0.12410  1.0000
  H   H3        1.0  0.30105  0.15487  0.81652  1.0000
  H   H4        1.0  0.69896  0.84514  0.18349  1.0000
  H   H5        1.0  0.61691  0.18845  0.79312  1.0000
  H   H6        1.0  0.38309  0.81156  0.20689  1.0000
  H   H7        1.0  0.45730  0.69028  0.89314  1.0000
  H   H8        1.0  0.54270  0.30971  0.10686  1.0000
  H   H9        1.0  0.79768  0.90320  0.88940  1.0000
  H   H10       1.0  0.20232  0.09680  0.11059  1.0000
  H   H11       1.0  0.85097  0.09718  0.83499  1.0000
  H   H12       1.0  0.14903  0.90282  0.16501  1.0000
  H   H13       1.0  0.34105  0.52388  0.50459  1.0000
  H   H14       1.0  0.65895  0.47611  0.49541  1.0000
  H   H15       1.0  0.31235  0.66042  0.63141  1.0000
  H   H16       1.0  0.68765  0.33957  0.36859  1.0000
  H   H17       1.0  0.12477  0.81455  0.60701  1.0000
  H   H18       1.0  0.87524  0.18546  0.39299  1.0000
  H   H19       1.0  0.89333  0.83933  0.46712  1.0000
  H   H20       1.0  0.10668  0.16068  0.53288  1.0000
  H   H21       1.0  0.85174  0.71204  0.24776  1.0000
  H   H22       1.0  0.14825  0.28795  0.75225  1.0000
  H   H23       1.0  0.24020  0.53559  0.29886  1.0000
  H   H24       1.0  0.75980  0.46441  0.70114  1.0000
  C   C1        1.0  0.21470  0.90351  0.86303  1.0000
  C   C2        1.0  0.78531  0.09649  0.13697  1.0000
  C   C3        1.0  0.33904  0.05211  0.82907  1.0000
  C   C4        1.0  0.66096  0.94790  0.17093  1.0000
  C   C5        1.0  0.51415  0.07056  0.81606  1.0000
  C   C6        1.0  0.48585  0.92944  0.18394  1.0000
  C   C7        1.0  0.56007  0.93941  0.83826  1.0000
  C   C8        1.0  0.43993  0.06059  0.16173  1.0000
  C   C9        1.0  0.42683  0.79461  0.87284  1.0000
  C   C10       1.0  0.57317  0.20539  0.12715  1.0000
  C   C11       1.0  0.74573  0.95445  0.82469  1.0000
  C   C12       1.0  0.25427  0.04555  0.17531  1.0000
  C   C13       1.0  0.34084  0.65324  0.54212  1.0000
  C   C14       1.0  0.65916  0.34675  0.45788  1.0000
  C   C15       1.0  0.20201  0.67371  0.46383  1.0000
  C   C16       1.0  0.79799  0.32628  0.53617  1.0000
  C   C17       1.0  0.10312  0.76081  0.51107  1.0000
  C   C18       1.0  0.89689  0.23919  0.48893  1.0000
  C   C19       1.0  0.97537  0.77559  0.43378  1.0000
  C   C20       1.0  0.02463  0.22441  0.56623  1.0000
  C   C21       1.0  0.95040  0.70436  0.31202  1.0000
  C   C22       1.0  0.04960  0.29564  0.68798  1.0000
  C   C23       1.0  0.16771  0.60588  0.34031  1.0000
  C   C24       1.0  0.83229  0.39411  0.65969  1.0000
  S   S1        1.0  0.73639  0.80702  0.68127  1.0000
  S   S2        1.0  0.26361  0.19298  0.31872  1.0000
  S   S3        1.0  0.57967  0.84422  0.55710  1.0000
  S   S4        1.0  0.42033  0.15578  0.44290  1.0000
  I   I1        1.0  0.77955  0.59296  0.97338  1.0000
  I   I2        1.0  0.22045  0.40704  0.02662  1.0000
  N   N1        1.0  0.25703  0.77580  0.88490  1.0000
  N   N2        1.0  0.74296  0.22420  0.11510  1.0000
  N   N3        1.0  0.04388  0.61950  0.26506  1.0000
  N   N4        1.0  0.95611  0.38049  0.73494  1.0000
