data_image0
_chemical_formula_structural       Cu4H10C14N12
_chemical_formula_sum              "Cu4 H10 C14 N12"
_cell_length_a       7.9167
_cell_length_b       8.15183
_cell_length_c       8.15182
_cell_angle_alpha    100.644
_cell_angle_beta     109.237
_cell_angle_gamma    109.237

_space_group_name_H-M_alt    "P 1"
_space_group_IT_number       1

loop_
  _space_group_symop_operation_xyz
  'x, y, z'

loop_
  _atom_site_type_symbol
  _atom_site_label
  _atom_site_symmetry_multiplicity
  _atom_site_fract_x
  _atom_site_fract_y
  _atom_site_fract_z
  _atom_site_occupancy
  Cu  Cu1       1.0  0.01819  0.45575  0.21207  1.0000
  Cu  Cu2       1.0  0.48180  0.78792  0.54425  1.0000
  Cu  Cu3       1.0  0.98181  0.54424  0.78793  1.0000
  Cu  Cu4       1.0  0.51820  0.21208  0.45575  1.0000
  H   H1        1.0  0.25000  0.33979  0.66022  1.0000
  H   H2        1.0  0.75000  0.66022  0.33978  1.0000
  H   H3        1.0  0.56103  0.40323  0.92388  1.0000
  H   H4        1.0  0.93897  0.07613  0.59678  1.0000
  H   H5        1.0  0.43897  0.59677  0.07613  1.0000
  H   H6        1.0  0.06103  0.92388  0.40323  1.0000
  H   H7        1.0  0.56021  0.21123  0.12590  1.0000
  H   H8        1.0  0.93979  0.87410  0.78877  1.0000
  H   H9        1.0  0.43979  0.78876  0.87409  1.0000
  H   H10       1.0  0.06020  0.12591  0.21123  1.0000
  C   C1        1.0  0.25000  0.25292  0.74709  1.0000
  C   C2        1.0  0.75000  0.74709  0.25291  1.0000
  C   C3        1.0  0.42413  0.28941  0.89588  1.0000
  C   C4        1.0  0.07587  0.10412  0.71059  1.0000
  C   C5        1.0  0.57588  0.71059  0.10412  1.0000
  C   C6        1.0  0.92413  0.89588  0.28942  1.0000
  C   C7        1.0  0.42399  0.18125  0.00945  1.0000
  C   C8        1.0  0.07602  0.99055  0.81876  1.0000
  C   C9        1.0  0.57602  0.81875  0.99055  1.0000
  C   C10       1.0  0.92399  0.00946  0.18125  1.0000
  C   C11       1.0  0.25000  0.02916  0.97084  1.0000
  C   C12       1.0  0.74999  0.97084  0.02916  1.0000
  C   C13       1.0  0.25000  0.91343  0.08657  1.0000
  C   C14       1.0  0.75000  0.08657  0.91344  1.0000
  N   N1        1.0  0.01881  0.48113  0.43776  1.0000
  N   N2        1.0  0.48120  0.56222  0.51886  1.0000
  N   N3        1.0  0.98119  0.51886  0.56224  1.0000
  N   N4        1.0  0.51880  0.43777  0.48114  1.0000
  N   N5        1.0  0.17780  0.67675  0.17887  1.0000
  N   N6        1.0  0.32220  0.82112  0.32324  1.0000
  N   N7        1.0  0.82220  0.32325  0.82112  1.0000
  N   N8        1.0  0.67780  0.17888  0.67675  1.0000
  N   N9        1.0  0.13410  0.73117  0.02795  1.0000
  N   N10       1.0  0.36590  0.97204  0.26882  1.0000
  N   N11       1.0  0.86590  0.26883  0.97205  1.0000
  N   N12       1.0  0.63410  0.02795  0.73118  1.0000
