data_image0
_chemical_formula_structural       Co2H22C18S4N6O4
_chemical_formula_sum              "Co2 H22 C18 S4 N6 O4"
_cell_length_a       8.20409
_cell_length_b       8.91179
_cell_length_c       9.17322
_cell_angle_alpha    110.14
_cell_angle_beta     103.283
_cell_angle_gamma    89.9733

_space_group_name_H-M_alt    "P 1"
_space_group_IT_number       1

loop_
  _space_group_symop_operation_xyz
  'x, y, z'

loop_
  _atom_site_type_symbol
  _atom_site_label
  _atom_site_symmetry_multiplicity
  _atom_site_fract_x
  _atom_site_fract_y
  _atom_site_fract_z
  _atom_site_occupancy
  Co  Co1       1.0  0.67929  0.89264  0.52375  1.0000
  Co  Co2       1.0  0.32071  0.10737  0.47625  1.0000
  H   H1        1.0  0.98012  0.48395  0.63161  1.0000
  H   H2        1.0  0.01988  0.51605  0.36838  1.0000
  H   H3        1.0  0.72476  0.58166  0.01296  1.0000
  H   H4        1.0  0.27525  0.41834  0.98704  1.0000
  H   H5        1.0  0.80495  0.21884  0.49604  1.0000
  H   H6        1.0  0.19505  0.78116  0.50395  1.0000
  H   H7        1.0  0.56371  0.31124  0.86384  1.0000
  H   H8        1.0  0.43629  0.68876  0.13617  1.0000
  H   H9        1.0  0.77789  0.04958  0.89334  1.0000
  H   H10       1.0  0.22212  0.95041  0.10666  1.0000
  H   H11       1.0  0.68054  0.92566  0.97230  1.0000
  H   H12       1.0  0.31945  0.07434  0.02770  1.0000
  H   H13       1.0  0.55919  0.05891  0.89227  1.0000
  H   H14       1.0  0.44081  0.94109  0.10773  1.0000
  H   H15       1.0  0.93143  0.78335  0.02841  1.0000
  H   H16       1.0  0.06856  0.21666  0.97159  1.0000
  H   H17       1.0  0.93319  0.78992  0.83610  1.0000
  H   H18       1.0  0.06682  0.21008  0.16389  1.0000
  H   H19       1.0  0.09679  0.70465  0.93352  1.0000
  H   H20       1.0  0.90321  0.29534  0.06648  1.0000
  H   H21       1.0  0.53238  0.78182  0.71383  1.0000
  H   H22       1.0  0.46762  0.21818  0.28617  1.0000
  C   C1        1.0  0.05813  0.02108  0.67818  1.0000
  C   C2        1.0  0.94185  0.97891  0.32182  1.0000
  C   C3        1.0  0.88871  0.45161  0.68743  1.0000
  C   C4        1.0  0.11127  0.54837  0.31256  1.0000
  C   C5        1.0  0.67061  0.52185  0.34277  1.0000
  C   C6        1.0  0.32939  0.47814  0.65723  1.0000
  C   C7        1.0  0.74702  0.50600  0.89862  1.0000
  C   C8        1.0  0.25298  0.49399  0.10138  1.0000
  C   C9        1.0  0.86496  0.55769  0.83330  1.0000
  C   C10       1.0  0.13504  0.44231  0.16669  1.0000
  C   C11       1.0  0.79619  0.30478  0.61074  1.0000
  C   C12       1.0  0.20382  0.69525  0.38927  1.0000
  C   C13       1.0  0.65672  0.35790  0.81957  1.0000
  C   C14       1.0  0.34329  0.64211  0.18045  1.0000
  C   C15       1.0  0.66192  0.97991  0.87943  1.0000
  C   C16       1.0  0.33808  0.02009  0.12057  1.0000
  C   C17       1.0  0.96135  0.71829  0.91392  1.0000
  C   C18       1.0  0.03865  0.28172  0.08608  1.0000
  S   S1        1.0  0.25603  0.08513  0.72513  1.0000
  S   S2        1.0  0.74397  0.91488  0.27488  1.0000
  S   S3        1.0  0.66088  0.33448  0.22979  1.0000
  S   S4        1.0  0.33912  0.66552  0.77021  1.0000
  N   N1        1.0  0.91433  0.97453  0.64430  1.0000
  N   N2        1.0  0.08569  0.02547  0.35571  1.0000
  N   N3        1.0  0.68135  0.26114  0.67724  1.0000
  N   N4        1.0  0.31865  0.73885  0.32275  1.0000
  N   N5        1.0  0.68119  0.65911  0.42444  1.0000
  N   N6        1.0  0.31881  0.34089  0.57556  1.0000
  O   O1        1.0  0.58672  0.11990  0.59899  1.0000
  O   O2        1.0  0.41328  0.88010  0.40101  1.0000
  O   O3        1.0  0.62659  0.85793  0.72337  1.0000
  O   O4        1.0  0.37341  0.14207  0.27663  1.0000
