data_image0
_chemical_formula_structural       Cu4Mo8H24C32N8O26
_chemical_formula_sum              "Cu4 Mo8 H24 C32 N8 O26"
_cell_length_a       8.29976
_cell_length_b       11.8092
_cell_length_c       12.5277
_cell_angle_alpha    114.84
_cell_angle_beta     96.3572
_cell_angle_gamma    98.8737

_space_group_name_H-M_alt    "P 1"
_space_group_IT_number       1

loop_
  _space_group_symop_operation_xyz
  'x, y, z'

loop_
  _atom_site_type_symbol
  _atom_site_label
  _atom_site_symmetry_multiplicity
  _atom_site_fract_x
  _atom_site_fract_y
  _atom_site_fract_z
  _atom_site_occupancy
  Cu  Cu1       1.0  0.19528  0.48899  0.09451  1.0000
  Cu  Cu2       1.0  0.80472  0.51101  0.90549  1.0000
  Cu  Cu3       1.0  0.24905  0.08360  0.53134  1.0000
  Cu  Cu4       1.0  0.75095  0.91639  0.46866  1.0000
  Mo  Mo1       1.0  0.18092  0.36767  0.47760  1.0000
  Mo  Mo2       1.0  0.81908  0.63233  0.52240  1.0000
  Mo  Mo3       1.0  0.57370  0.36179  0.48541  1.0000
  Mo  Mo4       1.0  0.42630  0.63821  0.51460  1.0000
  Mo  Mo5       1.0  0.43258  0.32085  0.22209  1.0000
  Mo  Mo6       1.0  0.56742  0.67914  0.77790  1.0000
  Mo  Mo7       1.0  0.16142  0.67187  0.76504  1.0000
  Mo  Mo8       1.0  0.83858  0.32814  0.23495  1.0000
  H   H1        1.0  0.01331  0.25844  0.03135  1.0000
  H   H2        1.0  0.98669  0.74156  0.96865  1.0000
  H   H3        1.0  0.87507  0.02802  0.94473  1.0000
  H   H4        1.0  0.12491  0.97198  0.05527  1.0000
  H   H5        1.0  0.92753  0.87432  0.75089  1.0000
  H   H6        1.0  0.07245  0.12569  0.24911  1.0000
  H   H7        1.0  0.11486  0.94939  0.64084  1.0000
  H   H8        1.0  0.88514  0.05061  0.35917  1.0000
  H   H9        1.0  0.40808  0.34893  0.70676  1.0000
  H   H10       1.0  0.59193  0.65106  0.29323  1.0000
  H   H11       1.0  0.36837  0.49977  0.90295  1.0000
  H   H12       1.0  0.63165  0.50022  0.09705  1.0000
  H   H13       1.0  0.43512  0.09163  0.36985  1.0000
  H   H14       1.0  0.56489  0.90837  0.63016  1.0000
  H   H15       1.0  0.56683  0.05738  0.19253  1.0000
  H   H16       1.0  0.43316  0.94262  0.80747  1.0000
  H   H17       1.0  0.51079  0.84176  0.02151  1.0000
  H   H18       1.0  0.48921  0.15824  0.97849  1.0000
  H   H19       1.0  0.32906  0.65679  0.02900  1.0000
  H   H20       1.0  0.67094  0.34320  0.97100  1.0000
  H   H21       1.0  0.04167  0.60818  0.30772  1.0000
  H   H22       1.0  0.95833  0.39182  0.69228  1.0000
  H   H23       1.0  0.07804  0.82505  0.47069  1.0000
  H   H24       1.0  0.92196  0.17494  0.52931  1.0000
  C   C1        1.0  0.13795  0.23557  0.88439  1.0000
  C   C2        1.0  0.86205  0.76443  0.11561  1.0000
  C   C3        1.0  0.03330  0.18990  0.94575  1.0000
  C   C4        1.0  0.96670  0.81010  0.05425  1.0000
  C   C5        1.0  0.95775  0.06203  0.89761  1.0000
  C   C6        1.0  0.04224  0.93799  0.10240  1.0000
  C   C7        1.0  0.98684  0.97492  0.78716  1.0000
  C   C8        1.0  0.01315  0.02508  0.21284  1.0000
  C   C9        1.0  0.08924  0.01631  0.72522  1.0000
  C   C10       1.0  0.91076  0.98369  0.27478  1.0000
  C   C11       1.0  0.16498  0.14694  0.77043  1.0000
  C   C12       1.0  0.83502  0.85305  0.22957  1.0000
  C   C13       1.0  0.33195  0.31313  0.75624  1.0000
  C   C14       1.0  0.66806  0.68687  0.24376  1.0000
  C   C15       1.0  0.30899  0.39920  0.86901  1.0000
  C   C16       1.0  0.69101  0.60079  0.13098  1.0000
  C   C17       1.0  0.31260  0.89468  0.30179  1.0000
  C   C18       1.0  0.68740  0.10532  0.69821  1.0000
  C   C19       1.0  0.41492  0.99725  0.29508  1.0000
  C   C20       1.0  0.58508  0.00275  0.70492  1.0000
  C   C21       1.0  0.48702  0.97760  0.19657  1.0000
  C   C22       1.0  0.51298  0.02240  0.80343  1.0000
  C   C23       1.0  0.45648  0.85441  0.09972  1.0000
  C   C24       1.0  0.54352  0.14558  0.90028  1.0000
  C   C25       1.0  0.35801  0.75203  0.10427  1.0000
  C   C26       1.0  0.64198  0.24797  0.89573  1.0000
  C   C27       1.0  0.28594  0.76851  0.20495  1.0000
  C   C28       1.0  0.71405  0.23148  0.79505  1.0000
  C   C29       1.0  0.11769  0.68871  0.30268  1.0000
  C   C30       1.0  0.88231  0.31129  0.69731  1.0000
  C   C31       1.0  0.14110  0.81273  0.39632  1.0000
  C   C32       1.0  0.85890  0.18727  0.60369  1.0000
  N   N1        1.0  0.21055  0.36439  0.93260  1.0000
  N   N2        1.0  0.78945  0.63561  0.06739  1.0000
  N   N3        1.0  0.25909  0.18883  0.70466  1.0000
  N   N4        1.0  0.74092  0.81116  0.29534  1.0000
  N   N5        1.0  0.23664  0.91626  0.39909  1.0000
  N   N6        1.0  0.76336  0.08373  0.60091  1.0000
  N   N7        1.0  0.18938  0.66428  0.20760  1.0000
  N   N8        1.0  0.81062  0.33572  0.79240  1.0000
  O   O1        1.0  0.12247  0.47098  0.60753  1.0000
  O   O2        1.0  0.87753  0.52902  0.39247  1.0000
  O   O3        1.0  0.42240  0.45852  0.57082  1.0000
  O   O4        1.0  0.57760  0.54148  0.42918  1.0000
  O   O5        1.0  0.17522  0.22633  0.49323  1.0000
  O   O6        1.0  0.82477  0.77367  0.50677  1.0000
  O   O7        1.0  0.34623  0.30851  0.35574  1.0000
  O   O8        1.0  0.65377  0.69149  0.64426  1.0000
  O   O9        1.0  0.23551  0.52961  0.43186  1.0000
  O   O10       1.0  0.76448  0.47039  0.56814  1.0000
  O   O11       1.0  0.55374  0.24361  0.53229  1.0000
  O   O12       1.0  0.44625  0.75639  0.46771  1.0000
  O   O13       1.0  0.33160  0.42843  0.19572  1.0000
  O   O14       1.0  0.66840  0.57157  0.80428  1.0000
  O   O15       1.0  0.63595  0.36676  0.17747  1.0000
  O   O16       1.0  0.36405  0.63324  0.82253  1.0000
  O   O17       1.0  0.63428  0.29089  0.33333  1.0000
  O   O18       1.0  0.36572  0.70911  0.66667  1.0000
  O   O19       1.0  0.34039  0.17359  0.10783  1.0000
  O   O20       1.0  0.65960  0.82641  0.89217  1.0000
  O   O21       1.0  0.19753  0.83007  0.86414  1.0000
  O   O22       1.0  0.80249  0.16993  0.13586  1.0000
  O   O23       1.0  0.02980  0.59639  0.82488  1.0000
  O   O24       1.0  0.97019  0.40361  0.17512  1.0000
  O   O25       1.0  0.99309  0.31765  0.35988  1.0000
  O   O26       1.0  0.00691  0.68236  0.64012  1.0000
