data_image0
_chemical_formula_structural       Cu2Mo2H20C14N12O8
_chemical_formula_sum              "Cu2 Mo2 H20 C14 N12 O8"
_cell_length_a       8.24516
_cell_length_b       8.45609
_cell_length_c       10.0479
_cell_angle_alpha    103.481
_cell_angle_beta     94.6785
_cell_angle_gamma    116.427

_space_group_name_H-M_alt    "P 1"
_space_group_IT_number       1

loop_
  _space_group_symop_operation_xyz
  'x, y, z'

loop_
  _atom_site_type_symbol
  _atom_site_label
  _atom_site_symmetry_multiplicity
  _atom_site_fract_x
  _atom_site_fract_y
  _atom_site_fract_z
  _atom_site_occupancy
  Cu  Cu1       1.0  0.00000  1.00000  0.00000  1.0000
  Cu  Cu2       1.0  1.00000  0.50000  1.00000  1.0000
  Mo  Mo1       1.0  0.20024  0.28537  0.78777  1.0000
  Mo  Mo2       1.0  0.79976  0.71463  0.21223  1.0000
  H   H1        1.0  0.20871  0.24457  0.34935  1.0000
  H   H2        1.0  0.79129  0.75543  0.65065  1.0000
  H   H3        1.0  0.16233  0.71712  0.32912  1.0000
  H   H4        1.0  0.83767  0.28288  0.67088  1.0000
  H   H5        1.0  0.55761  0.71479  0.86524  1.0000
  H   H6        1.0  0.44239  0.28522  0.13477  1.0000
  H   H7        1.0  0.54551  0.19849  0.82456  1.0000
  H   H8        1.0  0.45449  0.80151  0.17544  1.0000
  H   H9        1.0  0.44096  0.63770  0.56063  1.0000
  H   H10       1.0  0.55903  0.36230  0.43937  1.0000
  H   H11       1.0  0.22285  0.47992  0.58523  1.0000
  H   H12       1.0  0.77715  0.52008  0.41477  1.0000
  H   H13       1.0  0.10666  0.71075  0.56140  1.0000
  H   H14       1.0  0.89334  0.28926  0.43860  1.0000
  H   H15       1.0  0.33300  0.87257  0.56428  1.0000
  H   H16       1.0  0.66700  0.12743  0.43572  1.0000
  H   H17       1.0  0.22789  0.90192  0.79638  1.0000
  H   H18       1.0  0.77211  0.09808  0.20362  1.0000
  H   H19       1.0  0.23267  0.69415  0.80106  1.0000
  H   H20       1.0  0.76734  0.30585  0.19894  1.0000
  C   C1        1.0  0.19035  0.34413  0.30744  1.0000
  C   C2        1.0  0.80964  0.65587  0.69256  1.0000
  C   C3        1.0  0.16975  0.58889  0.29853  1.0000
  C   C4        1.0  0.83025  0.41111  0.70147  1.0000
  C   C5        1.0  0.60203  0.85740  0.86738  1.0000
  C   C6        1.0  0.39798  0.14260  0.13262  1.0000
  C   C7        1.0  0.59723  0.10643  0.84636  1.0000
  C   C8        1.0  0.40278  0.89357  0.15364  1.0000
  C   C9        1.0  0.29169  0.59325  0.53979  1.0000
  C   C10       1.0  0.70830  0.40675  0.46021  1.0000
  C   C11       1.0  0.25262  0.75245  0.60025  1.0000
  C   C12       1.0  0.74738  0.24755  0.39976  1.0000
  C   C13       1.0  0.28992  0.81297  0.76000  1.0000
  C   C14       1.0  0.71009  0.18703  0.24000  1.0000
  N   N1        1.0  0.12637  0.31750  0.17494  1.0000
  N   N2        1.0  0.87362  0.68251  0.82506  1.0000
  N   N3        1.0  0.11293  0.47175  0.17025  1.0000
  N   N4        1.0  0.88707  0.52825  0.82975  1.0000
  N   N5        1.0  0.22028  0.51293  0.38809  1.0000
  N   N6        1.0  0.77972  0.48707  0.61191  1.0000
  N   N7        1.0  0.77277  0.99837  0.91218  1.0000
  N   N8        1.0  0.22723  0.00163  0.08782  1.0000
  N   N9        1.0  0.77081  0.15527  0.89920  1.0000
  N   N10       1.0  0.22920  0.84473  0.10080  1.0000
  N   N11       1.0  0.48793  0.92070  0.82399  1.0000
  N   N12       1.0  0.51208  0.07930  0.17601  1.0000
  O   O1        1.0  0.13648  0.09486  0.86043  1.0000
  O   O2        1.0  0.86353  0.90515  0.13957  1.0000
  O   O3        1.0  0.19539  0.48060  0.90496  1.0000
  O   O4        1.0  0.80461  0.51940  0.09504  1.0000
  O   O5        1.0  0.42457  0.35740  0.75530  1.0000
  O   O6        1.0  0.57543  0.64261  0.24470  1.0000
  O   O7        1.0  0.04459  0.21481  0.62893  1.0000
  O   O8        1.0  0.95541  0.78518  0.37107  1.0000
