data_image0
_chemical_formula_structural       Cu4Mo8H24C14N12O30
_chemical_formula_sum              "Cu4 Mo8 H24 C14 N12 O30"
_cell_length_a       8.95041
_cell_length_b       10.4665
_cell_length_c       12.1306
_cell_angle_alpha    70.508
_cell_angle_beta     71.3058
_cell_angle_gamma    85.186

_space_group_name_H-M_alt    "P 1"
_space_group_IT_number       1

loop_
  _space_group_symop_operation_xyz
  'x, y, z'

loop_
  _atom_site_type_symbol
  _atom_site_label
  _atom_site_symmetry_multiplicity
  _atom_site_fract_x
  _atom_site_fract_y
  _atom_site_fract_z
  _atom_site_occupancy
  Cu  Cu1       1.0  0.50000  0.00000  0.50000  1.0000
  Cu  Cu2       1.0  0.73399  0.08759  0.21062  1.0000
  Cu  Cu3       1.0  0.26601  0.91241  0.78938  1.0000
  Cu  Cu4       1.0  0.00000  1.00000  0.00000  1.0000
  Mo  Mo1       1.0  0.63490  0.42525  0.28303  1.0000
  Mo  Mo2       1.0  0.36510  0.57475  0.71697  1.0000
  Mo  Mo3       1.0  0.58734  0.75607  0.18563  1.0000
  Mo  Mo4       1.0  0.41266  0.24393  0.81437  1.0000
  Mo  Mo5       1.0  0.27090  0.70124  0.43746  1.0000
  Mo  Mo6       1.0  0.72910  0.29876  0.56254  1.0000
  Mo  Mo7       1.0  0.33865  0.38321  0.52545  1.0000
  Mo  Mo8       1.0  0.66135  0.61679  0.47455  1.0000
  H   H1        1.0  0.76566  0.08775  0.40134  1.0000
  H   H2        1.0  0.23434  0.91225  0.59867  1.0000
  H   H3        1.0  0.94162  0.92908  0.23055  1.0000
  H   H4        1.0  0.05837  0.07091  0.76944  1.0000
  H   H5        1.0  0.16729  0.11605  0.44644  1.0000
  H   H6        1.0  0.83270  0.88394  0.55357  1.0000
  H   H7        1.0  0.45414  0.18823  0.07597  1.0000
  H   H8        1.0  0.54586  0.81177  0.92403  1.0000
  H   H9        1.0  0.95031  0.69487  0.22964  1.0000
  H   H10       1.0  0.04969  0.30513  0.77036  1.0000
  H   H11       1.0  0.34854  0.61429  0.96002  1.0000
  H   H12       1.0  0.65146  0.38571  0.03998  1.0000
  H   H13       1.0  0.02779  0.20990  0.28973  1.0000
  H   H14       1.0  0.97221  0.79009  0.71027  1.0000
  H   H15       1.0  0.10721  0.16137  0.15637  1.0000
  H   H16       1.0  0.89279  0.83863  0.84363  1.0000
  H   H17       1.0  0.06008  0.39659  0.08448  1.0000
  H   H18       1.0  0.93992  0.60340  0.91553  1.0000
  H   H19       1.0  0.26682  0.38638  0.05269  1.0000
  H   H20       1.0  0.73318  0.61362  0.94731  1.0000
  H   H21       1.0  0.03603  0.45095  0.27819  1.0000
  H   H22       1.0  0.96397  0.54905  0.72181  1.0000
  H   H23       1.0  0.24550  0.45478  0.23817  1.0000
  H   H24       1.0  0.75450  0.54522  0.76183  1.0000
  C   C1        1.0  0.26781  0.12076  0.36633  1.0000
  C   C2        1.0  0.73218  0.87924  0.63367  1.0000
  C   C3        1.0  0.41514  0.15799  0.17618  1.0000
  C   C4        1.0  0.58486  0.84201  0.82382  1.0000
  C   C5        1.0  0.04814  0.70751  0.14608  1.0000
  C   C6        1.0  0.95186  0.29249  0.85392  1.0000
  C   C7        1.0  0.25182  0.66498  0.00815  1.0000
  C   C8        1.0  0.74818  0.33502  0.99185  1.0000
  C   C9        1.0  0.12962  0.22357  0.20674  1.0000
  C   C10       1.0  0.87038  0.77643  0.79326  1.0000
  C   C11       1.0  0.15424  0.37229  0.12756  1.0000
  C   C12       1.0  0.84576  0.62771  0.87244  1.0000
  C   C13       1.0  0.14617  0.46724  0.20136  1.0000
  C   C14       1.0  0.85383  0.53276  0.79865  1.0000
  N   N1        1.0  0.41268  0.08385  0.36626  1.0000
  N   N2        1.0  0.58732  0.91615  0.63374  1.0000
  N   N3        1.0  0.50478  0.10809  0.24766  1.0000
  N   N4        1.0  0.49522  0.89191  0.75234  1.0000
  N   N5        1.0  0.26563  0.16794  0.24827  1.0000
  N   N6        1.0  0.73437  0.83206  0.75174  1.0000
  N   N7        1.0  0.08727  0.81915  0.04958  1.0000
  N   N8        1.0  0.91273  0.18085  0.95042  1.0000
  N   N9        1.0  0.21432  0.79221  0.96318  1.0000
  N   N10       1.0  0.78568  0.20779  0.03682  1.0000
  N   N11       1.0  0.14884  0.60850  0.12225  1.0000
  N   N12       1.0  0.85116  0.39149  0.87775  1.0000
  O   O1        1.0  0.70986  0.02287  0.38375  1.0000
  O   O2        1.0  0.29014  0.97713  0.61625  1.0000
  O   O3        1.0  0.93892  0.01331  0.16487  1.0000
  O   O4        1.0  0.06108  0.98669  0.83513  1.0000
  O   O5        1.0  0.53255  0.30226  0.45153  1.0000
  O   O6        1.0  0.46746  0.69774  0.54847  1.0000
  O   O7        1.0  0.79257  0.32741  0.23864  1.0000
  O   O8        1.0  0.20743  0.67259  0.76136  1.0000
  O   O9        1.0  0.72115  0.60186  0.18235  1.0000
  O   O10       1.0  0.27885  0.39814  0.81765  1.0000
  O   O11       1.0  0.46727  0.55454  0.38814  1.0000
  O   O12       1.0  0.53274  0.44547  0.61185  1.0000
  O   O13       1.0  0.50670  0.40756  0.20906  1.0000
  O   O14       1.0  0.49330  0.59244  0.79094  1.0000
  O   O15       1.0  0.70301  0.89409  0.08092  1.0000
  O   O16       1.0  0.29699  0.10591  0.91908  1.0000
  O   O17       1.0  0.42707  0.81997  0.30145  1.0000
  O   O18       1.0  0.57293  0.18004  0.69855  1.0000
  O   O19       1.0  0.47247  0.72137  0.10824  1.0000
  O   O20       1.0  0.52753  0.27863  0.89176  1.0000
  O   O21       1.0  0.17191  0.81451  0.51092  1.0000
  O   O22       1.0  0.82809  0.18549  0.48908  1.0000
  O   O23       1.0  0.23584  0.53340  0.58180  1.0000
  O   O24       1.0  0.76416  0.46661  0.41820  1.0000
  O   O25       1.0  0.14958  0.66953  0.36573  1.0000
  O   O26       1.0  0.85043  0.33047  0.63427  1.0000
  O   O27       1.0  0.29038  0.25802  0.67350  1.0000
  O   O28       1.0  0.70962  0.74198  0.32650  1.0000
  O   O29       1.0  0.21333  0.35005  0.45792  1.0000
  O   O30       1.0  0.78668  0.64995  0.54208  1.0000
