data_image0
_chemical_formula_structural       CoH12C8N8O4
_chemical_formula_sum              "Co1 H12 C8 N8 O4"
_cell_length_a       6.40413
_cell_length_b       6.8524
_cell_length_c       8.71502
_cell_angle_alpha    116.208
_cell_angle_beta     100.245
_cell_angle_gamma    98.2347

_space_group_name_H-M_alt    "P 1"
_space_group_IT_number       1

loop_
  _space_group_symop_operation_xyz
  'x, y, z'

loop_
  _atom_site_type_symbol
  _atom_site_label
  _atom_site_symmetry_multiplicity
  _atom_site_fract_x
  _atom_site_fract_y
  _atom_site_fract_z
  _atom_site_occupancy
  Co  Co1       1.0  0.99960  0.47103  0.48662  1.0000
  H   H1        1.0  0.84903  0.16447  0.05880  1.0000
  H   H2        1.0  0.16092  0.78796  0.91182  1.0000
  H   H3        1.0  0.44443  0.63680  0.39898  1.0000
  H   H4        1.0  0.54240  0.34768  0.58891  1.0000
  H   H5        1.0  0.56823  0.29612  0.99580  1.0000
  H   H6        1.0  0.45340  0.71837  0.00287  1.0000
  H   H7        1.0  0.65909  0.57346  0.18118  1.0000
  H   H8        1.0  0.34289  0.43990  0.81900  1.0000
  H   H9        1.0  0.03860  0.10728  0.51915  1.0000
  H   H10       1.0  0.99716  0.87568  0.60491  1.0000
  H   H11       1.0  0.18934  0.12366  0.39745  1.0000
  H   H12       1.0  0.78946  0.96745  0.63169  1.0000
  C   C1        1.0  0.01339  0.27086  0.10756  1.0000
  C   C2        1.0  0.99292  0.69201  0.86701  1.0000
  C   C3        1.0  0.31293  0.51218  0.28564  1.0000
  C   C4        1.0  0.68156  0.46738  0.69754  1.0000
  C   C5        1.0  0.52569  0.45683  0.06213  1.0000
  C   C6        1.0  0.48319  0.55152  0.93380  1.0000
  C   C7        1.0  0.56024  0.13198  0.29094  1.0000
  C   C8        1.0  0.41236  0.85908  0.69377  1.0000
  N   N1        1.0  0.33182  0.41891  0.11948  1.0000
  N   N2        1.0  0.67158  0.57171  0.86617  1.0000
  N   N3        1.0  0.14279  0.26488  0.00345  1.0000
  N   N4        1.0  0.86806  0.71464  0.97640  1.0000
  N   N5        1.0  0.11125  0.42151  0.28359  1.0000
  N   N6        1.0  0.88520  0.54070  0.69229  1.0000
  N   N7        1.0  0.73340  0.26097  0.33770  1.0000
  N   N8        1.0  0.24201  0.72127  0.63137  1.0000
  O   O1        1.0  0.37922  0.00295  0.23914  1.0000
  O   O2        1.0  0.58681  0.00124  0.75973  1.0000
  O   O3        1.0  0.15346  0.21395  0.50899  1.0000
  O   O4        1.0  0.87759  0.91556  0.54611  1.0000
