data_image0
_chemical_formula_structural       Mn2H16C12O8
_chemical_formula_sum              "Mn2 H16 C12 O8"
_cell_length_a       4.88788
_cell_length_b       8.93558
_cell_length_c       8.93559
_cell_angle_alpha    81.3766
_cell_angle_beta     76.3758
_cell_angle_gamma    76.3757

_space_group_name_H-M_alt    "P 1"
_space_group_IT_number       1

loop_
  _space_group_symop_operation_xyz
  'x, y, z'

loop_
  _atom_site_type_symbol
  _atom_site_label
  _atom_site_symmetry_multiplicity
  _atom_site_fract_x
  _atom_site_fract_y
  _atom_site_fract_z
  _atom_site_occupancy
  Mn  Mn1       1.0  0.25000  0.07926  0.92074  1.0000
  Mn  Mn2       1.0  0.75000  0.92074  0.07926  1.0000
  H   H1        1.0  0.26572  0.98298  0.56902  1.0000
  H   H2        1.0  0.23428  0.43098  0.01702  1.0000
  H   H3        1.0  0.73428  0.01702  0.43098  1.0000
  H   H4        1.0  0.76572  0.56902  0.98298  1.0000
  H   H5        1.0  0.82907  0.27463  0.48341  1.0000
  H   H6        1.0  0.67093  0.51659  0.72537  1.0000
  H   H7        1.0  0.17093  0.72537  0.51659  1.0000
  H   H8        1.0  0.32907  0.48341  0.27463  1.0000
  H   H9        1.0  0.19618  0.22219  0.38613  1.0000
  H   H10       1.0  0.30382  0.61387  0.77781  1.0000
  H   H11       1.0  0.80382  0.77781  0.61387  1.0000
  H   H12       1.0  0.69618  0.38613  0.22219  1.0000
  H   H13       1.0  0.11190  0.27023  0.57972  1.0000
  H   H14       1.0  0.38810  0.42028  0.72977  1.0000
  H   H15       1.0  0.88810  0.72977  0.42028  1.0000
  H   H16       1.0  0.61190  0.57972  0.27023  1.0000
  C   C1        1.0  0.84975  0.03034  0.71443  1.0000
  C   C2        1.0  0.65025  0.28557  0.96966  1.0000
  C   C3        1.0  0.15025  0.96966  0.28557  1.0000
  C   C4        1.0  0.34975  0.71443  0.03034  1.0000
  C   C5        1.0  0.04733  0.04194  0.55601  1.0000
  C   C6        1.0  0.45267  0.44399  0.95806  1.0000
  C   C7        1.0  0.95267  0.95806  0.44399  1.0000
  C   C8        1.0  0.54733  0.55601  0.04194  1.0000
  C   C9        1.0  0.04519  0.21286  0.49796  1.0000
  C   C10       1.0  0.45481  0.50204  0.78714  1.0000
  C   C11       1.0  0.95481  0.78714  0.50204  1.0000
  C   C12       1.0  0.54519  0.49796  0.21286  1.0000
  O   O1        1.0  0.96668  0.97299  0.83123  1.0000
  O   O2        1.0  0.53332  0.16877  0.02701  1.0000
  O   O3        1.0  0.03332  0.02701  0.16877  1.0000
  O   O4        1.0  0.46668  0.83123  0.97299  1.0000
  O   O5        1.0  0.58111  0.07844  0.72342  1.0000
  O   O6        1.0  0.91889  0.27658  0.92156  1.0000
  O   O7        1.0  0.41889  0.92156  0.27658  1.0000
  O   O8        1.0  0.08111  0.72342  0.07844  1.0000
