data_image0
_chemical_formula_structural       Zn2H16C12O8
_chemical_formula_sum              "Zn2 H16 C12 O8"
_cell_length_a       4.87633
_cell_length_b       6.71369
_cell_length_c       11.588
_cell_angle_alpha    106.401
_cell_angle_beta     94.0654
_cell_angle_gamma    95.433

_space_group_name_H-M_alt    "P 1"
_space_group_IT_number       1

loop_
  _space_group_symop_operation_xyz
  'x, y, z'

loop_
  _atom_site_type_symbol
  _atom_site_label
  _atom_site_symmetry_multiplicity
  _atom_site_fract_x
  _atom_site_fract_y
  _atom_site_fract_z
  _atom_site_occupancy
  Zn  Zn1       1.0  0.26102  0.28312  0.40992  1.0000
  Zn  Zn2       1.0  0.73899  0.71688  0.59008  1.0000
  H   H1        1.0  0.00596  0.84726  0.28171  1.0000
  H   H2        1.0  0.99404  0.15274  0.71829  1.0000
  H   H3        1.0  0.41340  0.68180  0.16553  1.0000
  H   H4        1.0  0.58660  0.31820  0.83448  1.0000
  H   H5        1.0  0.75439  0.49200  0.03976  1.0000
  H   H6        1.0  0.24561  0.50800  0.96024  1.0000
  H   H7        1.0  0.58444  0.33073  0.11704  1.0000
  H   H8        1.0  0.41556  0.66926  0.88296  1.0000
  H   H9        1.0  0.92919  0.45153  0.17052  1.0000
  H   H10       1.0  0.07081  0.54847  0.82948  1.0000
  H   H11       1.0  0.98429  0.79870  0.06127  1.0000
  H   H12       1.0  0.01571  0.20130  0.93873  1.0000
  H   H13       1.0  0.01207  0.06798  0.14002  1.0000
  H   H14       1.0  0.98793  0.93201  0.85998  1.0000
  H   H15       1.0  0.68662  0.93326  0.06561  1.0000
  H   H16       1.0  0.31338  0.06674  0.93439  1.0000
  C   C1        1.0  0.81082  0.86562  0.23463  1.0000
  C   C2        1.0  0.18918  0.13438  0.76537  1.0000
  C   C3        1.0  0.61270  0.66346  0.20977  1.0000
  C   C4        1.0  0.38730  0.33654  0.79024  1.0000
  C   C5        1.0  0.72813  0.47277  0.12936  1.0000
  C   C6        1.0  0.27186  0.52723  0.87064  1.0000
  C   C7        1.0  0.69458  0.05119  0.31662  1.0000
  C   C8        1.0  0.30542  0.94881  0.68338  1.0000
  C   C9        1.0  0.87658  0.91965  0.11854  1.0000
  C   C10       1.0  0.12342  0.08035  0.88146  1.0000
  C   C11       1.0  0.54876  0.61463  0.32649  1.0000
  C   C12       1.0  0.45124  0.38538  0.67352  1.0000
  O   O1        1.0  0.85108  0.21630  0.37613  1.0000
  O   O2        1.0  0.14893  0.78370  0.62387  1.0000
  O   O3        1.0  0.43181  0.03770  0.31846  1.0000
  O   O4        1.0  0.56819  0.96230  0.68154  1.0000
  O   O5        1.0  0.71783  0.70026  0.41975  1.0000
  O   O6        1.0  0.28219  0.29975  0.58025  1.0000
  O   O7        1.0  0.33513  0.48521  0.31962  1.0000
  O   O8        1.0  0.66488  0.51481  0.68038  1.0000
