data_image0
_chemical_formula_structural       Co2H16C12O8
_chemical_formula_sum              "Co2 H16 C12 O8"
_cell_length_a       4.57275
_cell_length_b       8.89182
_cell_length_c       8.89181
_cell_angle_alpha    82.9647
_cell_angle_beta     76.1578
_cell_angle_gamma    76.1578

_space_group_name_H-M_alt    "P 1"
_space_group_IT_number       1

loop_
  _space_group_symop_operation_xyz
  'x, y, z'

loop_
  _atom_site_type_symbol
  _atom_site_label
  _atom_site_symmetry_multiplicity
  _atom_site_fract_x
  _atom_site_fract_y
  _atom_site_fract_z
  _atom_site_occupancy
  Co  Co1       1.0  0.25000  0.05623  0.94377  1.0000
  Co  Co2       1.0  0.75000  0.94377  0.05623  1.0000
  H   H1        1.0  0.69353  0.50915  0.72420  1.0000
  H   H2        1.0  0.80647  0.27580  0.49085  1.0000
  H   H3        1.0  0.30648  0.49085  0.27580  1.0000
  H   H4        1.0  0.19352  0.72420  0.50915  1.0000
  H   H5        1.0  0.30325  0.61366  0.77570  1.0000
  H   H6        1.0  0.19675  0.22430  0.38634  1.0000
  H   H7        1.0  0.69675  0.38634  0.22430  1.0000
  H   H8        1.0  0.80325  0.77570  0.61366  1.0000
  H   H9        1.0  0.38480  0.41771  0.72719  1.0000
  H   H10       1.0  0.11520  0.27281  0.58229  1.0000
  H   H11       1.0  0.61520  0.58229  0.27281  1.0000
  H   H12       1.0  0.88480  0.72719  0.41771  1.0000
  H   H13       1.0  0.21385  0.43400  0.01387  1.0000
  H   H14       1.0  0.28615  0.98613  0.56600  1.0000
  H   H15       1.0  0.78614  0.56600  0.98613  1.0000
  H   H16       1.0  0.71386  0.01387  0.43400  1.0000
  C   C1        1.0  0.65371  0.28366  0.96860  1.0000
  C   C2        1.0  0.84629  0.03140  0.71634  1.0000
  C   C3        1.0  0.34630  0.71634  0.03140  1.0000
  C   C4        1.0  0.15370  0.96860  0.28366  1.0000
  C   C5        1.0  0.45910  0.49953  0.78511  1.0000
  C   C6        1.0  0.04090  0.21489  0.50047  1.0000
  C   C7        1.0  0.54090  0.50047  0.21489  1.0000
  C   C8        1.0  0.95910  0.78511  0.49952  1.0000
  C   C9        1.0  0.44919  0.44427  0.95617  1.0000
  C   C10       1.0  0.05081  0.04383  0.55573  1.0000
  C   C11       1.0  0.55081  0.55573  0.04383  1.0000
  C   C12       1.0  0.94919  0.95617  0.44427  1.0000
  O   O1        1.0  0.51869  0.17236  0.03467  1.0000
  O   O2        1.0  0.98131  0.96533  0.82764  1.0000
  O   O3        1.0  0.48131  0.82764  0.96532  1.0000
  O   O4        1.0  0.01869  0.03468  0.17236  1.0000
  O   O5        1.0  0.94151  0.26548  0.91781  1.0000
  O   O6        1.0  0.55849  0.08219  0.73452  1.0000
  O   O7        1.0  0.05849  0.73452  0.08219  1.0000
  O   O8        1.0  0.44151  0.91781  0.26548  1.0000
