data_image0
_chemical_formula_structural       Cu6H24C30S6N6
_chemical_formula_sum              "Cu6 H24 C30 S6 N6"
_cell_length_a       10.5405
_cell_length_b       10.5404
_cell_length_c       10.2415
_cell_angle_alpha    95.6946
_cell_angle_beta     115.015
_cell_angle_gamma    119.52

_space_group_name_H-M_alt    "P 1"
_space_group_IT_number       1

loop_
  _space_group_symop_operation_xyz
  'x, y, z'

loop_
  _atom_site_type_symbol
  _atom_site_label
  _atom_site_symmetry_multiplicity
  _atom_site_fract_x
  _atom_site_fract_y
  _atom_site_fract_z
  _atom_site_occupancy
  Cu  Cu1       1.0  0.52786  0.27787  0.25000  1.0000
  Cu  Cu2       1.0  0.47213  0.72213  0.75000  1.0000
  Cu  Cu3       1.0  0.65666  0.63333  0.11307  1.0000
  Cu  Cu4       1.0  0.02026  0.54359  0.38693  1.0000
  Cu  Cu5       1.0  0.34334  0.36667  0.88693  1.0000
  Cu  Cu6       1.0  0.97974  0.45641  0.61307  1.0000
  H   H1        1.0  0.22812  0.41866  0.47756  1.0000
  H   H2        1.0  0.44110  0.75056  0.02245  1.0000
  H   H3        1.0  0.77189  0.58135  0.52245  1.0000
  H   H4        1.0  0.55890  0.24944  0.97756  1.0000
  H   H5        1.0  0.38588  0.36052  0.38910  1.0000
  H   H6        1.0  0.47142  0.99678  0.11091  1.0000
  H   H7        1.0  0.61412  0.63948  0.61090  1.0000
  H   H8        1.0  0.52858  0.00323  0.88911  1.0000
  H   H9        1.0  0.27013  0.56447  0.04999  1.0000
  H   H10       1.0  0.01448  0.22015  0.45002  1.0000
  H   H11       1.0  0.72986  0.43553  0.95002  1.0000
  H   H12       1.0  0.98552  0.77985  0.54998  1.0000
  H   H13       1.0  0.10420  0.60253  0.14345  1.0000
  H   H14       1.0  0.95908  0.96075  0.35655  1.0000
  H   H15       1.0  0.89580  0.39747  0.85656  1.0000
  H   H16       1.0  0.04092  0.03925  0.64344  1.0000
  H   H17       1.0  0.50675  0.13263  0.47894  1.0000
  H   H18       1.0  0.15369  0.02780  0.02105  1.0000
  H   H19       1.0  0.49325  0.86736  0.52105  1.0000
  H   H20       1.0  0.84631  0.97220  0.97894  1.0000
  H   H21       1.0  0.28181  0.89819  0.48648  1.0000
  H   H22       1.0  0.91170  0.79532  0.01351  1.0000
  H   H23       1.0  0.71819  0.10181  0.51351  1.0000
  H   H24       1.0  0.08830  0.20468  0.98648  1.0000
  C   C1        1.0  0.23748  0.44711  0.38099  1.0000
  C   C2        1.0  0.56612  0.85649  0.11902  1.0000
  C   C3        1.0  0.76252  0.55289  0.61902  1.0000
  C   C4        1.0  0.43388  0.14351  0.88098  1.0000
  C   C5        1.0  0.32866  0.41755  0.33346  1.0000
  C   C6        1.0  0.58409  0.99520  0.16654  1.0000
  C   C7        1.0  0.67134  0.58245  0.66654  1.0000
  C   C8        1.0  0.41592  0.00480  0.83346  1.0000
  C   C9        1.0  0.34975  0.46470  0.21598  1.0000
  C   C10       1.0  0.74873  0.13377  0.28403  1.0000
  C   C11       1.0  0.65025  0.53530  0.78403  1.0000
  C   C12       1.0  0.25128  0.86623  0.71598  1.0000
  C   C13       1.0  0.26700  0.53344  0.14721  1.0000
  C   C14       1.0  0.88624  0.11980  0.35280  1.0000
  C   C15       1.0  0.73300  0.46656  0.85280  1.0000
  C   C16       1.0  0.11376  0.88020  0.64720  1.0000
  C   C17       1.0  0.17271  0.55318  0.19798  1.0000
  C   C18       1.0  0.85521  0.97473  0.30202  1.0000
  C   C19       1.0  0.82730  0.44682  0.80203  1.0000
  C   C20       1.0  0.14479  0.02527  0.69797  1.0000
  C   C21       1.0  0.37352  0.05352  0.37705  1.0000
  C   C22       1.0  0.17647  0.99647  0.12295  1.0000
  C   C23       1.0  0.62648  0.94648  0.62295  1.0000
  C   C24       1.0  0.82353  0.00353  0.87704  1.0000
  C   C25       1.0  0.24749  0.92311  0.38110  1.0000
  C   C26       1.0  0.04201  0.86639  0.11890  1.0000
  C   C27       1.0  0.75250  0.07689  0.61889  1.0000
  C   C28       1.0  0.95799  0.13361  0.88110  1.0000
  C   C29       1.0  0.07427  0.82427  0.25000  1.0000
  C   C30       1.0  0.92573  0.17573  0.74999  1.0000
  S   S1        1.0  0.47240  0.43715  0.15930  1.0000
  S   S2        1.0  0.77785  0.31310  0.34071  1.0000
  S   S3        1.0  0.52760  0.56285  0.84070  1.0000
  S   S4        1.0  0.22215  0.68690  0.65930  1.0000
  S   S5        1.0  0.91049  0.66049  0.25000  1.0000
  S   S6        1.0  0.08950  0.33950  0.75000  1.0000
  N   N1        1.0  0.15826  0.51325  0.31510  1.0000
  N   N2        1.0  0.69815  0.84317  0.18491  1.0000
  N   N3        1.0  0.84174  0.48676  0.68491  1.0000
  N   N4        1.0  0.30185  0.15683  0.81509  1.0000
  N   N5        1.0  0.34184  0.09184  0.25000  1.0000
  N   N6        1.0  0.65816  0.90815  0.74999  1.0000
