data_image0
_chemical_formula_structural       Co2H16C20S4N4
_chemical_formula_sum              "Co2 H16 C20 S4 N4"
_cell_length_a       7.54532
_cell_length_b       7.54409
_cell_length_c       11.3599
_cell_angle_alpha    73.349
_cell_angle_beta     73.3512
_cell_angle_gamma    84.7524

_space_group_name_H-M_alt    "P 1"
_space_group_IT_number       1

loop_
  _space_group_symop_operation_xyz
  'x, y, z'

loop_
  _atom_site_type_symbol
  _atom_site_label
  _atom_site_symmetry_multiplicity
  _atom_site_fract_x
  _atom_site_fract_y
  _atom_site_fract_z
  _atom_site_occupancy
  Co  Co1       1.0  0.61397  0.38586  0.25000  1.0000
  Co  Co2       1.0  0.38588  0.61390  0.75004  1.0000
  H   H1        1.0  0.31988  0.51704  0.13483  1.0000
  H   H2        1.0  0.48289  0.68027  0.36508  1.0000
  H   H3        1.0  0.68020  0.48279  0.86522  1.0000
  H   H4        1.0  0.51722  0.31966  0.63481  1.0000
  H   H5        1.0  0.98480  0.47543  0.18242  1.0000
  H   H6        1.0  0.52467  0.01534  0.31744  1.0000
  H   H7        1.0  0.01520  0.52468  0.81752  1.0000
  H   H8        1.0  0.47528  0.98465  0.68252  1.0000
  H   H9        1.0  0.99108  0.15178  0.56411  1.0000
  H   H10       1.0  0.84836  0.00896  0.93587  1.0000
  H   H11       1.0  0.00893  0.84827  0.43594  1.0000
  H   H12       1.0  0.15167  0.99098  0.06417  1.0000
  H   H13       1.0  0.32833  0.20333  0.50029  1.0000
  H   H14       1.0  0.79669  0.67175  0.99971  1.0000
  H   H15       1.0  0.67169  0.79664  0.49975  1.0000
  H   H16       1.0  0.20334  0.32824  0.00037  1.0000
  C   C1        1.0  0.24282  0.43533  0.22889  1.0000
  C   C2        1.0  0.56466  0.75721  0.27102  1.0000
  C   C3        1.0  0.75705  0.56465  0.77114  1.0000
  C   C4        1.0  0.43530  0.24290  0.72889  1.0000
  C   C5        1.0  0.05465  0.41203  0.25616  1.0000
  C   C6        1.0  0.58795  0.94544  0.24372  1.0000
  C   C7        1.0  0.94530  0.58796  0.74381  1.0000
  C   C8        1.0  0.41199  0.05464  0.75621  1.0000
  C   C9        1.0  0.95565  0.30621  0.37802  1.0000
  C   C10       1.0  0.69384  0.04450  0.12191  1.0000
  C   C11       1.0  0.04443  0.69377  0.62200  1.0000
  C   C12       1.0  0.30623  0.95552  0.87806  1.0000
  C   C13       1.0  0.05845  0.23325  0.46772  1.0000
  C   C14       1.0  0.76668  0.94171  0.03222  1.0000
  C   C15       1.0  0.94163  0.76671  0.53232  1.0000
  C   C16       1.0  0.23326  0.05832  0.96776  1.0000
  C   C17       1.0  0.24722  0.26175  0.43252  1.0000
  C   C18       1.0  0.73819  0.75289  0.06743  1.0000
  C   C19       1.0  0.75278  0.73823  0.56752  1.0000
  C   C20       1.0  0.26176  0.24718  0.93255  1.0000
  S   S1        1.0  0.72113  0.26382  0.41844  1.0000
  S   S2        1.0  0.73643  0.27899  0.08149  1.0000
  S   S3        1.0  0.27892  0.73630  0.58172  1.0000
  S   S4        1.0  0.26366  0.72105  0.91832  1.0000
  N   N1        1.0  0.34140  0.35946  0.31418  1.0000
  N   N2        1.0  0.64068  0.65857  0.18579  1.0000
  N   N3        1.0  0.65848  0.64055  0.68585  1.0000
  N   N4        1.0  0.35942  0.34148  0.81420  1.0000
