data_image0
_chemical_formula_structural       Cd3H30C18Br6N14
_chemical_formula_sum              "Cd3 H30 C18 Br6 N14"
_cell_length_a       8.0462
_cell_length_b       9.74213
_cell_length_c       10.2278
_cell_angle_alpha    92.5227
_cell_angle_beta     97.5989
_cell_angle_gamma    100.794

_space_group_name_H-M_alt    "P 1"
_space_group_IT_number       1

loop_
  _space_group_symop_operation_xyz
  'x, y, z'

loop_
  _atom_site_type_symbol
  _atom_site_label
  _atom_site_symmetry_multiplicity
  _atom_site_fract_x
  _atom_site_fract_y
  _atom_site_fract_z
  _atom_site_occupancy
  Cd  Cd1       1.0  0.50000  0.50000  0.50000  1.0000
  Cd  Cd2       1.0  0.47790  0.72369  0.16458  1.0000
  Cd  Cd3       1.0  0.52210  0.27631  0.83542  1.0000
  H   H1        1.0  0.83931  0.89320  0.29812  1.0000
  H   H2        1.0  0.16070  0.10680  0.70188  1.0000
  H   H3        1.0  0.01471  0.35571  0.39575  1.0000
  H   H4        1.0  0.98529  0.64429  0.60425  1.0000
  H   H5        1.0  0.83530  0.42703  0.40970  1.0000
  H   H6        1.0  0.16470  0.57297  0.59030  1.0000
  H   H7        1.0  0.21681  0.20144  0.39047  1.0000
  H   H8        1.0  0.78319  0.79856  0.60953  1.0000
  H   H9        1.0  0.11828  0.93773  0.37631  1.0000
  H   H10       1.0  0.88172  0.06226  0.62369  1.0000
  H   H11       1.0  0.26955  0.83025  0.35572  1.0000
  H   H12       1.0  0.73045  0.16975  0.64428  1.0000
  H   H13       1.0  0.04305  0.78821  0.16869  1.0000
  H   H14       1.0  0.95695  0.21179  0.83131  1.0000
  H   H15       1.0  0.07344  0.96779  0.13606  1.0000
  H   H16       1.0  0.92656  0.03221  0.86393  1.0000
  H   H17       1.0  0.33514  0.96105  0.07436  1.0000
  H   H18       1.0  0.66486  0.03895  0.92564  1.0000
  H   H19       1.0  0.28549  0.82444  0.88942  1.0000
  H   H20       1.0  0.71451  0.17556  0.11058  1.0000
  H   H21       1.0  0.07562  0.83682  0.91950  1.0000
  H   H22       1.0  0.92438  0.16318  0.08049  1.0000
  H   H23       1.0  0.06483  0.61128  0.03710  1.0000
  H   H24       1.0  0.93516  0.38872  0.96290  1.0000
  H   H25       1.0  0.06878  0.59316  0.86438  1.0000
  H   H26       1.0  0.93122  0.40684  0.13562  1.0000
  H   H27       1.0  0.36179  0.57781  0.90874  1.0000
  H   H28       1.0  0.63821  0.42219  0.09126  1.0000
  H   H29       1.0  0.27044  0.47580  0.01360  1.0000
  H   H30       1.0  0.72956  0.52419  0.98640  1.0000
  C   C1        1.0  0.77261  0.97728  0.31988  1.0000
  C   C2        1.0  0.22739  0.02272  0.68012  1.0000
  C   C3        1.0  0.52576  0.04614  0.33752  1.0000
  C   C4        1.0  0.47424  0.95387  0.66248  1.0000
  C   C5        1.0  0.60977  0.18481  0.37542  1.0000
  C   C6        1.0  0.39023  0.81519  0.62458  1.0000
  C   C7        1.0  0.79043  0.21330  0.37948  1.0000
  C   C8        1.0  0.20957  0.78670  0.62052  1.0000
  C   C9        1.0  0.34022  0.17660  0.37873  1.0000
  C   C10       1.0  0.65978  0.82339  0.62127  1.0000
  C   C11       1.0  0.21726  0.91931  0.31736  1.0000
  C   C12       1.0  0.78274  0.08068  0.68264  1.0000
  C   C13       1.0  0.13986  0.88490  0.17319  1.0000
  C   C14       1.0  0.86014  0.11509  0.82681  1.0000
  C   C15       1.0  0.19081  0.79654  0.95681  1.0000
  C   C16       1.0  0.80919  0.20346  0.04319  1.0000
  C   C17       1.0  0.14486  0.63783  0.95932  1.0000
  C   C18       1.0  0.85514  0.36217  0.04068  1.0000
  Br  Br1       1.0  0.72461  0.61542  0.32500  1.0000
  Br  Br2       1.0  0.27538  0.38458  0.67500  1.0000
  Br  Br3       1.0  0.24359  0.53990  0.31017  1.0000
  Br  Br4       1.0  0.75641  0.46010  0.68983  1.0000
  Br  Br5       1.0  0.69272  0.79397  0.98166  1.0000
  Br  Br6       1.0  0.30728  0.20603  0.01834  1.0000
  N   N1        1.0  0.86807  0.10387  0.35484  1.0000
  N   N2        1.0  0.13193  0.89613  0.64516  1.0000
  N   N3        1.0  0.60126  0.93908  0.30678  1.0000
  N   N4        1.0  0.39874  0.06092  0.69322  1.0000
  N   N5        1.0  0.88869  0.34020  0.40618  1.0000
  N   N6        1.0  0.11131  0.65980  0.59382  1.0000
  N   N7        1.0  0.48964  0.26461  0.40086  1.0000
  N   N8        1.0  0.51036  0.73539  0.59914  1.0000
  N   N9        1.0  0.35453  0.04312  0.34064  1.0000
  N   N10       1.0  0.64547  0.95688  0.65936  1.0000
  N   N11       1.0  0.26872  0.86307  0.08885  1.0000
  N   N12       1.0  0.73128  0.13693  0.91114  1.0000
  N   N13       1.0  0.29952  0.57801  0.98984  1.0000
  N   N14       1.0  0.70048  0.42198  0.01016  1.0000
