data_image0
_chemical_formula_structural       Cu2H18C16S2N4Cl2O6
_chemical_formula_sum              "Cu2 H18 C16 S2 N4 Cl2 O6"
_cell_length_a       8.29169
_cell_length_b       8.27027
_cell_length_c       9.03642
_cell_angle_alpha    98.8195
_cell_angle_beta     105.065
_cell_angle_gamma    114.665

_space_group_name_H-M_alt    "P 1"
_space_group_IT_number       1

loop_
  _space_group_symop_operation_xyz
  'x, y, z'

loop_
  _atom_site_type_symbol
  _atom_site_label
  _atom_site_symmetry_multiplicity
  _atom_site_fract_x
  _atom_site_fract_y
  _atom_site_fract_z
  _atom_site_occupancy
  Cu  Cu1       1.0  0.71109  0.50334  0.59975  1.0000
  Cu  Cu2       1.0  0.28890  0.49667  0.40025  1.0000
  H   H1        1.0  0.67278  0.83405  0.77062  1.0000
  H   H2        1.0  0.32721  0.16595  0.22937  1.0000
  H   H3        1.0  0.90815  0.08777  0.48814  1.0000
  H   H4        1.0  0.09185  0.91223  0.51186  1.0000
  H   H5        1.0  0.02335  0.33369  0.57889  1.0000
  H   H6        1.0  0.97665  0.66631  0.42112  1.0000
  H   H7        1.0  0.78864  0.27680  0.93401  1.0000
  H   H8        1.0  0.21137  0.72320  0.06599  1.0000
  H   H9        1.0  0.77226  0.49492  0.15869  1.0000
  H   H10       1.0  0.22773  0.50507  0.84131  1.0000
  H   H11       1.0  0.63186  0.05317  0.57608  1.0000
  H   H12       1.0  0.36814  0.94683  0.42391  1.0000
  H   H13       1.0  0.84640  0.12445  0.73399  1.0000
  H   H14       1.0  0.15359  0.87555  0.26601  1.0000
  H   H15       1.0  0.68641  0.95070  0.04996  1.0000
  H   H16       1.0  0.31360  0.04930  0.95005  1.0000
  H   H17       1.0  0.73127  0.77400  0.24622  1.0000
  H   H18       1.0  0.26874  0.22600  0.75378  1.0000
  C   C1        1.0  0.69935  0.76693  0.86181  1.0000
  C   C2        1.0  0.30065  0.23307  0.13819  1.0000
  C   C3        1.0  0.74839  0.52333  0.92198  1.0000
  C   C4        1.0  0.25161  0.47666  0.07802  1.0000
  C   C5        1.0  0.88531  0.20655  0.52579  1.0000
  C   C6        1.0  0.11469  0.79345  0.47421  1.0000
  C   C7        1.0  0.76916  0.36357  0.85797  1.0000
  C   C8        1.0  0.23084  0.63643  0.14204  1.0000
  C   C9        1.0  0.75352  0.57625  0.07789  1.0000
  C   C10       1.0  0.24647  0.42375  0.92211  1.0000
  C   C11       1.0  0.77711  0.16919  0.63975  1.0000
  C   C12       1.0  0.22289  0.83081  0.36025  1.0000
  C   C13       1.0  0.70473  0.82904  0.01675  1.0000
  C   C14       1.0  0.29527  0.17096  0.98325  1.0000
  C   C15       1.0  0.73166  0.73241  0.12584  1.0000
  C   C16       1.0  0.26835  0.26759  0.87416  1.0000
  S   S1        1.0  0.75802  0.22939  0.34425  1.0000
  S   S2        1.0  0.24198  0.77061  0.65575  1.0000
  N   N1        1.0  0.76293  0.32979  0.71220  1.0000
  N   N2        1.0  0.23707  0.67021  0.28780  1.0000
  N   N3        1.0  0.72164  0.61858  0.81633  1.0000
  N   N4        1.0  0.27836  0.38141  0.18366  1.0000
  Cl  Cl1       1.0  0.67273  0.72318  0.49561  1.0000
  Cl  Cl2       1.0  0.32727  0.27682  0.50439  1.0000
  O   O1        1.0  0.73254  0.39718  0.39632  1.0000
  O   O2        1.0  0.26745  0.60282  0.60369  1.0000
  O   O3        1.0  0.57644  0.05798  0.26756  1.0000
  O   O4        1.0  0.42355  0.94202  0.73245  1.0000
  O   O5        1.0  0.88023  0.27033  0.24859  1.0000
  O   O6        1.0  0.11976  0.72968  0.75141  1.0000
