data_image0
_chemical_formula_structural       H24Pb8C56N8O32
_chemical_formula_sum              "H24 Pb8 C56 N8 O32"
_cell_length_a       12.4429
_cell_length_b       12.4429
_cell_length_c       12.4429
_cell_angle_alpha    65.7281
_cell_angle_beta     79.7544
_cell_angle_gamma    114.272

_space_group_name_H-M_alt    "P 1"
_space_group_IT_number       1

loop_
  _space_group_symop_operation_xyz
  'x, y, z'

loop_
  _atom_site_type_symbol
  _atom_site_label
  _atom_site_symmetry_multiplicity
  _atom_site_fract_x
  _atom_site_fract_y
  _atom_site_fract_z
  _atom_site_occupancy
  H   H1        1.0  0.35471  0.03202  0.88472  1.0000
  H   H2        1.0  0.11528  0.26057  0.91675  1.0000
  H   H3        1.0  0.08325  0.46798  0.17732  1.0000
  H   H4        1.0  0.82268  0.23943  0.64529  1.0000
  H   H5        1.0  0.64529  0.96798  0.11527  1.0000
  H   H6        1.0  0.88473  0.73943  0.08325  1.0000
  H   H7        1.0  0.91675  0.53202  0.82268  1.0000
  H   H8        1.0  0.17732  0.76057  0.35471  1.0000
  H   H9        1.0  0.26386  0.86914  0.12720  1.0000
  H   H10       1.0  0.87279  0.10894  0.99635  1.0000
  H   H11       1.0  0.00365  0.63086  0.10528  1.0000
  H   H12       1.0  0.89471  0.39106  0.73614  1.0000
  H   H13       1.0  0.73614  0.13086  0.87279  1.0000
  H   H14       1.0  0.12721  0.89106  0.00365  1.0000
  H   H15       1.0  0.99635  0.36914  0.89471  1.0000
  H   H16       1.0  0.10529  0.60894  0.26386  1.0000
  H   H17       1.0  0.33516  0.70332  0.21472  1.0000
  H   H18       1.0  0.78528  0.95013  0.91804  1.0000
  H   H19       1.0  0.08196  0.79668  0.86816  1.0000
  H   H20       1.0  0.13184  0.54987  0.66484  1.0000
  H   H21       1.0  0.66484  0.29668  0.78528  1.0000
  H   H22       1.0  0.21472  0.04987  0.08196  1.0000
  H   H23       1.0  0.91804  0.20332  0.13184  1.0000
  H   H24       1.0  0.86816  0.45013  0.33516  1.0000
  Pb  Pb1       1.0  0.70315  0.07938  0.43062  1.0000
  Pb  Pb2       1.0  0.56938  0.36623  0.51000  1.0000
  Pb  Pb3       1.0  0.49000  0.42062  0.87623  1.0000
  Pb  Pb4       1.0  0.12377  0.13377  0.29685  1.0000
  Pb  Pb5       1.0  0.29685  0.92062  0.56938  1.0000
  Pb  Pb6       1.0  0.43062  0.63377  0.49000  1.0000
  Pb  Pb7       1.0  0.51000  0.57938  0.12377  1.0000
  Pb  Pb8       1.0  0.87623  0.86623  0.70315  1.0000
  C   C1        1.0  0.52646  0.05309  0.70261  1.0000
  C   C2        1.0  0.29739  0.27093  0.75570  1.0000
  C   C3        1.0  0.24430  0.44691  0.02663  1.0000
  C   C4        1.0  0.97337  0.22907  0.47354  1.0000
  C   C5        1.0  0.47354  0.94691  0.29739  1.0000
  C   C6        1.0  0.70261  0.72907  0.24430  1.0000
  C   C7        1.0  0.75570  0.55309  0.97337  1.0000
  C   C8        1.0  0.02663  0.77093  0.52646  1.0000
  C   C9        1.0  0.50927  0.85861  0.90403  1.0000
  C   C10       1.0  0.09597  0.08670  0.76264  1.0000
  C   C11       1.0  0.23736  0.64139  0.84934  1.0000
  C   C12       1.0  0.15066  0.41330  0.49073  1.0000
  C   C13       1.0  0.49073  0.14139  0.09597  1.0000
  C   C14       1.0  0.90403  0.91330  0.23736  1.0000
  C   C15       1.0  0.76264  0.35861  0.15066  1.0000
  C   C16       1.0  0.84934  0.58670  0.50927  1.0000
  C   C17       1.0  0.47171  0.95209  0.84669  1.0000
  C   C18       1.0  0.15331  0.18160  0.79879  1.0000
  C   C19       1.0  0.20122  0.54791  0.98038  1.0000
  C   C20       1.0  0.01962  0.31840  0.52829  1.0000
  C   C21       1.0  0.52829  0.04791  0.15331  1.0000
  C   C22       1.0  0.84669  0.81840  0.20122  1.0000
  C   C23       1.0  0.79878  0.45209  0.01962  1.0000
  C   C24       1.0  0.98038  0.68160  0.47171  1.0000
  C   C25       1.0  0.38116  0.95591  0.92772  1.0000
  C   C26       1.0  0.07228  0.19113  0.88363  1.0000
  C   C27       1.0  0.11637  0.54409  0.07476  1.0000
  C   C28       1.0  0.92524  0.30887  0.61885  1.0000
  C   C29       1.0  0.61885  0.04409  0.07228  1.0000
  C   C30       1.0  0.92772  0.80888  0.11637  1.0000
  C   C31       1.0  0.88363  0.45591  0.92524  1.0000
  C   C32       1.0  0.07476  0.69113  0.38115  1.0000
  C   C33       1.0  0.62092  0.86300  0.82597  1.0000
  C   C34       1.0  0.17404  0.05311  0.68897  1.0000
  C   C35       1.0  0.31103  0.63699  0.74208  1.0000
  C   C36       1.0  0.25792  0.44689  0.37908  1.0000
  C   C37       1.0  0.37908  0.13700  0.17403  1.0000
  C   C38       1.0  0.82596  0.94689  0.31103  1.0000
  C   C39       1.0  0.68897  0.36301  0.25792  1.0000
  C   C40       1.0  0.74208  0.55311  0.62092  1.0000
  C   C41       1.0  0.33120  0.86650  0.06098  1.0000
  C   C42       1.0  0.93902  0.10782  0.92748  1.0000
  C   C43       1.0  0.07252  0.63350  0.03530  1.0000
  C   C44       1.0  0.96470  0.39218  0.66880  1.0000
  C   C45       1.0  0.66880  0.13350  0.93902  1.0000
  C   C46       1.0  0.06098  0.89218  0.07252  1.0000
  C   C47       1.0  0.92748  0.36650  0.96470  1.0000
  C   C48       1.0  0.03530  0.60782  0.33120  1.0000
  C   C49       1.0  0.36984  0.77286  0.11073  1.0000
  C   C50       1.0  0.88927  0.01943  0.88359  1.0000
  C   C51       1.0  0.11641  0.72714  0.90302  1.0000
  C   C52       1.0  0.09698  0.48057  0.63016  1.0000
  C   C53       1.0  0.63016  0.22714  0.88927  1.0000
  C   C54       1.0  0.11073  0.98057  0.11641  1.0000
  C   C55       1.0  0.88359  0.27286  0.09698  1.0000
  C   C56       1.0  0.90302  0.51943  0.36984  1.0000
  N   N1        1.0  0.45613  0.76911  0.03389  1.0000
  N   N2        1.0  0.96611  0.00998  0.80301  1.0000
  N   N3        1.0  0.19699  0.73088  0.81298  1.0000
  N   N4        1.0  0.18702  0.49002  0.54387  1.0000
  N   N5        1.0  0.54387  0.23089  0.96611  1.0000
  N   N6        1.0  0.03389  0.99002  0.19699  1.0000
  N   N7        1.0  0.80300  0.26911  0.18702  1.0000
  N   N8        1.0  0.81298  0.50998  0.45613  1.0000
  O   O1        1.0  0.49232  0.00352  0.63503  1.0000
  O   O2        1.0  0.36497  0.37266  0.63855  1.0000
  O   O3        1.0  0.36145  0.49648  0.01121  1.0000
  O   O4        1.0  0.98879  0.12734  0.50769  1.0000
  O   O5        1.0  0.50769  0.99648  0.36497  1.0000
  O   O6        1.0  0.63503  0.62734  0.36145  1.0000
  O   O7        1.0  0.63855  0.50352  0.98879  1.0000
  O   O8        1.0  0.01121  0.87266  0.49231  1.0000
  O   O9        1.0  0.59818  0.18144  0.66333  1.0000
  O   O10       1.0  0.33667  0.23850  0.84477  1.0000
  O   O11       1.0  0.15523  0.31856  0.08327  1.0000
  O   O12       1.0  0.91673  0.26150  0.40183  1.0000
  O   O13       1.0  0.40182  0.81856  0.33667  1.0000
  O   O14       1.0  0.66333  0.76151  0.15523  1.0000
  O   O15       1.0  0.84477  0.68144  0.91674  1.0000
  O   O16       1.0  0.08327  0.73849  0.59818  1.0000
  O   O17       1.0  0.69086  0.96145  0.70875  1.0000
  O   O18       1.0  0.29125  0.10039  0.67020  1.0000
  O   O19       1.0  0.32980  0.53855  0.77059  1.0000
  O   O20       1.0  0.22941  0.39961  0.30914  1.0000
  O   O21       1.0  0.30914  0.03855  0.29125  1.0000
  O   O22       1.0  0.70874  0.89961  0.32980  1.0000
  O   O23       1.0  0.67020  0.46146  0.22940  1.0000
  O   O24       1.0  0.77059  0.60039  0.69086  1.0000
  O   O25       1.0  0.64415  0.76919  0.88705  1.0000
  O   O26       1.0  0.11295  0.96880  0.65625  1.0000
  O   O27       1.0  0.34375  0.73081  0.62504  1.0000
  O   O28       1.0  0.37496  0.53120  0.35585  1.0000
  O   O29       1.0  0.35585  0.23081  0.11295  1.0000
  O   O30       1.0  0.88705  0.03120  0.34375  1.0000
  O   O31       1.0  0.65625  0.26919  0.37495  1.0000
  O   O32       1.0  0.62504  0.46880  0.64415  1.0000
