data_image0
_chemical_formula_structural       H20Pb2C28N4O18
_chemical_formula_sum              "H20 Pb2 C28 N4 O18"
_cell_length_a       6.68988
_cell_length_b       6.73646
_cell_length_c       17.3833
_cell_angle_alpha    87.4625
_cell_angle_beta     81.6129
_cell_angle_gamma    84.8825

_space_group_name_H-M_alt    "P 1"
_space_group_IT_number       1

loop_
  _space_group_symop_operation_xyz
  'x, y, z'

loop_
  _atom_site_type_symbol
  _atom_site_label
  _atom_site_symmetry_multiplicity
  _atom_site_fract_x
  _atom_site_fract_y
  _atom_site_fract_z
  _atom_site_occupancy
  H   H1        1.0  0.79262  0.24103  0.98790  1.0000
  H   H2        1.0  0.20738  0.75900  0.01208  1.0000
  H   H3        1.0  0.62610  0.15707  0.87393  1.0000
  H   H4        1.0  0.37390  0.84297  0.12607  1.0000
  H   H5        1.0  0.05080  0.26144  0.02050  1.0000
  H   H6        1.0  0.94919  0.73854  0.97951  1.0000
  H   H7        1.0  0.24043  0.79609  0.41954  1.0000
  H   H8        1.0  0.75963  0.20387  0.58047  1.0000
  H   H9        1.0  0.28710  0.99312  0.53179  1.0000
  H   H10       1.0  0.71296  0.00685  0.46822  1.0000
  H   H11       1.0  0.20473  0.52524  0.38760  1.0000
  H   H12       1.0  0.79524  0.47476  0.61241  1.0000
  H   H13       1.0  0.97883  0.06994  0.84117  1.0000
  H   H14       1.0  0.02116  0.93005  0.15884  1.0000
  H   H15       1.0  0.30721  0.39517  0.64281  1.0000
  H   H16       1.0  0.69279  0.60482  0.35719  1.0000
  H   H17       1.0  0.69799  0.31582  0.33856  1.0000
  H   H18       1.0  0.30198  0.68416  0.66144  1.0000
  H   H19       1.0  0.61730  0.41650  0.26105  1.0000
  H   H20       1.0  0.38272  0.58348  0.73895  1.0000
  Pb  Pb1       1.0  0.09761  0.41931  0.20628  1.0000
  Pb  Pb2       1.0  0.90249  0.58070  0.79369  1.0000
  C   C1        1.0  0.50813  0.29623  0.06218  1.0000
  C   C2        1.0  0.49186  0.70383  0.93782  1.0000
  C   C3        1.0  0.62915  0.24524  0.99247  1.0000
  C   C4        1.0  0.37085  0.75483  0.00753  1.0000
  C   C5        1.0  0.53803  0.19924  0.92944  1.0000
  C   C6        1.0  0.46197  0.80077  0.07056  1.0000
  C   C7        1.0  0.32711  0.20282  0.93783  1.0000
  C   C8        1.0  0.67289  0.79720  0.06217  1.0000
  C   C9        1.0  0.21569  0.25589  0.00974  1.0000
  C   C10       1.0  0.78429  0.74413  0.99026  1.0000
  C   C11       1.0  0.60594  0.34821  0.13115  1.0000
  C   C12       1.0  0.39403  0.65181  0.86885  1.0000
  C   C13       1.0  0.23335  0.14309  0.87026  1.0000
  C   C14       1.0  0.76666  0.85691  0.12974  1.0000
  C   C15       1.0  0.19256  0.05676  0.34546  1.0000
  C   C16       1.0  0.80743  0.94320  0.65454  1.0000
  C   C17       1.0  0.23253  0.95736  0.41425  1.0000
  C   C18       1.0  0.76749  0.04258  0.58576  1.0000
  C   C19       1.0  0.25990  0.06770  0.47703  1.0000
  C   C20       1.0  0.74013  0.93226  0.52298  1.0000
  C   C21       1.0  0.25053  0.27549  0.46910  1.0000
  C   C22       1.0  0.74943  0.72448  0.53090  1.0000
  C   C23       1.0  0.21272  0.36399  0.39761  1.0000
  C   C24       1.0  0.78727  0.63598  0.60239  1.0000
  C   C25       1.0  0.15460  0.94139  0.27708  1.0000
  C   C26       1.0  0.84542  0.05860  0.72292  1.0000
  C   C27       1.0  0.27333  0.40293  0.53481  1.0000
  C   C28       1.0  0.72664  0.59708  0.46519  1.0000
  N   N1        1.0  0.30445  0.30205  0.07006  1.0000
  N   N2        1.0  0.69553  0.69798  0.92993  1.0000
  N   N3        1.0  0.18313  0.25732  0.33786  1.0000
  N   N4        1.0  0.81685  0.74264  0.66214  1.0000
  O   O1        1.0  0.48779  0.39509  0.19401  1.0000
  O   O2        1.0  0.51217  0.60489  0.80599  1.0000
  O   O3        1.0  0.79625  0.34424  0.12187  1.0000
  O   O4        1.0  0.20371  0.65582  0.87815  1.0000
  O   O5        1.0  0.03173  0.13976  0.88557  1.0000
  O   O6        1.0  0.96828  0.86024  0.11442  1.0000
  O   O7        1.0  0.33506  0.09913  0.80778  1.0000
  O   O8        1.0  0.66495  0.90091  0.19221  1.0000
  O   O9        1.0  0.11186  0.04570  0.21639  1.0000
  O   O10       1.0  0.88815  0.95430  0.78360  1.0000
  O   O11       1.0  0.16431  0.75523  0.28326  1.0000
  O   O12       1.0  0.83570  0.24476  0.71674  1.0000
  O   O13       1.0  0.26204  0.58716  0.52929  1.0000
  O   O14       1.0  0.73796  0.41282  0.47072  1.0000
  O   O15       1.0  0.30280  0.29751  0.59925  1.0000
  O   O16       1.0  0.69719  0.70250  0.40075  1.0000
  O   O17       1.0  0.71301  0.42795  0.30136  1.0000
  O   O18       1.0  0.28698  0.57204  0.69865  1.0000
