data_image0
_chemical_formula_structural       Zn2H16C16N8Cl4
_chemical_formula_sum              "Zn2 H16 C16 N8 Cl4"
_cell_length_a       7.3019
_cell_length_b       7.30194
_cell_length_c       10.2058
_cell_angle_alpha    89.9999
_cell_angle_beta     90.0006
_cell_angle_gamma    91.6648

_space_group_name_H-M_alt    "P 1"
_space_group_IT_number       1

loop_
  _space_group_symop_operation_xyz
  'x, y, z'

loop_
  _atom_site_type_symbol
  _atom_site_label
  _atom_site_symmetry_multiplicity
  _atom_site_fract_x
  _atom_site_fract_y
  _atom_site_fract_z
  _atom_site_occupancy
  Zn  Zn1       1.0  0.75000  0.25000  0.75000  1.0000
  Zn  Zn2       1.0  0.25000  0.75000  0.25000  1.0000
  H   H1        1.0  0.34414  0.13101  0.81313  1.0000
  H   H2        1.0  0.15586  0.36899  0.81313  1.0000
  H   H3        1.0  0.86898  0.65586  0.68687  1.0000
  H   H4        1.0  0.63101  0.84414  0.68687  1.0000
  H   H5        1.0  0.65586  0.86898  0.18687  1.0000
  H   H6        1.0  0.84414  0.63101  0.18687  1.0000
  H   H7        1.0  0.13101  0.34414  0.31313  1.0000
  H   H8        1.0  0.36898  0.15586  0.31313  1.0000
  H   H9        1.0  0.83184  0.03785  0.01095  1.0000
  H   H10       1.0  0.66817  0.46214  0.01095  1.0000
  H   H11       1.0  0.96215  0.16817  0.48905  1.0000
  H   H12       1.0  0.53785  0.33184  0.48905  1.0000
  H   H13       1.0  0.16817  0.96214  0.98905  1.0000
  H   H14       1.0  0.33183  0.53785  0.98905  1.0000
  H   H15       1.0  0.03785  0.83184  0.51095  1.0000
  H   H16       1.0  0.46214  0.66817  0.51095  1.0000
  C   C1        1.0  0.41420  0.07257  0.89678  1.0000
  C   C2        1.0  0.08581  0.42743  0.89679  1.0000
  C   C3        1.0  0.92743  0.58581  0.60322  1.0000
  C   C4        1.0  0.57257  0.91419  0.60322  1.0000
  C   C5        1.0  0.58581  0.92743  0.10322  1.0000
  C   C6        1.0  0.91419  0.57257  0.10322  1.0000
  C   C7        1.0  0.07257  0.41419  0.39679  1.0000
  C   C8        1.0  0.42743  0.08580  0.39678  1.0000
  C   C9        1.0  0.68323  0.02165  0.00583  1.0000
  C   C10       1.0  0.81677  0.47835  0.00583  1.0000
  C   C11       1.0  0.97835  0.31677  0.49417  1.0000
  C   C12       1.0  0.52165  0.18323  0.49416  1.0000
  C   C13       1.0  0.31677  0.97835  0.99417  1.0000
  C   C14       1.0  0.18323  0.52165  0.99417  1.0000
  C   C15       1.0  0.02165  0.68323  0.50583  1.0000
  C   C16       1.0  0.47835  0.81677  0.50583  1.0000
  N   N1        1.0  0.59698  0.09416  0.90300  1.0000
  N   N2        1.0  0.90303  0.40584  0.90300  1.0000
  N   N3        1.0  0.90584  0.40303  0.59700  1.0000
  N   N4        1.0  0.59416  0.09697  0.59699  1.0000
  N   N5        1.0  0.40302  0.90584  0.09700  1.0000
  N   N6        1.0  0.09698  0.59416  0.09700  1.0000
  N   N7        1.0  0.09416  0.59697  0.40300  1.0000
  N   N8        1.0  0.40584  0.90302  0.40301  1.0000
  Cl  Cl1       1.0  0.51790  0.48210  0.75000  1.0000
  Cl  Cl2       1.0  0.98210  0.01790  0.75000  1.0000
  Cl  Cl3       1.0  0.48210  0.51790  0.25000  1.0000
  Cl  Cl4       1.0  0.01789  0.98211  0.25000  1.0000
