data_image0
_chemical_formula_structural       Zn4H22C24N22O12
_chemical_formula_sum              "Zn4 H22 C24 N22 O12"
_cell_length_a       9.5702
_cell_length_b       9.67923
_cell_length_c       10.7208
_cell_angle_alpha    99.0298
_cell_angle_beta     116.508
_cell_angle_gamma    89.9886

_space_group_name_H-M_alt    "P 1"
_space_group_IT_number       1

loop_
  _space_group_symop_operation_xyz
  'x, y, z'

loop_
  _atom_site_type_symbol
  _atom_site_label
  _atom_site_symmetry_multiplicity
  _atom_site_fract_x
  _atom_site_fract_y
  _atom_site_fract_z
  _atom_site_occupancy
  Zn  Zn1       1.0  0.49535  0.90625  0.62410  1.0000
  Zn  Zn2       1.0  0.87123  0.59377  0.37594  1.0000
  Zn  Zn3       1.0  0.50465  0.09376  0.37590  1.0000
  Zn  Zn4       1.0  0.12877  0.40623  0.62406  1.0000
  H   H1        1.0  0.24859  0.43878  0.40746  1.0000
  H   H2        1.0  0.84100  0.06107  0.59245  1.0000
  H   H3        1.0  0.75141  0.56122  0.59254  1.0000
  H   H4        1.0  0.15899  0.93894  0.40755  1.0000
  H   H5        1.0  0.41218  0.38788  0.39240  1.0000
  H   H6        1.0  0.01968  0.11211  0.60762  1.0000
  H   H7        1.0  0.58782  0.61213  0.60760  1.0000
  H   H8        1.0  0.98031  0.88789  0.39239  1.0000
  H   H9        1.0  0.25336  0.19882  0.80904  1.0000
  H   H10       1.0  0.44437  0.30122  0.19099  1.0000
  H   H11       1.0  0.74664  0.80118  0.19096  1.0000
  H   H12       1.0  0.55564  0.69878  0.80901  1.0000
  H   H13       1.0  0.33945  0.04397  0.80523  1.0000
  H   H14       1.0  0.53414  0.45613  0.19483  1.0000
  H   H15       1.0  0.66055  0.95604  0.19478  1.0000
  H   H16       1.0  0.46586  0.54387  0.80516  1.0000
  H   H17       1.0  0.10861  0.88196  0.83968  1.0000
  H   H18       1.0  0.26889  0.61786  0.16032  1.0000
  H   H19       1.0  0.89138  0.11802  0.16030  1.0000
  H   H20       1.0  0.73111  0.38214  0.83968  1.0000
  H   H21       1.0  0.80120  0.74993  0.99992  1.0000
  H   H22       1.0  0.19880  0.25008  0.00007  1.0000
  C   C1        1.0  0.36419  0.28787  0.52472  1.0000
  C   C2        1.0  0.83939  0.21227  0.47550  1.0000
  C   C3        1.0  0.63581  0.71214  0.47529  1.0000
  C   C4        1.0  0.16061  0.78774  0.52451  1.0000
  C   C5        1.0  0.33725  0.16535  0.66584  1.0000
  C   C6        1.0  0.67136  0.33480  0.33431  1.0000
  C   C7        1.0  0.66275  0.83465  0.33417  1.0000
  C   C8        1.0  0.32864  0.66521  0.66570  1.0000
  C   C9        1.0  0.94020  0.82249  0.90832  1.0000
  C   C10       1.0  0.03187  0.67733  0.09162  1.0000
  C   C11       1.0  0.05979  0.17749  0.09167  1.0000
  C   C12       1.0  0.96812  0.32266  0.90837  1.0000
  C   C13       1.0  0.08670  0.82504  0.90979  1.0000
  C   C14       1.0  0.17691  0.67484  0.09025  1.0000
  C   C15       1.0  0.91330  0.17494  0.09019  1.0000
  C   C16       1.0  0.82309  0.32515  0.90974  1.0000
  C   C17       1.0  0.20156  0.74997  0.00006  1.0000
  C   C18       1.0  0.79843  0.25002  0.99993  1.0000
  C   C19       1.0  0.91474  0.74991  0.99996  1.0000
  C   C20       1.0  0.08526  0.25008  0.00004  1.0000
  C   C21       1.0  0.80988  0.89430  0.80644  1.0000
  C   C22       1.0  0.00342  0.60529  0.19340  1.0000
  C   C23       1.0  0.19012  0.10569  0.19356  1.0000
  C   C24       1.0  0.99659  0.39471  0.80661  1.0000
  N   N1        1.0  0.43434  0.09983  0.62215  1.0000
  N   N2        1.0  0.81214  0.40031  0.37807  1.0000
  N   N3        1.0  0.56567  0.90018  0.37786  1.0000
  N   N4        1.0  0.18786  0.59969  0.62194  1.0000
  N   N5        1.0  0.45181  0.17885  0.53013  1.0000
  N   N6        1.0  0.92160  0.32131  0.47012  1.0000
  N   N7        1.0  0.54819  0.82116  0.46988  1.0000
  N   N8        1.0  0.07840  0.67870  0.52989  1.0000
  N   N9        1.0  0.29235  0.28415  0.60979  1.0000
  N   N10       1.0  0.68248  0.21601  0.39035  1.0000
  N   N11       1.0  0.70766  0.71586  0.39021  1.0000
  N   N12       1.0  0.31752  0.78399  0.60965  1.0000
  N   N13       1.0  0.35045  0.39052  0.44918  1.0000
  N   N14       1.0  0.90118  0.10956  0.55089  1.0000
  N   N15       1.0  0.64955  0.60948  0.55083  1.0000
  N   N16       1.0  0.09882  0.89044  0.44911  1.0000
  N   N17       1.0  0.28137  0.11979  0.75065  1.0000
  N   N18       1.0  0.53066  0.38030  0.24940  1.0000
  N   N19       1.0  0.71864  0.88021  0.24935  1.0000
  N   N20       1.0  0.46934  0.61970  0.75060  1.0000
  N   N21       1.0  0.35441  0.74994  0.00013  1.0000
  N   N22       1.0  0.64558  0.25006  0.99987  1.0000
  O   O1        1.0  0.83624  0.96917  0.73352  1.0000
  O   O2        1.0  0.10242  0.52991  0.26580  1.0000
  O   O3        1.0  0.16376  0.03083  0.26648  1.0000
  O   O4        1.0  0.89758  0.47010  0.73421  1.0000
  O   O5        1.0  0.67299  0.86890  0.80041  1.0000
  O   O6        1.0  0.87279  0.63102  0.19976  1.0000
  O   O7        1.0  0.32701  0.13109  0.19959  1.0000
  O   O8        1.0  0.12721  0.36899  0.80025  1.0000
  O   O9        1.0  0.43957  0.65464  0.04741  1.0000
  O   O10       1.0  0.39240  0.84523  0.95289  1.0000
  O   O11       1.0  0.56043  0.34536  0.95260  1.0000
  O   O12       1.0  0.60759  0.15478  0.04711  1.0000
