data_image0
_chemical_formula_structural       Cd2H20C36N20
_chemical_formula_sum              "Cd2 H20 C36 N20"
_cell_length_a       9.78614
_cell_length_b       9.64425
_cell_length_c       9.76164
_cell_angle_alpha    89.9894
_cell_angle_beta     107.516
_cell_angle_gamma    90.009

_space_group_name_H-M_alt    "P 1"
_space_group_IT_number       1

loop_
  _space_group_symop_operation_xyz
  'x, y, z'

loop_
  _atom_site_type_symbol
  _atom_site_label
  _atom_site_symmetry_multiplicity
  _atom_site_fract_x
  _atom_site_fract_y
  _atom_site_fract_z
  _atom_site_occupancy
  Cd  Cd1       1.0  0.50001  0.50001  0.50002  1.0000
  Cd  Cd2       1.0  0.00000  0.99997  1.00000  1.0000
  H   H1        1.0  0.35897  0.37148  0.75632  1.0000
  H   H2        1.0  0.14109  0.87130  0.74383  1.0000
  H   H3        1.0  0.64111  0.62866  0.24378  1.0000
  H   H4        1.0  0.85905  0.12850  0.25629  1.0000
  H   H5        1.0  0.20089  0.72842  0.36733  1.0000
  H   H6        1.0  0.29904  0.22856  0.13242  1.0000
  H   H7        1.0  0.79898  0.27148  0.63254  1.0000
  H   H8        1.0  0.70081  0.77157  0.86740  1.0000
  H   H9        1.0  0.96504  0.83999  0.32981  1.0000
  H   H10       1.0  0.53489  0.34015  0.16990  1.0000
  H   H11       1.0  0.03481  0.15985  0.67007  1.0000
  H   H12       1.0  0.46493  0.66004  0.82993  1.0000
  H   H13       1.0  0.81955  0.80061  0.49423  1.0000
  H   H14       1.0  0.68054  0.30053  0.00569  1.0000
  H   H15       1.0  0.18043  0.19940  0.50580  1.0000
  H   H16       1.0  0.31944  0.69949  0.99433  1.0000
  H   H17       1.0  0.90064  0.63109  0.69790  1.0000
  H   H18       1.0  0.59952  0.13084  0.80222  1.0000
  H   H19       1.0  0.09945  0.36905  0.30225  1.0000
  H   H20       1.0  0.40059  0.86903  0.19792  1.0000
  C   C1        1.0  0.28156  0.44773  0.69711  1.0000
  C   C2        1.0  0.21848  0.94759  0.80298  1.0000
  C   C3        1.0  0.71850  0.55238  0.30297  1.0000
  C   C4        1.0  0.78162  0.05227  0.19711  1.0000
  C   C5        1.0  0.09063  0.57292  0.63703  1.0000
  C   C6        1.0  0.40942  0.07283  0.86301  1.0000
  C   C7        1.0  0.90940  0.42714  0.36305  1.0000
  C   C8        1.0  0.59064  0.92711  0.13705  1.0000
  C   C9        1.0  0.17608  0.60145  0.54147  1.0000
  C   C10       1.0  0.32392  0.10145  0.95847  1.0000
  C   C11       1.0  0.82391  0.39856  0.45853  1.0000
  C   C12       1.0  0.67607  0.89856  0.04151  1.0000
  C   C13       1.0  0.13527  0.70011  0.43520  1.0000
  C   C14       1.0  0.36467  0.20018  0.06463  1.0000
  C   C15       1.0  0.86464  0.29983  0.56473  1.0000
  C   C16       1.0  0.63522  0.79990  0.93527  1.0000
  C   C17       1.0  0.00094  0.76478  0.41653  1.0000
  C   C18       1.0  0.49903  0.26487  0.08327  1.0000
  C   C19       1.0  0.99896  0.23513  0.58340  1.0000
  C   C20       1.0  0.50086  0.73525  0.91662  1.0000
  C   C21       1.0  0.91864  0.74246  0.51152  1.0000
  C   C22       1.0  0.58141  0.24243  0.98840  1.0000
  C   C23       1.0  0.08135  0.25753  0.48850  1.0000
  C   C24       1.0  0.41857  0.75760  0.01161  1.0000
  C   C25       1.0  0.96057  0.64708  0.62188  1.0000
  C   C26       1.0  0.53951  0.14694  0.87815  1.0000
  C   C27       1.0  0.03947  0.35299  0.37821  1.0000
  C   C28       1.0  0.46053  0.85300  0.12193  1.0000
  C   C29       1.0  0.24560  0.52642  0.18934  1.0000
  C   C30       1.0  0.25449  0.02676  0.31070  1.0000
  C   C31       1.0  0.75442  0.47354  0.81064  1.0000
  C   C32       1.0  0.74552  0.97328  0.68923  1.0000
  C   C33       1.0  0.06809  0.66898  0.04106  1.0000
  C   C34       1.0  0.43202  0.16920  0.45915  1.0000
  C   C35       1.0  0.93193  0.33094  0.95891  1.0000
  C   C36       1.0  0.56796  0.83088  0.54079  1.0000
  N   N1        1.0  0.29974  0.51830  0.58799  1.0000
  N   N2        1.0  0.20024  0.01827  0.91198  1.0000
  N   N3        1.0  0.70025  0.48173  0.41203  1.0000
  N   N4        1.0  0.79977  0.98168  0.08801  1.0000
  N   N5        1.0  0.15678  0.47773  0.73457  1.0000
  N   N6        1.0  0.34331  0.97755  0.76555  1.0000
  N   N7        1.0  0.84331  0.52240  0.26555  1.0000
  N   N8        1.0  0.65682  0.02230  0.23457  1.0000
  N   N9        1.0  0.11816  0.56264  0.11862  1.0000
  N   N10       1.0  0.38193  0.06305  0.38132  1.0000
  N   N11       1.0  0.88187  0.43724  0.88128  1.0000
  N   N12       1.0  0.61807  0.93710  0.61849  1.0000
  N   N13       1.0  0.35595  0.47895  0.26015  1.0000
  N   N14       1.0  0.14414  0.97925  0.23992  1.0000
  N   N15       1.0  0.64409  0.52107  0.73989  1.0000
  N   N16       1.0  0.85588  0.02070  0.76008  1.0000
  N   N17       1.0  0.00931  0.76109  0.96624  1.0000
  N   N18       1.0  0.49083  0.26117  0.53418  1.0000
  N   N19       1.0  0.99071  0.23886  0.03377  1.0000
  N   N20       1.0  0.50913  0.73886  0.46586  1.0000
