data_image0
_chemical_formula_structural       Co2H12C8O12
_chemical_formula_sum              "Co2 H12 C8 O12"
_cell_length_a       6.79774
_cell_length_b       7.86677
_cell_length_c       7.8393
_cell_angle_alpha    121.242
_cell_angle_beta     100.297
_cell_angle_gamma    100.457

_space_group_name_H-M_alt    "P 1"
_space_group_IT_number       1

loop_
  _space_group_symop_operation_xyz
  'x, y, z'

loop_
  _atom_site_type_symbol
  _atom_site_label
  _atom_site_symmetry_multiplicity
  _atom_site_fract_x
  _atom_site_fract_y
  _atom_site_fract_z
  _atom_site_occupancy
  Co  Co1       1.0  0.48303  0.14066  0.85019  1.0000
  Co  Co2       1.0  0.98192  0.85009  0.13967  1.0000
  H   H1        1.0  0.49496  0.51034  0.03046  1.0000
  H   H2        1.0  0.00124  0.03580  0.51337  1.0000
  H   H3        1.0  0.24935  0.43697  0.97505  1.0000
  H   H4        1.0  0.75602  0.98188  0.43985  1.0000
  H   H5        1.0  0.85586  0.43756  0.14853  1.0000
  H   H6        1.0  0.35642  0.14732  0.43560  1.0000
  H   H7        1.0  0.81637  0.20314  0.09371  1.0000
  H   H8        1.0  0.31625  0.09565  0.20305  1.0000
  H   H9        1.0  0.28446  0.47284  0.64927  1.0000
  H   H10       1.0  0.78838  0.65210  0.47559  1.0000
  H   H11       1.0  0.22552  0.46742  0.34316  1.0000
  H   H12       1.0  0.73216  0.34479  0.46701  1.0000
  C   C1        1.0  0.26378  0.77688  0.87383  1.0000
  C   C2        1.0  0.76242  0.87175  0.77852  1.0000
  C   C3        1.0  0.26839  0.61483  0.66378  1.0000
  C   C4        1.0  0.77144  0.66433  0.61690  1.0000
  C   C5        1.0  0.22882  0.60911  0.48665  1.0000
  C   C6        1.0  0.73320  0.48652  0.60903  1.0000
  C   C7        1.0  0.16191  0.76129  0.45385  1.0000
  C   C8        1.0  0.66644  0.45167  0.76045  1.0000
  O   O1        1.0  0.35892  0.97336  0.96779  1.0000
  O   O2        1.0  0.85936  0.96960  0.97647  1.0000
  O   O3        1.0  0.15846  0.70081  0.95248  1.0000
  O   O4        1.0  0.65159  0.94475  0.70091  1.0000
  O   O5        1.0  0.20393  0.95611  0.60050  1.0000
  O   O6        1.0  0.70401  0.59847  0.95480  1.0000
  O   O7        1.0  0.04868  0.68156  0.26418  1.0000
  O   O8        1.0  0.55872  0.26111  0.68144  1.0000
  O   O9        1.0  0.74770  0.31235  0.11638  1.0000
  O   O10       1.0  0.24843  0.12085  0.31372  1.0000
  O   O11       1.0  0.37569  0.41088  0.02453  1.0000
  O   O12       1.0  0.88314  0.03430  0.41639  1.0000
