data_image0
_chemical_formula_structural       Zn4H36C60N12O16
_chemical_formula_sum              "Zn4 H36 C60 N12 O16"
_cell_length_a       8.37648
_cell_length_b       10.9799
_cell_length_c       14.7712
_cell_angle_alpha    89.9999
_cell_angle_beta     90.0565
_cell_angle_gamma    90.0001

_space_group_name_H-M_alt    "P 1"
_space_group_IT_number       1

loop_
  _space_group_symop_operation_xyz
  'x, y, z'

loop_
  _atom_site_type_symbol
  _atom_site_label
  _atom_site_symmetry_multiplicity
  _atom_site_fract_x
  _atom_site_fract_y
  _atom_site_fract_z
  _atom_site_occupancy
  Zn  Zn1       1.0  0.39940  0.65064  0.48072  1.0000
  Zn  Zn2       1.0  0.10060  0.15064  0.01928  1.0000
  Zn  Zn3       1.0  0.60060  0.34936  0.51928  1.0000
  Zn  Zn4       1.0  0.89940  0.84936  0.98072  1.0000
  H   H1        1.0  0.66920  0.90861  0.66935  1.0000
  H   H2        1.0  0.83079  0.40861  0.83065  1.0000
  H   H3        1.0  0.33080  0.09139  0.33065  1.0000
  H   H4        1.0  0.16920  0.59138  0.16935  1.0000
  H   H5        1.0  0.21099  0.79755  0.76952  1.0000
  H   H6        1.0  0.28900  0.29755  0.73048  1.0000
  H   H7        1.0  0.78901  0.20245  0.23049  1.0000
  H   H8        1.0  0.71099  0.70245  0.26952  1.0000
  H   H9        1.0  0.48821  0.05907  0.91899  1.0000
  H   H10       1.0  0.01179  0.55907  0.58101  1.0000
  H   H11       1.0  0.51179  0.94093  0.08101  1.0000
  H   H12       1.0  0.98821  0.44093  0.41899  1.0000
  H   H13       1.0  0.72876  0.14185  0.85572  1.0000
  H   H14       1.0  0.77123  0.64185  0.64428  1.0000
  H   H15       1.0  0.27123  0.85815  0.14428  1.0000
  H   H16       1.0  0.22877  0.35815  0.35572  1.0000
  H   H17       1.0  0.84891  0.01820  0.82259  1.0000
  H   H18       1.0  0.65109  0.51820  0.67741  1.0000
  H   H19       1.0  0.15109  0.98180  0.17741  1.0000
  H   H20       1.0  0.34891  0.48180  0.32259  1.0000
  H   H21       1.0  0.07694  0.99213  0.73417  1.0000
  H   H22       1.0  0.42306  0.49213  0.76583  1.0000
  H   H23       1.0  0.92306  0.00787  0.26583  1.0000
  H   H24       1.0  0.57694  0.50787  0.23417  1.0000
  H   H25       1.0  0.27990  0.01400  0.61179  1.0000
  H   H26       1.0  0.22010  0.51400  0.88821  1.0000
  H   H27       1.0  0.72010  0.98600  0.38821  1.0000
  H   H28       1.0  0.77991  0.48600  0.11179  1.0000
  H   H29       1.0  0.23054  0.14230  0.47763  1.0000
  H   H30       1.0  0.26946  0.64230  0.02237  1.0000
  H   H31       1.0  0.76946  0.85770  0.52237  1.0000
  H   H32       1.0  0.73054  0.35770  0.97763  1.0000
  H   H33       1.0  0.96847  0.25034  0.45665  1.0000
  H   H34       1.0  0.53153  0.75034  0.04335  1.0000
  H   H35       1.0  0.03153  0.74966  0.54335  1.0000
  H   H36       1.0  0.46847  0.24966  0.95665  1.0000
  C   C1        1.0  0.59629  0.99223  0.79584  1.0000
  C   C2        1.0  0.90371  0.49222  0.70416  1.0000
  C   C3        1.0  0.40371  0.00778  0.20416  1.0000
  C   C4        1.0  0.09628  0.50777  0.29584  1.0000
  C   C5        1.0  0.57769  0.91411  0.72170  1.0000
  C   C6        1.0  0.92231  0.41411  0.77830  1.0000
  C   C7        1.0  0.42231  0.08589  0.27831  1.0000
  C   C8        1.0  0.07768  0.58589  0.22170  1.0000
  C   C9        1.0  0.43925  0.84405  0.71218  1.0000
  C   C10       1.0  0.06075  0.34405  0.78782  1.0000
  C   C11       1.0  0.56075  0.15595  0.28782  1.0000
  C   C12       1.0  0.93925  0.65594  0.21219  1.0000
  C   C13       1.0  0.31924  0.85131  0.77772  1.0000
  C   C14       1.0  0.18075  0.35131  0.72228  1.0000
  C   C15       1.0  0.68076  0.14870  0.22228  1.0000
  C   C16       1.0  0.81924  0.64869  0.27772  1.0000
  C   C17       1.0  0.33745  0.92854  0.85206  1.0000
  C   C18       1.0  0.16254  0.42854  0.64793  1.0000
  C   C19       1.0  0.66255  0.07146  0.14794  1.0000
  C   C20       1.0  0.83745  0.57146  0.35206  1.0000
  C   C21       1.0  0.47646  0.99846  0.86114  1.0000
  C   C22       1.0  0.02354  0.49846  0.63886  1.0000
  C   C23       1.0  0.52354  0.00154  0.13886  1.0000
  C   C24       1.0  0.97645  0.50153  0.36114  1.0000
  C   C25       1.0  0.74296  0.07146  0.80375  1.0000
  C   C26       1.0  0.75704  0.57146  0.69625  1.0000
  C   C27       1.0  0.25704  0.92854  0.19625  1.0000
  C   C28       1.0  0.24296  0.42853  0.30375  1.0000
  C   C29       1.0  0.88257  0.18766  0.58714  1.0000
  C   C30       1.0  0.61743  0.68766  0.91285  1.0000
  C   C31       1.0  0.11743  0.81234  0.41285  1.0000
  C   C32       1.0  0.38257  0.31234  0.08715  1.0000
  C   C33       1.0  0.91321  0.11473  0.66403  1.0000
  C   C34       1.0  0.58679  0.61472  0.83597  1.0000
  C   C35       1.0  0.08678  0.88528  0.33597  1.0000
  C   C36       1.0  0.41322  0.38528  0.16403  1.0000
  C   C37       1.0  0.05504  0.04873  0.67488  1.0000
  C   C38       1.0  0.44496  0.54873  0.82512  1.0000
  C   C39       1.0  0.94496  0.95127  0.32512  1.0000
  C   C40       1.0  0.55505  0.45127  0.17489  1.0000
  C   C41       1.0  0.16614  0.06140  0.60599  1.0000
  C   C42       1.0  0.33386  0.56140  0.89401  1.0000
  C   C43       1.0  0.83386  0.93860  0.39401  1.0000
  C   C44       1.0  0.66615  0.43860  0.10599  1.0000
  C   C45       1.0  0.13691  0.13425  0.52852  1.0000
  C   C46       1.0  0.36309  0.63425  0.97148  1.0000
  C   C47       1.0  0.86309  0.86575  0.47148  1.0000
  C   C48       1.0  0.63692  0.36575  0.02852  1.0000
  C   C49       1.0  0.99486  0.19716  0.51696  1.0000
  C   C50       1.0  0.50515  0.69716  0.98303  1.0000
  C   C51       1.0  0.00514  0.80284  0.48303  1.0000
  C   C52       1.0  0.49486  0.30284  0.01697  1.0000
  C   C53       1.0  0.41095  0.76603  0.63093  1.0000
  C   C54       1.0  0.08905  0.26603  0.86907  1.0000
  C   C55       1.0  0.58905  0.23397  0.36907  1.0000
  C   C56       1.0  0.91095  0.73397  0.13093  1.0000
  C   C57       1.0  0.20296  0.94335  0.91721  1.0000
  C   C58       1.0  0.29703  0.44335  0.58279  1.0000
  C   C59       1.0  0.79704  0.05665  0.08279  1.0000
  C   C60       1.0  0.70296  0.55665  0.41721  1.0000
  N   N1        1.0  0.78082  0.12992  0.71741  1.0000
  N   N2        1.0  0.71918  0.62993  0.78259  1.0000
  N   N3        1.0  0.21918  0.87008  0.28259  1.0000
  N   N4        1.0  0.28082  0.37008  0.21741  1.0000
  N   N5        1.0  0.67532  0.20524  0.67864  1.0000
  N   N6        1.0  0.82468  0.70524  0.82136  1.0000
  N   N7        1.0  0.32468  0.79476  0.32136  1.0000
  N   N8        1.0  0.17532  0.29476  0.17864  1.0000
  N   N9        1.0  0.73492  0.24046  0.60038  1.0000
  N   N10       1.0  0.76508  0.74046  0.89962  1.0000
  N   N11       1.0  0.26508  0.75954  0.39962  1.0000
  N   N12       1.0  0.23493  0.25954  0.10038  1.0000
  O   O1        1.0  0.52615  0.75010  0.57339  1.0000
  O   O2        1.0  0.97385  0.25010  0.92661  1.0000
  O   O3        1.0  0.47385  0.24990  0.42661  1.0000
  O   O4        1.0  0.02615  0.74989  0.07339  1.0000
  O   O5        1.0  0.27542  0.71901  0.61873  1.0000
  O   O6        1.0  0.22457  0.21901  0.88127  1.0000
  O   O7        1.0  0.72458  0.28099  0.38127  1.0000
  O   O8        1.0  0.77542  0.78099  0.11873  1.0000
  O   O9        1.0  0.06769  0.90042  0.89249  1.0000
  O   O10       1.0  0.43231  0.40042  0.60751  1.0000
  O   O11       1.0  0.93231  0.09958  0.10751  1.0000
  O   O12       1.0  0.56769  0.59958  0.39249  1.0000
  O   O13       1.0  0.22769  0.99946  0.99164  1.0000
  O   O14       1.0  0.27231  0.49946  0.50836  1.0000
  O   O15       1.0  0.77231  0.00054  0.00836  1.0000
  O   O16       1.0  0.72769  0.50054  0.49164  1.0000
