data_image0
_chemical_formula_structural       Cu2H36C36N8O12
_chemical_formula_sum              "Cu2 H36 C36 N8 O12"
_cell_length_a       9.63648
_cell_length_b       10.1338
_cell_length_c       11.5629
_cell_angle_alpha    84.6842
_cell_angle_beta     67.1094
_cell_angle_gamma    61.9037

_space_group_name_H-M_alt    "P 1"
_space_group_IT_number       1

loop_
  _space_group_symop_operation_xyz
  'x, y, z'

loop_
  _atom_site_type_symbol
  _atom_site_label
  _atom_site_symmetry_multiplicity
  _atom_site_fract_x
  _atom_site_fract_y
  _atom_site_fract_z
  _atom_site_occupancy
  Cu  Cu1       1.0  0.80355  0.33533  0.72227  1.0000
  Cu  Cu2       1.0  0.19645  0.66467  0.27773  1.0000
  H   H1        1.0  0.99148  0.36310  0.46109  1.0000
  H   H2        1.0  0.00853  0.63690  0.53891  1.0000
  H   H3        1.0  0.83976  0.50314  0.55415  1.0000
  H   H4        1.0  0.16025  0.49686  0.44585  1.0000
  H   H5        1.0  0.70123  0.62502  0.00407  1.0000
  H   H6        1.0  0.29877  0.37498  0.99593  1.0000
  H   H7        1.0  0.79856  0.89345  0.70378  1.0000
  H   H8        1.0  0.20145  0.10655  0.29621  1.0000
  H   H9        1.0  0.66175  0.05315  0.08304  1.0000
  H   H10       1.0  0.33825  0.94685  0.91696  1.0000
  H   H11       1.0  0.49638  0.89051  0.25380  1.0000
  H   H12       1.0  0.50362  0.10949  0.74620  1.0000
  H   H13       1.0  0.64602  0.69797  0.21257  1.0000
  H   H14       1.0  0.35399  0.30203  0.78743  1.0000
  H   H15       1.0  0.42597  0.12992  0.35104  1.0000
  H   H16       1.0  0.57403  0.87007  0.64897  1.0000
  H   H17       1.0  0.42477  0.30312  0.48774  1.0000
  H   H18       1.0  0.57522  0.69688  0.51227  1.0000
  H   H19       1.0  0.67006  0.22989  0.54928  1.0000
  H   H20       1.0  0.32993  0.77011  0.45072  1.0000
  H   H21       1.0  0.93369  0.98228  0.46324  1.0000
  H   H22       1.0  0.06631  0.01772  0.53676  1.0000
  H   H23       1.0  0.44680  0.57633  0.88991  1.0000
  H   H24       1.0  0.55320  0.42368  0.11009  1.0000
  H   H25       1.0  0.37566  0.50018  0.62358  1.0000
  H   H26       1.0  0.62434  0.49982  0.37642  1.0000
  H   H27       1.0  0.18760  0.67790  0.66180  1.0000
  H   H28       1.0  0.81240  0.32210  0.33820  1.0000
  H   H29       1.0  0.17190  0.51877  0.73050  1.0000
  H   H30       1.0  0.82810  0.48123  0.26950  1.0000
  H   H31       1.0  0.03454  0.69521  0.94229  1.0000
  H   H32       1.0  0.96546  0.30479  0.05771  1.0000
  H   H33       1.0  0.09164  0.83203  0.86160  1.0000
  H   H34       1.0  0.90836  0.16797  0.13840  1.0000
  H   H35       1.0  0.17650  0.73765  0.97652  1.0000
  H   H36       1.0  0.82350  0.26236  0.02348  1.0000
  C   C1        1.0  0.67981  0.83418  0.06010  1.0000
  C   C2        1.0  0.32019  0.16583  0.93990  1.0000
  C   C3        1.0  0.71036  0.72664  0.97370  1.0000
  C   C4        1.0  0.28964  0.27337  0.02630  1.0000
  C   C5        1.0  0.75079  0.74816  0.84561  1.0000
  C   C6        1.0  0.24922  0.25184  0.15439  1.0000
  C   C7        1.0  0.76406  0.87722  0.80360  1.0000
  C   C8        1.0  0.23594  0.12278  0.19640  1.0000
  C   C9        1.0  0.73136  0.98661  0.89016  1.0000
  C   C10       1.0  0.26864  0.01340  0.10984  1.0000
  C   C11       1.0  0.68864  0.96480  0.01796  1.0000
  C   C12       1.0  0.31136  0.03521  0.98204  1.0000
  C   C13       1.0  0.63111  0.81141  0.19823  1.0000
  C   C14       1.0  0.36889  0.18859  0.80177  1.0000
  C   C15       1.0  0.82868  0.91758  0.35723  1.0000
  C   C16       1.0  0.17131  0.08242  0.64277  1.0000
  C   C17       1.0  0.68531  0.95775  0.32825  1.0000
  C   C18       1.0  0.31469  0.04224  0.67175  1.0000
  C   C19       1.0  0.53703  0.09694  0.37336  1.0000
  C   C20       1.0  0.46296  0.90306  0.62665  1.0000
  C   C21       1.0  0.53723  0.19302  0.45127  1.0000
  C   C22       1.0  0.46276  0.80697  0.54874  1.0000
  C   C23       1.0  0.67749  0.15185  0.48546  1.0000
  C   C24       1.0  0.32250  0.84815  0.51454  1.0000
  C   C25       1.0  0.82472  0.01450  0.43904  1.0000
  C   C26       1.0  0.17528  0.98550  0.56096  1.0000
  C   C27       1.0  0.43822  0.53790  0.80815  1.0000
  C   C28       1.0  0.56179  0.46211  0.19185  1.0000
  C   C29       1.0  0.25347  0.57360  0.69882  1.0000
  C   C30       1.0  0.74653  0.42640  0.30118  1.0000
  C   C31       1.0  0.13832  0.72506  0.90225  1.0000
  C   C32       1.0  0.86169  0.27494  0.09775  1.0000
  C   C33       1.0  0.77615  0.63310  0.75581  1.0000
  C   C34       1.0  0.22385  0.36691  0.24418  1.0000
  C   C35       1.0  0.73743  0.12990  0.85066  1.0000
  C   C36       1.0  0.26257  0.87010  0.14934  1.0000
  N   N1        1.0  0.28406  0.60777  0.80351  1.0000
  N   N2        1.0  0.71594  0.39222  0.19649  1.0000
  N   N3        1.0  0.73143  0.83442  0.25389  1.0000
  N   N4        1.0  0.26858  0.16558  0.74610  1.0000
  N   N5        1.0  0.89141  0.72665  0.23453  1.0000
  N   N6        1.0  0.10859  0.27335  0.76546  1.0000
  N   N7        1.0  0.95121  0.77553  0.29552  1.0000
  N   N8        1.0  0.04879  0.22447  0.70448  1.0000
  O   O1        1.0  0.76106  0.51996  0.80523  1.0000
  O   O2        1.0  0.23894  0.48005  0.19476  1.0000
  O   O3        1.0  0.80682  0.65525  0.64057  1.0000
  O   O4        1.0  0.19319  0.34476  0.35942  1.0000
  O   O5        1.0  0.79839  0.13842  0.73016  1.0000
  O   O6        1.0  0.20160  0.86159  0.26985  1.0000
  O   O7        1.0  0.68532  0.23278  0.93359  1.0000
  O   O8        1.0  0.31468  0.76723  0.06641  1.0000
  O   O9        1.0  0.56633  0.43439  0.72427  1.0000
  O   O10       1.0  0.43368  0.56560  0.27573  1.0000
  O   O11       1.0  0.86936  0.40343  0.51770  1.0000
  O   O12       1.0  0.13064  0.59657  0.48230  1.0000
