data_image0
_chemical_formula_structural       Ag4H56C40N8O8F4
_chemical_formula_sum              "Ag4 H56 C40 N8 O8 F4"
_cell_length_a       9.46956
_cell_length_b       10.9992
_cell_length_c       11.8525
_cell_angle_alpha    65.7114
_cell_angle_beta     77.6885
_cell_angle_gamma    86.3903

_space_group_name_H-M_alt    "P 1"
_space_group_IT_number       1

loop_
  _space_group_symop_operation_xyz
  'x, y, z'

loop_
  _atom_site_type_symbol
  _atom_site_label
  _atom_site_symmetry_multiplicity
  _atom_site_fract_x
  _atom_site_fract_y
  _atom_site_fract_z
  _atom_site_occupancy
  Ag  Ag1       1.0  1.00000  0.50000  1.00000  1.0000
  Ag  Ag2       1.0  0.00000  1.00000  1.00000  1.0000
  Ag  Ag3       1.0  0.94597  0.29370  0.91990  1.0000
  Ag  Ag4       1.0  0.05403  0.70629  0.08010  1.0000
  H   H1        1.0  0.56893  0.26110  0.09272  1.0000
  H   H2        1.0  0.43107  0.73890  0.90728  1.0000
  H   H3        1.0  0.65045  0.89269  0.51148  1.0000
  H   H4        1.0  0.34956  0.10732  0.48853  1.0000
  H   H5        1.0  0.37030  0.11859  0.95165  1.0000
  H   H6        1.0  0.62969  0.88141  0.04834  1.0000
  H   H7        1.0  0.53577  0.12464  0.99930  1.0000
  H   H8        1.0  0.46422  0.87536  0.00070  1.0000
  H   H9        1.0  0.82542  0.72549  0.58530  1.0000
  H   H10       1.0  0.17459  0.27451  0.41470  1.0000
  H   H11       1.0  0.93057  0.66341  0.47838  1.0000
  H   H12       1.0  0.06943  0.33658  0.52162  1.0000
  H   H13       1.0  0.44335  0.34839  0.77254  1.0000
  H   H14       1.0  0.55665  0.65162  0.22745  1.0000
  H   H15       1.0  0.61784  0.32702  0.80688  1.0000
  H   H16       1.0  0.38216  0.67298  0.19312  1.0000
  H   H17       1.0  0.71394  0.51599  0.62468  1.0000
  H   H18       1.0  0.28605  0.48401  0.37532  1.0000
  H   H19       1.0  0.59900  0.64595  0.55855  1.0000
  H   H20       1.0  0.40100  0.35405  0.44145  1.0000
  H   H21       1.0  0.46754  0.12897  0.74470  1.0000
  H   H22       1.0  0.53246  0.87103  0.25530  1.0000
  H   H23       1.0  0.57632  0.26431  0.62740  1.0000
  H   H24       1.0  0.42368  0.73569  0.37260  1.0000
  H   H25       1.0  0.70748  0.64040  0.34067  1.0000
  H   H26       1.0  0.29252  0.35960  0.65933  1.0000
  H   H27       1.0  0.59394  0.50592  0.45176  1.0000
  H   H28       1.0  0.40606  0.49408  0.54824  1.0000
  H   H29       1.0  0.68930  0.04703  0.84830  1.0000
  H   H30       1.0  0.31070  0.95297  0.15170  1.0000
  H   H31       1.0  0.79078  0.17851  0.71986  1.0000
  H   H32       1.0  0.20922  0.82149  0.28014  1.0000
  H   H33       1.0  0.92386  0.50586  0.38359  1.0000
  H   H34       1.0  0.07614  0.49414  0.61641  1.0000
  H   H35       1.0  0.81731  0.37424  0.51163  1.0000
  H   H36       1.0  0.18269  0.62576  0.48837  1.0000
  H   H37       1.0  0.63078  0.95105  0.70806  1.0000
  H   H38       1.0  0.36922  0.04895  0.29194  1.0000
  H   H39       1.0  0.71610  0.08770  0.57291  1.0000
  H   H40       1.0  0.28390  0.91230  0.42709  1.0000
  H   H41       1.0  0.67998  0.35370  0.35795  1.0000
  H   H42       1.0  0.32002  0.64630  0.64205  1.0000
  H   H43       1.0  0.79247  0.48096  0.23347  1.0000
  H   H44       1.0  0.20753  0.51904  0.76653  1.0000
  H   H45       1.0  0.95638  0.02393  0.62879  1.0000
  H   H46       1.0  0.04362  0.97606  0.37121  1.0000
  H   H47       1.0  0.87324  0.88260  0.63299  1.0000
  H   H48       1.0  0.12676  0.11740  0.36701  1.0000
  H   H49       1.0  0.87695  0.89650  0.77598  1.0000
  H   H50       1.0  0.12305  0.10350  0.22402  1.0000
  H   H51       1.0  0.01018  0.33803  0.28382  1.0000
  H   H52       1.0  0.98982  0.66197  0.71619  1.0000
  H   H53       1.0  0.88273  0.26072  0.24279  1.0000
  H   H54       1.0  0.11728  0.73928  0.75722  1.0000
  H   H55       1.0  0.89345  0.20777  0.40388  1.0000
  H   H56       1.0  0.10655  0.79223  0.59613  1.0000
  C   C1        1.0  0.25121  0.31771  0.99652  1.0000
  C   C2        1.0  0.74879  0.68230  0.00348  1.0000
  C   C3        1.0  0.89054  0.85063  0.27600  1.0000
  C   C4        1.0  0.10946  0.14937  0.72400  1.0000
  C   C5        1.0  0.46229  0.30343  0.08256  1.0000
  C   C6        1.0  0.53771  0.69657  0.91745  1.0000
  C   C7        1.0  0.71186  0.91761  0.41564  1.0000
  C   C8        1.0  0.28814  0.08239  0.58436  1.0000
  C   C9        1.0  0.40482  0.39083  0.13243  1.0000
  C   C10       1.0  0.59518  0.60917  0.86757  1.0000
  C   C11       1.0  0.69403  0.03285  0.31744  1.0000
  C   C12       1.0  0.30597  0.96715  0.68257  1.0000
  C   C13       1.0  0.26851  0.45205  0.11082  1.0000
  C   C14       1.0  0.73148  0.54795  0.88918  1.0000
  C   C15       1.0  0.77648  0.06307  0.19135  1.0000
  C   C16       1.0  0.22352  0.93693  0.80865  1.0000
  C   C17       1.0  0.45502  0.18491  0.94747  1.0000
  C   C18       1.0  0.54499  0.81509  0.05252  1.0000
  C   C19       1.0  0.82454  0.70129  0.50437  1.0000
  C   C20       1.0  0.17546  0.29871  0.49563  1.0000
  C   C21       1.0  0.52230  0.27294  0.80985  1.0000
  C   C22       1.0  0.47770  0.72707  0.19015  1.0000
  C   C23       1.0  0.70274  0.60090  0.53633  1.0000
  C   C24       1.0  0.29726  0.39910  0.46367  1.0000
  C   C25       1.0  0.56074  0.19423  0.72776  1.0000
  C   C26       1.0  0.43926  0.80577  0.27224  1.0000
  C   C27       1.0  0.70004  0.55401  0.43223  1.0000
  C   C28       1.0  0.29996  0.44599  0.56777  1.0000
  C   C29       1.0  0.69618  0.11148  0.74719  1.0000
  C   C30       1.0  0.30382  0.88852  0.25281  1.0000
  C   C31       1.0  0.81631  0.45588  0.41807  1.0000
  C   C32       1.0  0.18369  0.54412  0.58193  1.0000
  C   C33       1.0  0.72093  0.02473  0.67233  1.0000
  C   C34       1.0  0.27906  0.97527  0.32767  1.0000
  C   C35       1.0  0.79009  0.39835  0.32674  1.0000
  C   C36       1.0  0.20991  0.60165  0.67327  1.0000
  C   C37       1.0  0.86401  0.95307  0.67792  1.0000
  C   C38       1.0  0.13599  0.04693  0.32208  1.0000
  C   C39       1.0  0.89976  0.29544  0.31361  1.0000
  C   C40       1.0  0.10024  0.70455  0.68639  1.0000
  N   N1        1.0  0.38663  0.26625  0.01532  1.0000
  N   N2        1.0  0.61337  0.73375  0.98468  1.0000
  N   N3        1.0  0.80951  0.82743  0.39674  1.0000
  N   N4        1.0  0.19050  0.17257  0.60326  1.0000
  N   N5        1.0  0.19753  0.40977  0.04298  1.0000
  N   N6        1.0  0.80247  0.59023  0.95702  1.0000
  N   N7        1.0  0.87127  0.96827  0.17833  1.0000
  N   N8        1.0  0.12873  0.03173  0.82166  1.0000
  O   O1        1.0  0.18527  0.27755  0.93592  1.0000
  O   O2        1.0  0.81473  0.72246  0.06408  1.0000
  O   O3        1.0  0.97800  0.76547  0.26164  1.0000
  O   O4        1.0  0.02200  0.23452  0.73836  1.0000
  O   O5        1.0  0.21850  0.53899  0.15146  1.0000
  O   O6        1.0  0.78149  0.46101  0.84854  1.0000
  O   O7        1.0  0.76161  0.17064  0.09886  1.0000
  O   O8        1.0  0.23839  0.82936  0.90114  1.0000
  F   F1        1.0  0.48150  0.42877  0.19804  1.0000
  F   F2        1.0  0.51849  0.57123  0.80197  1.0000
  F   F3        1.0  0.59796  0.12349  0.33674  1.0000
  F   F4        1.0  0.40205  0.87651  0.66326  1.0000
