data_image0
_chemical_formula_structural       Ag2H14C16N12O6
_chemical_formula_sum              "Ag2 H14 C16 N12 O6"
_cell_length_a       6.78237
_cell_length_b       9.90585
_cell_length_c       9.63934
_cell_angle_alpha    59.0785
_cell_angle_beta     81.6018
_cell_angle_gamma    73.5136

_space_group_name_H-M_alt    "P 1"
_space_group_IT_number       1

loop_
  _space_group_symop_operation_xyz
  'x, y, z'

loop_
  _atom_site_type_symbol
  _atom_site_label
  _atom_site_symmetry_multiplicity
  _atom_site_fract_x
  _atom_site_fract_y
  _atom_site_fract_z
  _atom_site_occupancy
  Ag  Ag1       1.0  0.25786  0.87740  0.23418  1.0000
  Ag  Ag2       1.0  0.75775  0.11135  0.76572  1.0000
  H   H1        1.0  0.48165  0.83146  0.71130  1.0000
  H   H2        1.0  0.98229  0.54289  0.28882  1.0000
  H   H3        1.0  0.32435  0.12554  0.51191  1.0000
  H   H4        1.0  0.82495  0.63764  0.48818  1.0000
  H   H5        1.0  0.14136  0.31001  0.62466  1.0000
  H   H6        1.0  0.64152  0.93483  0.37525  1.0000
  H   H7        1.0  0.12565  0.19534  0.92313  1.0000
  H   H8        1.0  0.62531  0.11832  0.07680  1.0000
  H   H9        1.0  0.54280  0.61503  0.97309  1.0000
  H   H10       1.0  0.04358  0.58808  0.02704  1.0000
  H   H11       1.0  0.48425  0.48770  0.50710  1.0000
  H   H12       1.0  0.98402  0.99475  0.49297  1.0000
  H   H13       1.0  0.69625  0.36159  0.14026  1.0000
  H   H14       1.0  0.19695  0.50193  0.85968  1.0000
  C   C1        1.0  0.37870  0.86125  0.91754  1.0000
  C   C2        1.0  0.87893  0.77870  0.08259  1.0000
  C   C3        1.0  0.39841  0.91733  0.75121  1.0000
  C   C4        1.0  0.89891  0.66862  0.24892  1.0000
  C   C5        1.0  0.31271  0.07987  0.64196  1.0000
  C   C6        1.0  0.81322  0.72195  0.35813  1.0000
  C   C7        1.0  0.21109  0.18180  0.70319  1.0000
  C   C8        1.0  0.71134  0.88507  0.29678  1.0000
  C   C9        1.0  0.20004  0.11861  0.87074  1.0000
  C   C10       1.0  0.69992  0.98926  0.12921  1.0000
  C   C11       1.0  0.46891  0.68964  0.02894  1.0000
  C   C12       1.0  0.96931  0.71849  0.97120  1.0000
  C   C13       1.0  0.56553  0.41921  0.44744  1.0000
  C   C14       1.0  0.06555  0.86667  0.55261  1.0000
  C   C15       1.0  0.67470  0.35391  0.25798  1.0000
  C   C16       1.0  0.17527  0.61199  0.74200  1.0000
  N   N1        1.0  0.28110  0.96183  0.97628  1.0000
  N   N2        1.0  0.78103  0.93797  0.02372  1.0000
  N   N3        1.0  0.46309  0.63665  0.18243  1.0000
  N   N4        1.0  0.96310  0.81891  0.81774  1.0000
  N   N5        1.0  0.55933  0.47825  0.28454  1.0000
  N   N6        1.0  0.05952  0.76277  0.71552  1.0000
  N   N7        1.0  0.67854  0.26885  0.51549  1.0000
  N   N8        1.0  0.17876  0.78451  0.48447  1.0000
  N   N9        1.0  0.74818  0.22687  0.39648  1.0000
  N   N10       1.0  0.24873  0.62355  0.60343  1.0000
  N   N11       1.0  0.20316  0.26600  0.19598  1.0000
  N   N12       1.0  0.70340  0.46185  0.80387  1.0000
  O   O1        1.0  0.28855  0.11621  0.28086  1.0000
  O   O2        1.0  0.78891  0.39701  0.71893  1.0000
  O   O3        1.0  0.10196  0.31706  0.07016  1.0000
  O   O4        1.0  0.60208  0.38705  0.92964  1.0000
  O   O5        1.0  0.21866  0.36477  0.23789  1.0000
  O   O6        1.0  0.71889  0.60252  0.76207  1.0000
