data_image0
_chemical_formula_structural       Zn2H16C20S4Br4N4
_chemical_formula_sum              "Zn2 H16 C20 S4 Br4 N4"
_cell_length_a       8.12693
_cell_length_b       8.1269
_cell_length_c       10.9148
_cell_angle_alpha    82.1862
_cell_angle_beta     82.1866
_cell_angle_gamma    76.8807

_space_group_name_H-M_alt    "P 1"
_space_group_IT_number       1

loop_
  _space_group_symop_operation_xyz
  'x, y, z'

loop_
  _atom_site_type_symbol
  _atom_site_label
  _atom_site_symmetry_multiplicity
  _atom_site_fract_x
  _atom_site_fract_y
  _atom_site_fract_z
  _atom_site_occupancy
  Zn  Zn1       1.0  0.55730  0.44271  0.75000  1.0000
  Zn  Zn2       1.0  0.44270  0.55730  0.25000  1.0000
  H   H1        1.0  0.75090  0.48906  0.95063  1.0000
  H   H2        1.0  0.51094  0.24911  0.54936  1.0000
  H   H3        1.0  0.24911  0.51095  0.04937  1.0000
  H   H4        1.0  0.48906  0.75089  0.45064  1.0000
  H   H5        1.0  0.89291  0.31543  0.12788  1.0000
  H   H6        1.0  0.68458  0.10712  0.37211  1.0000
  H   H7        1.0  0.10710  0.68457  0.87212  1.0000
  H   H8        1.0  0.31543  0.89288  0.62789  1.0000
  H   H9        1.0  0.72339  0.88492  0.03186  1.0000
  H   H10       1.0  0.11507  0.27662  0.46815  1.0000
  H   H11       1.0  0.27661  0.11508  0.96814  1.0000
  H   H12       1.0  0.88493  0.72338  0.53185  1.0000
  H   H13       1.0  0.58556  0.07824  0.86011  1.0000
  H   H14       1.0  0.92174  0.41444  0.63990  1.0000
  H   H15       1.0  0.41444  0.92176  0.13989  1.0000
  H   H16       1.0  0.07825  0.58555  0.36010  1.0000
  C   C1        1.0  0.74881  0.35432  0.97211  1.0000
  C   C2        1.0  0.64568  0.25119  0.52789  1.0000
  C   C3        1.0  0.25119  0.64569  0.02790  1.0000
  C   C4        1.0  0.35432  0.74880  0.47211  1.0000
  C   C5        1.0  0.82862  0.25650  0.07011  1.0000
  C   C6        1.0  0.74349  0.17140  0.42988  1.0000
  C   C7        1.0  0.17139  0.74350  0.92989  1.0000
  C   C8        1.0  0.25651  0.82860  0.57012  1.0000
  C   C9        1.0  0.82092  0.08490  0.09384  1.0000
  C   C10       1.0  0.91510  0.17910  0.40616  1.0000
  C   C11       1.0  0.17908  0.91510  0.90616  1.0000
  C   C12       1.0  0.08491  0.82090  0.59384  1.0000
  C   C13       1.0  0.73219  0.01820  0.01719  1.0000
  C   C14       1.0  0.98181  0.26782  0.48281  1.0000
  C   C15       1.0  0.26781  0.98181  0.98280  1.0000
  C   C16       1.0  0.01819  0.73217  0.51719  1.0000
  C   C17       1.0  0.65535  0.12554  0.92158  1.0000
  C   C18       1.0  0.87446  0.34465  0.57843  1.0000
  C   C19       1.0  0.34465  0.87447  0.07842  1.0000
  C   C20       1.0  0.12553  0.65535  0.42157  1.0000
  S   S1        1.0  0.91597  0.94517  0.21529  1.0000
  S   S2        1.0  0.05484  0.08404  0.28472  1.0000
  S   S3        1.0  0.08403  0.05483  0.78471  1.0000
  S   S4        1.0  0.94517  0.91595  0.71528  1.0000
  Br  Br1       1.0  0.61214  0.71813  0.75122  1.0000
  Br  Br2       1.0  0.28186  0.38786  0.74878  1.0000
  Br  Br3       1.0  0.38786  0.28187  0.24877  1.0000
  Br  Br4       1.0  0.71814  0.61214  0.25122  1.0000
  N   N1        1.0  0.66328  0.29121  0.89866  1.0000
  N   N2        1.0  0.70878  0.33673  0.60134  1.0000
  N   N3        1.0  0.33672  0.70880  0.10134  1.0000
  N   N4        1.0  0.29122  0.66326  0.39866  1.0000
