data_image0
_chemical_formula_structural       Sn4H36C36N4O8F8
_chemical_formula_sum              "Sn4 H36 C36 N4 O8 F8"
_cell_length_a       6.42667
_cell_length_b       7.76191
_cell_length_c       20.6823
_cell_angle_alpha    89.9973
_cell_angle_beta     90.0002
_cell_angle_gamma    89.9996

_space_group_name_H-M_alt    "P 1"
_space_group_IT_number       1

loop_
  _space_group_symop_operation_xyz
  'x, y, z'

loop_
  _atom_site_type_symbol
  _atom_site_label
  _atom_site_symmetry_multiplicity
  _atom_site_fract_x
  _atom_site_fract_y
  _atom_site_fract_z
  _atom_site_occupancy
  Sn  Sn1       1.0  0.54208  0.69621  0.22787  1.0000
  Sn  Sn2       1.0  0.95795  0.30381  0.72786  1.0000
  Sn  Sn3       1.0  0.45797  0.19618  0.27214  1.0000
  Sn  Sn4       1.0  0.04207  0.80380  0.77213  1.0000
  H   H1        1.0  0.67429  0.78867  0.46526  1.0000
  H   H2        1.0  0.82571  0.21131  0.96527  1.0000
  H   H3        1.0  0.32571  0.28871  0.03474  1.0000
  H   H4        1.0  0.17426  0.71132  0.53475  1.0000
  H   H5        1.0  0.70663  0.48911  0.51289  1.0000
  H   H6        1.0  0.79335  0.51085  0.01289  1.0000
  H   H7        1.0  0.29339  0.98916  0.98710  1.0000
  H   H8        1.0  0.20659  0.01087  0.48710  1.0000
  H   H9        1.0  0.26975  0.41347  0.40417  1.0000
  H   H10       1.0  0.23027  0.58652  0.90416  1.0000
  H   H11       1.0  0.73027  0.91347  0.09584  1.0000
  H   H12       1.0  0.76973  0.08654  0.59583  1.0000
  H   H13       1.0  0.20980  0.70238  0.14910  1.0000
  H   H14       1.0  0.29020  0.29762  0.64910  1.0000
  H   H15       1.0  0.79019  0.20238  0.35090  1.0000
  H   H16       1.0  0.70981  0.79763  0.85090  1.0000
  H   H17       1.0  0.44137  0.71579  0.10219  1.0000
  H   H18       1.0  0.05865  0.28421  0.60219  1.0000
  H   H19       1.0  0.55865  0.21578  0.39781  1.0000
  H   H20       1.0  0.94140  0.78422  0.89781  1.0000
  H   H21       1.0  0.34647  0.90441  0.14315  1.0000
  H   H22       1.0  0.15354  0.09561  0.64315  1.0000
  H   H23       1.0  0.65353  0.40439  0.35684  1.0000
  H   H24       1.0  0.84647  0.59559  0.85685  1.0000
  H   H25       1.0  0.92793  0.82677  0.24221  1.0000
  H   H26       1.0  0.57209  0.17323  0.74220  1.0000
  H   H27       1.0  0.07208  0.32679  0.25780  1.0000
  H   H28       1.0  0.42791  0.67322  0.75779  1.0000
  H   H29       1.0  0.93778  0.61760  0.20343  1.0000
  H   H30       1.0  0.56224  0.38242  0.70343  1.0000
  H   H31       1.0  0.06223  0.11758  0.29657  1.0000
  H   H32       1.0  0.43775  0.88239  0.79657  1.0000
  H   H33       1.0  0.90080  0.63337  0.28903  1.0000
  H   H34       1.0  0.59921  0.36661  0.78903  1.0000
  H   H35       1.0  0.09919  0.13338  0.21097  1.0000
  H   H36       1.0  0.40081  0.86663  0.71098  1.0000
  C   C1        1.0  0.95755  0.76537  0.41152  1.0000
  C   C2        1.0  0.54245  0.23462  0.91153  1.0000
  C   C3        1.0  0.04245  0.26540  0.08847  1.0000
  C   C4        1.0  0.45754  0.73463  0.58848  1.0000
  C   C5        1.0  0.80546  0.70548  0.45365  1.0000
  C   C6        1.0  0.69452  0.29451  0.95365  1.0000
  C   C7        1.0  0.19454  0.20551  0.04635  1.0000
  C   C8        1.0  0.30545  0.79451  0.54636  1.0000
  C   C9        1.0  0.82195  0.54007  0.47950  1.0000
  C   C10       1.0  0.67804  0.45991  0.97951  1.0000
  C   C11       1.0  0.17804  0.04011  0.02049  1.0000
  C   C12       1.0  0.32193  0.95991  0.52050  1.0000
  C   C13       1.0  0.99031  0.43965  0.46059  1.0000
  C   C14       1.0  0.50966  0.56032  0.96059  1.0000
  C   C15       1.0  0.00969  0.93971  0.03941  1.0000
  C   C16       1.0  0.49030  0.06033  0.53941  1.0000
  C   C17       1.0  0.14110  0.49696  0.41779  1.0000
  C   C18       1.0  0.35890  0.50302  0.91778  1.0000
  C   C19       1.0  0.85891  0.99698  0.08221  1.0000
  C   C20       1.0  0.64108  0.00305  0.58221  1.0000
  C   C21       1.0  0.12830  0.66459  0.39225  1.0000
  C   C22       1.0  0.37168  0.33539  0.89224  1.0000
  C   C23       1.0  0.87169  0.16463  0.10776  1.0000
  C   C24       1.0  0.62830  0.83540  0.60776  1.0000
  C   C25       1.0  0.28483  0.72205  0.34441  1.0000
  C   C26       1.0  0.21519  0.27796  0.84440  1.0000
  C   C27       1.0  0.71519  0.22202  0.15559  1.0000
  C   C28       1.0  0.78481  0.77797  0.65560  1.0000
  C   C29       1.0  0.36191  0.76430  0.14533  1.0000
  C   C30       1.0  0.13810  0.23571  0.64533  1.0000
  C   C31       1.0  0.63809  0.26429  0.35467  1.0000
  C   C32       1.0  0.86191  0.73570  0.85467  1.0000
  C   C33       1.0  0.86956  0.69440  0.24236  1.0000
  C   C34       1.0  0.63046  0.30561  0.74235  1.0000
  C   C35       1.0  0.13044  0.19439  0.25765  1.0000
  C   C36       1.0  0.36956  0.80560  0.75764  1.0000
  N   N1        1.0  0.33101  0.88545  0.34164  1.0000
  N   N2        1.0  0.16901  0.11454  0.84164  1.0000
  N   N3        1.0  0.66901  0.38546  0.15836  1.0000
  N   N4        1.0  0.83100  0.61454  0.65835  1.0000
  O   O1        1.0  0.47647  0.91781  0.29150  1.0000
  O   O2        1.0  0.02356  0.08219  0.79150  1.0000
  O   O3        1.0  0.52356  0.41780  0.20851  1.0000
  O   O4        1.0  0.97646  0.58218  0.70850  1.0000
  O   O5        1.0  0.36548  0.60110  0.30626  1.0000
  O   O6        1.0  0.13454  0.39890  0.80625  1.0000
  O   O7        1.0  0.63451  0.10110  0.19374  1.0000
  O   O8        1.0  0.86548  0.89892  0.69374  1.0000
  F   F1        1.0  0.93210  0.92753  0.38756  1.0000
  F   F2        1.0  0.56790  0.07246  0.88756  1.0000
  F   F3        1.0  0.06791  0.42755  0.11245  1.0000
  F   F4        1.0  0.43209  0.57248  0.61245  1.0000
  F   F5        1.0  0.00664  0.27606  0.48472  1.0000
  F   F6        1.0  0.49332  0.72389  0.98472  1.0000
  F   F7        1.0  0.99335  0.77611  0.01528  1.0000
  F   F8        1.0  0.50661  0.22392  0.51528  1.0000
