data_image0
_chemical_formula_structural       Cu3H10C16N32O2
_chemical_formula_sum              "Cu3 H10 C16 N32 O2"
_cell_length_a       7.67671
_cell_length_b       10.8872
_cell_length_c       11.7593
_cell_angle_alpha    104.508
_cell_angle_beta     99.4734
_cell_angle_gamma    95.0568

_space_group_name_H-M_alt    "P 1"
_space_group_IT_number       1

loop_
  _space_group_symop_operation_xyz
  'x, y, z'

loop_
  _atom_site_type_symbol
  _atom_site_label
  _atom_site_symmetry_multiplicity
  _atom_site_fract_x
  _atom_site_fract_y
  _atom_site_fract_z
  _atom_site_occupancy
  Cu  Cu1       1.0  0.50000  1.00000  0.00000  1.0000
  Cu  Cu2       1.0  1.00000  1.00000  1.00000  1.0000
  Cu  Cu3       1.0  0.50000  0.00000  0.50000  1.0000
  H   H1        1.0  0.20497  0.92002  0.55782  1.0000
  H   H2        1.0  0.79503  0.07998  0.44218  1.0000
  H   H3        1.0  0.32671  0.80859  0.53601  1.0000
  H   H4        1.0  0.67329  0.19141  0.46399  1.0000
  H   H5        1.0  0.13672  0.37280  0.45085  1.0000
  H   H6        1.0  0.86328  0.62721  0.54914  1.0000
  H   H7        1.0  0.34661  0.46143  0.53333  1.0000
  H   H8        1.0  0.65340  0.53858  0.46666  1.0000
  H   H9        1.0  0.17509  0.43137  0.61221  1.0000
  H   H10       1.0  0.82491  0.56863  0.38779  1.0000
  C   C1        1.0  0.22726  0.75356  0.77068  1.0000
  C   C2        1.0  0.77274  0.24644  0.22932  1.0000
  C   C3        1.0  0.36831  0.71633  0.71196  1.0000
  C   C4        1.0  0.63171  0.28367  0.28804  1.0000
  C   C5        1.0  0.23501  0.98705  0.27105  1.0000
  C   C6        1.0  0.76499  0.01295  0.72895  1.0000
  C   C7        1.0  0.08108  0.99666  0.32242  1.0000
  C   C8        1.0  0.91892  0.00335  0.67758  1.0000
  C   C9        1.0  0.27523  0.29599  0.91993  1.0000
  C   C10       1.0  0.72477  0.70400  0.08006  1.0000
  C   C11       1.0  0.28476  0.40795  0.87930  1.0000
  C   C12       1.0  0.71524  0.59205  0.12070  1.0000
  C   C13       1.0  0.30195  0.27433  0.54518  1.0000
  C   C14       1.0  0.69806  0.72567  0.45482  1.0000
  C   C15       1.0  0.23541  0.39157  0.53480  1.0000
  C   C16       1.0  0.76459  0.60843  0.46519  1.0000
  N   N1        1.0  0.24444  0.85081  0.87000  1.0000
  N   N2        1.0  0.75556  0.14919  0.13001  1.0000
  N   N3        1.0  0.07718  0.85753  0.88465  1.0000
  N   N4        1.0  0.92282  0.14247  0.11535  1.0000
  N   N5        1.0  0.96236  0.76934  0.79929  1.0000
  N   N6        1.0  0.03764  0.23066  0.20071  1.0000
  N   N7        1.0  0.05446  0.70227  0.72579  1.0000
  N   N8        1.0  0.94554  0.29773  0.27421  1.0000
  N   N9        1.0  0.47706  0.68878  0.65486  1.0000
  N   N10       1.0  0.52294  0.31121  0.34514  1.0000
  N   N11       1.0  0.23581  0.98629  0.15710  1.0000
  N   N12       1.0  0.76419  0.01371  0.84290  1.0000
  N   N13       1.0  0.40623  0.98613  0.14822  1.0000
  N   N14       1.0  0.59377  0.01387  0.85178  1.0000
  N   N15       1.0  0.50846  0.98634  0.25030  1.0000
  N   N16       1.0  0.49154  0.01366  0.74970  1.0000
  N   N17       1.0  0.40296  0.98699  0.32922  1.0000
  N   N18       1.0  0.59704  0.01301  0.67078  1.0000
  N   N19       1.0  0.95347  0.01033  0.36294  1.0000
  N   N20       1.0  0.04652  0.98968  0.63707  1.0000
  N   N21       1.0  0.41968  0.24160  0.95323  1.0000
  N   N22       1.0  0.58032  0.75839  0.04677  1.0000
  N   N23       1.0  0.35153  0.13883  0.97908  1.0000
  N   N24       1.0  0.64847  0.86117  0.02093  1.0000
  N   N25       1.0  0.17324  0.13098  0.96210  1.0000
  N   N26       1.0  0.82676  0.86901  0.03790  1.0000
  N   N27       1.0  0.12100  0.22884  0.92502  1.0000
  N   N28       1.0  0.87899  0.77116  0.07498  1.0000
  N   N29       1.0  0.29338  0.49815  0.84293  1.0000
  N   N30       1.0  0.70662  0.50185  0.15706  1.0000
  N   N31       1.0  0.35465  0.17906  0.55275  1.0000
  N   N32       1.0  0.64535  0.82095  0.44724  1.0000
  O   O1        1.0  0.28000  0.87557  0.50261  1.0000
  O   O2        1.0  0.72000  0.12443  0.49739  1.0000
