data_image0
_chemical_formula_structural       Y6H40C56O36
_chemical_formula_sum              "Y6 H40 C56 O36"
_cell_length_a       11.4911
_cell_length_b       11.9345
_cell_length_c       12.8813
_cell_angle_alpha    85.602
_cell_angle_beta     66.9313
_cell_angle_gamma    72.0492

_space_group_name_H-M_alt    "P 1"
_space_group_IT_number       1

loop_
  _space_group_symop_operation_xyz
  'x, y, z'

loop_
  _atom_site_type_symbol
  _atom_site_label
  _atom_site_symmetry_multiplicity
  _atom_site_fract_x
  _atom_site_fract_y
  _atom_site_fract_z
  _atom_site_occupancy
  Y   Y1        1.0  0.58438  0.55927  0.35787  1.0000
  Y   Y2        1.0  0.41561  0.44073  0.64214  1.0000
  Y   Y3        1.0  0.54503  0.85528  0.23529  1.0000
  Y   Y4        1.0  0.45497  0.14472  0.76471  1.0000
  Y   Y5        1.0  0.54395  0.23861  0.38283  1.0000
  Y   Y6        1.0  0.45605  0.76139  0.61716  1.0000
  H   H1        1.0  0.16888  0.56605  0.40445  1.0000
  H   H2        1.0  0.83113  0.43395  0.59555  1.0000
  H   H3        1.0  0.94041  0.57977  0.42131  1.0000
  H   H4        1.0  0.05960  0.42022  0.57868  1.0000
  H   H5        1.0  0.93114  0.88614  0.22320  1.0000
  H   H6        1.0  0.06887  0.11386  0.77679  1.0000
  H   H7        1.0  0.15743  0.87344  0.20678  1.0000
  H   H8        1.0  0.84257  0.12656  0.79321  1.0000
  H   H9        1.0  0.84512  0.46802  0.18955  1.0000
  H   H10       1.0  0.15488  0.53198  0.81045  1.0000
  H   H11       1.0  0.92745  0.66943  0.89112  1.0000
  H   H12       1.0  0.07255  0.33057  0.10888  1.0000
  H   H13       1.0  0.93512  0.07249  0.38483  1.0000
  H   H14       1.0  0.06488  0.92751  0.61517  1.0000
  H   H15       1.0  0.16408  0.98876  0.38616  1.0000
  H   H16       1.0  0.83592  0.01124  0.61384  1.0000
  H   H17       1.0  0.21938  0.33210  0.32989  1.0000
  H   H18       1.0  0.78062  0.66791  0.67012  1.0000
  H   H19       1.0  0.99153  0.41459  0.32359  1.0000
  H   H20       1.0  0.00847  0.58541  0.67642  1.0000
  H   H21       1.0  0.71448  0.44841  0.02436  1.0000
  H   H22       1.0  0.28552  0.55159  0.97564  1.0000
  H   H23       1.0  0.30516  0.45847  0.15226  1.0000
  H   H24       1.0  0.69484  0.54153  0.84774  1.0000
  H   H25       1.0  0.88321  0.18350  0.12374  1.0000
  H   H26       1.0  0.11679  0.81650  0.87626  1.0000
  H   H27       1.0  0.87295  0.86523  0.99745  1.0000
  H   H28       1.0  0.12705  0.13477  0.00255  1.0000
  H   H29       1.0  0.38802  0.78095  0.43763  1.0000
  H   H30       1.0  0.61198  0.21905  0.56237  1.0000
  H   H31       1.0  0.37428  0.47047  0.43670  1.0000
  H   H32       1.0  0.62572  0.52953  0.56330  1.0000
  H   H33       1.0  0.42862  0.03960  0.08565  1.0000
  H   H34       1.0  0.57138  0.96041  0.91435  1.0000
  H   H35       1.0  0.34755  0.94832  0.13337  1.0000
  H   H36       1.0  0.65245  0.05168  0.86662  1.0000
  H   H37       1.0  0.66822  0.96323  0.37442  1.0000
  H   H38       1.0  0.33178  0.03677  0.62558  1.0000
  H   H39       1.0  0.60515  0.02031  0.50030  1.0000
  H   H40       1.0  0.39485  0.97969  0.49970  1.0000
  C   C1        1.0  0.31618  0.70976  0.29374  1.0000
  C   C2        1.0  0.68382  0.29024  0.70627  1.0000
  C   C3        1.0  0.17896  0.71816  0.30364  1.0000
  C   C4        1.0  0.82105  0.28184  0.69636  1.0000
  C   C5        1.0  0.11655  0.63575  0.36450  1.0000
  C   C6        1.0  0.88346  0.36425  0.63549  1.0000
  C   C7        1.0  0.98964  0.64307  0.37385  1.0000
  C   C8        1.0  0.01037  0.35692  0.62615  1.0000
  C   C9        1.0  0.92188  0.73265  0.32250  1.0000
  C   C10       1.0  0.07812  0.26734  0.67750  1.0000
  C   C11       1.0  0.98288  0.81643  0.26344  1.0000
  C   C12       1.0  0.01711  0.18357  0.73656  1.0000
  C   C13       1.0  0.11011  0.80892  0.25402  1.0000
  C   C14       1.0  0.88989  0.19108  0.74598  1.0000
  C   C15       1.0  0.78920  0.73337  0.32602  1.0000
  C   C16       1.0  0.21080  0.26663  0.67398  1.0000
  C   C17       1.0  0.73716  0.66484  0.09358  1.0000
  C   C18       1.0  0.26284  0.33516  0.90642  1.0000
  C   C19       1.0  0.87124  0.57773  0.04480  1.0000
  C   C20       1.0  0.12876  0.42227  0.95520  1.0000
  C   C21       1.0  0.91186  0.48220  0.10622  1.0000
  C   C22       1.0  0.08814  0.51780  0.89378  1.0000
  C   C23       1.0  0.96018  0.59518  0.93824  1.0000
  C   C24       1.0  0.03982  0.40482  0.06176  1.0000
  C   C25       1.0  0.81012  0.30049  0.36882  1.0000
  C   C26       1.0  0.18988  0.69951  0.63119  1.0000
  C   C27       1.0  0.95065  0.24854  0.35693  1.0000
  C   C28       1.0  0.04935  0.75146  0.64307  1.0000
  C   C29       1.0  0.99892  0.12790  0.37182  1.0000
  C   C30       1.0  0.00108  0.87210  0.62818  1.0000
  C   C31       1.0  0.12527  0.08184  0.37279  1.0000
  C   C32       1.0  0.87473  0.91816  0.62721  1.0000
  C   C33       1.0  0.20140  0.15736  0.36169  1.0000
  C   C34       1.0  0.79860  0.84264  0.63832  1.0000
  C   C35       1.0  0.15583  0.27684  0.34129  1.0000
  C   C36       1.0  0.84417  0.72317  0.65872  1.0000
  C   C37       1.0  0.03097  0.32185  0.33756  1.0000
  C   C38       1.0  0.96903  0.67815  0.66244  1.0000
  C   C39       1.0  0.32634  0.11353  0.38123  1.0000
  C   C40       1.0  0.67366  0.88647  0.61877  1.0000
  C   C41       1.0  0.52171  0.39580  0.20304  1.0000
  C   C42       1.0  0.47829  0.60420  0.79695  1.0000
  C   C43       1.0  0.51073  0.44940  0.09814  1.0000
  C   C44       1.0  0.48927  0.55061  0.90186  1.0000
  C   C45       1.0  0.62104  0.47218  0.01284  1.0000
  C   C46       1.0  0.37896  0.52782  0.98716  1.0000
  C   C47       1.0  0.38971  0.47690  0.08495  1.0000
  C   C48       1.0  0.61029  0.52310  0.91505  1.0000
  C   C49       1.0  0.71949  0.05479  0.14495  1.0000
  C   C50       1.0  0.28051  0.94521  0.85505  1.0000
  C   C51       1.0  0.86369  0.02751  0.06750  1.0000
  C   C52       1.0  0.13631  0.97249  0.93250  1.0000
  C   C53       1.0  0.93551  0.10326  0.06927  1.0000
  C   C54       1.0  0.06449  0.89674  0.93072  1.0000
  C   C55       1.0  0.92929  0.92399  0.99746  1.0000
  C   C56       1.0  0.07071  0.07601  0.00253  1.0000
  O   O1        1.0  0.37663  0.62140  0.33493  1.0000
  O   O2        1.0  0.62337  0.37860  0.66507  1.0000
  O   O3        1.0  0.36383  0.79308  0.24694  1.0000
  O   O4        1.0  0.63617  0.20692  0.75306  1.0000
  O   O5        1.0  0.75423  0.64206  0.35694  1.0000
  O   O6        1.0  0.24577  0.35794  0.64307  1.0000
  O   O7        1.0  0.72161  0.82646  0.29272  1.0000
  O   O8        1.0  0.27839  0.17354  0.70728  1.0000
  O   O9        1.0  0.65303  0.64628  0.19045  1.0000
  O   O10       1.0  0.34697  0.35372  0.80955  1.0000
  O   O11       1.0  0.70556  0.76022  0.04743  1.0000
  O   O12       1.0  0.29444  0.23978  0.95258  1.0000
  O   O13       1.0  0.74001  0.23084  0.39095  1.0000
  O   O14       1.0  0.25999  0.76915  0.60905  1.0000
  O   O15       1.0  0.76724  0.41075  0.36010  1.0000
  O   O16       1.0  0.23276  0.58925  0.63990  1.0000
  O   O17       1.0  0.39362  0.00407  0.35953  1.0000
  O   O18       1.0  0.60638  0.99593  0.64047  1.0000
  O   O19       1.0  0.35717  0.18505  0.42562  1.0000
  O   O20       1.0  0.64283  0.81495  0.57438  1.0000
  O   O21       1.0  0.61556  0.40223  0.23126  1.0000
  O   O22       1.0  0.38444  0.59777  0.76874  1.0000
  O   O23       1.0  0.43878  0.34307  0.26285  1.0000
  O   O24       1.0  0.56122  0.65693  0.73715  1.0000
  O   O25       1.0  0.67052  0.14395  0.21317  1.0000
  O   O26       1.0  0.32948  0.85605  0.78683  1.0000
  O   O27       1.0  0.65397  0.98795  0.14024  1.0000
  O   O28       1.0  0.34603  0.01205  0.85976  1.0000
  O   O29       1.0  0.48369  0.76312  0.41564  1.0000
  O   O30       1.0  0.51631  0.23688  0.58436  1.0000
  O   O31       1.0  0.45133  0.43340  0.45589  1.0000
  O   O32       1.0  0.54867  0.56660  0.54411  1.0000
  O   O33       1.0  0.43415  0.95996  0.11170  1.0000
  O   O34       1.0  0.56586  0.04005  0.88830  1.0000
  O   O35       1.0  0.62847  0.03834  0.42012  1.0000
  O   O36       1.0  0.37153  0.96166  0.57988  1.0000
