data_image0
_chemical_formula_structural       Cu4H32C56N48
_chemical_formula_sum              "Cu4 H32 C56 N48"
_cell_length_a       8.66439
_cell_length_b       12.9787
_cell_length_c       14.433
_cell_angle_alpha    100.052
_cell_angle_beta     89.9983
_cell_angle_gamma    89.9992

_space_group_name_H-M_alt    "P 1"
_space_group_IT_number       1

loop_
  _space_group_symop_operation_xyz
  'x, y, z'

loop_
  _atom_site_type_symbol
  _atom_site_label
  _atom_site_symmetry_multiplicity
  _atom_site_fract_x
  _atom_site_fract_y
  _atom_site_fract_z
  _atom_site_occupancy
  Cu  Cu1       1.0  0.52949  0.82483  0.39458  1.0000
  Cu  Cu2       1.0  0.02948  0.67517  0.10542  1.0000
  Cu  Cu3       1.0  0.47052  0.17517  0.60541  1.0000
  Cu  Cu4       1.0  0.97052  0.32483  0.89458  1.0000
  H   H1        1.0  0.24587  0.67876  0.40136  1.0000
  H   H2        1.0  0.74586  0.82124  0.09864  1.0000
  H   H3        1.0  0.75413  0.32123  0.59863  1.0000
  H   H4        1.0  0.25414  0.17876  0.90136  1.0000
  H   H5        1.0  0.15822  0.56236  0.51042  1.0000
  H   H6        1.0  0.65822  0.93764  0.98959  1.0000
  H   H7        1.0  0.84178  0.43764  0.48959  1.0000
  H   H8        1.0  0.34179  0.06236  0.01041  1.0000
  H   H9        1.0  0.33594  0.53239  0.64095  1.0000
  H   H10       1.0  0.83595  0.96761  0.85905  1.0000
  H   H11       1.0  0.66405  0.46761  0.35905  1.0000
  H   H12       1.0  0.16406  0.03239  0.14095  1.0000
  H   H13       1.0  0.59289  0.61902  0.65560  1.0000
  H   H14       1.0  0.09290  0.88099  0.84440  1.0000
  H   H15       1.0  0.40710  0.38099  0.34439  1.0000
  H   H16       1.0  0.90710  0.11902  0.15561  1.0000
  H   H17       1.0  0.81357  0.68749  0.65176  1.0000
  H   H18       1.0  0.31359  0.81252  0.84824  1.0000
  H   H19       1.0  0.18642  0.31252  0.34824  1.0000
  H   H20       1.0  0.68641  0.18748  0.15176  1.0000
  H   H21       1.0  0.05995  0.78197  0.63829  1.0000
  H   H22       1.0  0.55997  0.71802  0.86171  1.0000
  H   H23       1.0  0.94004  0.21803  0.36170  1.0000
  H   H24       1.0  0.44003  0.28197  0.13829  1.0000
  H   H25       1.0  0.08410  0.89690  0.51665  1.0000
  H   H26       1.0  0.58411  0.60310  0.98335  1.0000
  H   H27       1.0  0.91589  0.10310  0.48334  1.0000
  H   H28       1.0  0.41589  0.39690  0.01665  1.0000
  H   H29       1.0  0.85145  0.92090  0.41835  1.0000
  H   H30       1.0  0.35145  0.57910  0.08165  1.0000
  H   H31       1.0  0.14855  0.07910  0.58164  1.0000
  H   H32       1.0  0.64855  0.42090  0.91835  1.0000
  C   C1        1.0  0.61849  0.62274  0.22281  1.0000
  C   C2        1.0  0.11849  0.87727  0.27719  1.0000
  C   C3        1.0  0.38151  0.37727  0.77719  1.0000
  C   C4        1.0  0.88150  0.12273  0.72281  1.0000
  C   C5        1.0  0.49313  0.55874  0.23865  1.0000
  C   C6        1.0  0.99313  0.94126  0.26136  1.0000
  C   C7        1.0  0.50687  0.44127  0.76135  1.0000
  C   C8        1.0  0.00687  0.05874  0.73865  1.0000
  C   C9        1.0  0.54409  0.00109  0.27583  1.0000
  C   C10       1.0  0.04410  0.49892  0.22417  1.0000
  C   C11       1.0  0.45590  0.99892  0.72416  1.0000
  C   C12       1.0  0.95591  0.50108  0.77583  1.0000
  C   C13       1.0  0.48140  0.94345  0.19227  1.0000
  C   C14       1.0  0.98141  0.55656  0.30774  1.0000
  C   C15       1.0  0.51858  0.05655  0.80772  1.0000
  C   C16       1.0  0.01858  0.44344  0.69227  1.0000
  C   C17       1.0  0.31969  0.66445  0.45859  1.0000
  C   C18       1.0  0.81969  0.83554  0.04141  1.0000
  C   C19       1.0  0.68030  0.33554  0.54141  1.0000
  C   C20       1.0  0.18032  0.16446  0.95859  1.0000
  C   C21       1.0  0.27146  0.59905  0.51977  1.0000
  C   C22       1.0  0.77146  0.90094  0.98023  1.0000
  C   C23       1.0  0.72854  0.40094  0.48023  1.0000
  C   C24       1.0  0.22855  0.09906  0.01977  1.0000
  C   C25       1.0  0.37053  0.58282  0.59174  1.0000
  C   C26       1.0  0.87053  0.91718  0.90826  1.0000
  C   C27       1.0  0.62947  0.41719  0.40826  1.0000
  C   C28       1.0  0.12947  0.08282  0.09174  1.0000
  C   C29       1.0  0.51408  0.63152  0.59996  1.0000
  C   C30       1.0  0.01408  0.86847  0.90005  1.0000
  C   C31       1.0  0.48591  0.36847  0.40005  1.0000
  C   C32       1.0  0.98592  0.13153  0.09996  1.0000
  C   C33       1.0  0.55486  0.69662  0.53656  1.0000
  C   C34       1.0  0.05487  0.80338  0.96345  1.0000
  C   C35       1.0  0.44513  0.30337  0.46345  1.0000
  C   C36       1.0  0.94513  0.19662  0.03656  1.0000
  C   C37       1.0  0.70229  0.75301  0.53994  1.0000
  C   C38       1.0  0.20229  0.74699  0.96007  1.0000
  C   C39       1.0  0.29772  0.24698  0.46007  1.0000
  C   C40       1.0  0.79771  0.25302  0.03993  1.0000
  C   C41       1.0  0.82409  0.73947  0.60032  1.0000
  C   C42       1.0  0.32410  0.76053  0.89969  1.0000
  C   C43       1.0  0.17591  0.26053  0.39968  1.0000
  C   C44       1.0  0.67591  0.23947  0.10032  1.0000
  C   C45       1.0  0.96251  0.79190  0.59289  1.0000
  C   C46       1.0  0.46253  0.70809  0.90712  1.0000
  C   C47       1.0  0.03748  0.20809  0.40711  1.0000
  C   C48       1.0  0.53747  0.29190  0.09289  1.0000
  C   C49       1.0  0.97635  0.85655  0.52571  1.0000
  C   C50       1.0  0.47636  0.64344  0.97430  1.0000
  C   C51       1.0  0.02366  0.14344  0.47429  1.0000
  C   C52       1.0  0.52364  0.35655  0.02570  1.0000
  C   C53       1.0  0.84903  0.86917  0.46996  1.0000
  C   C54       1.0  0.34903  0.63083  0.03005  1.0000
  C   C55       1.0  0.15098  0.13082  0.53004  1.0000
  C   C56       1.0  0.65098  0.36917  0.96996  1.0000
  N   N1        1.0  0.64517  0.72086  0.27039  1.0000
  N   N2        1.0  0.14517  0.77915  0.22962  1.0000
  N   N3        1.0  0.35483  0.27915  0.72961  1.0000
  N   N4        1.0  0.85481  0.22085  0.77038  1.0000
  N   N5        1.0  0.77703  0.75014  0.23644  1.0000
  N   N6        1.0  0.27703  0.74987  0.26357  1.0000
  N   N7        1.0  0.22298  0.24987  0.76356  1.0000
  N   N8        1.0  0.72296  0.25013  0.73643  1.0000
  N   N9        1.0  0.82583  0.67197  0.17051  1.0000
  N   N10       1.0  0.32583  0.82803  0.32950  1.0000
  N   N11       1.0  0.17418  0.32803  0.82950  1.0000
  N   N12       1.0  0.67418  0.17196  0.67050  1.0000
  N   N13       1.0  0.73012  0.59051  0.15961  1.0000
  N   N14       1.0  0.23012  0.90950  0.34039  1.0000
  N   N15       1.0  0.26988  0.40950  0.84039  1.0000
  N   N16       1.0  0.76988  0.09050  0.65960  1.0000
  N   N17       1.0  0.39288  0.50298  0.25130  1.0000
  N   N18       1.0  0.89287  0.99704  0.24870  1.0000
  N   N19       1.0  0.60712  0.49703  0.74870  1.0000
  N   N20       1.0  0.10712  0.00298  0.75130  1.0000
  N   N21       1.0  0.57762  0.96413  0.35591  1.0000
  N   N22       1.0  0.07762  0.53587  0.14409  1.0000
  N   N23       1.0  0.42239  0.03587  0.64409  1.0000
  N   N24       1.0  0.92238  0.46413  0.85591  1.0000
  N   N25       1.0  0.63881  0.04560  0.41427  1.0000
  N   N26       1.0  0.13880  0.45440  0.08573  1.0000
  N   N27       1.0  0.36121  0.95441  0.58572  1.0000
  N   N28       1.0  0.86120  0.54559  0.91427  1.0000
  N   N29       1.0  0.64250  0.12740  0.37078  1.0000
  N   N30       1.0  0.14249  0.37261  0.12921  1.0000
  N   N31       1.0  0.35751  0.87261  0.62920  1.0000
  N   N32       1.0  0.85751  0.62739  0.87079  1.0000
  N   N33       1.0  0.58285  0.10260  0.28404  1.0000
  N   N34       1.0  0.08285  0.39741  0.21596  1.0000
  N   N35       1.0  0.41714  0.89740  0.71595  1.0000
  N   N36       1.0  0.91716  0.60259  0.78404  1.0000
  N   N37       1.0  0.43040  0.89949  0.12127  1.0000
  N   N38       1.0  0.93040  0.60052  0.37873  1.0000
  N   N39       1.0  0.56959  0.10051  0.87872  1.0000
  N   N40       1.0  0.06961  0.39948  0.62126  1.0000
  N   N41       1.0  0.45755  0.71206  0.46662  1.0000
  N   N42       1.0  0.95755  0.78794  0.03338  1.0000
  N   N43       1.0  0.54245  0.28794  0.53337  1.0000
  N   N44       1.0  0.04246  0.21206  0.96663  1.0000
  N   N45       1.0  0.71536  0.81928  0.47733  1.0000
  N   N46       1.0  0.21536  0.68072  0.02267  1.0000
  N   N47       1.0  0.28464  0.18072  0.52267  1.0000
  N   N48       1.0  0.78464  0.31927  0.97733  1.0000
