data_image0
_chemical_formula_structural       Tb2H12C12O18
_chemical_formula_sum              "Tb2 H12 C12 O18"
_cell_length_a       8.23766
_cell_length_b       8.48294
_cell_length_c       8.94138
_cell_angle_alpha    94.4441
_cell_angle_beta     116.803
_cell_angle_gamma    111.058

_space_group_name_H-M_alt    "P 1"
_space_group_IT_number       1

loop_
  _space_group_symop_operation_xyz
  'x, y, z'

loop_
  _atom_site_type_symbol
  _atom_site_label
  _atom_site_symmetry_multiplicity
  _atom_site_fract_x
  _atom_site_fract_y
  _atom_site_fract_z
  _atom_site_occupancy
  Tb  Tb1       1.0  0.08799  0.51688  0.77071  1.0000
  Tb  Tb2       1.0  0.91201  0.48312  0.22929  1.0000
  H   H1        1.0  0.29370  0.90347  0.81597  1.0000
  H   H2        1.0  0.70630  0.09653  0.18403  1.0000
  H   H3        1.0  0.19873  0.80316  0.61744  1.0000
  H   H4        1.0  0.80127  0.19684  0.38256  1.0000
  H   H5        1.0  0.16142  0.22242  0.90014  1.0000
  H   H6        1.0  0.83858  0.77758  0.09986  1.0000
  H   H7        1.0  0.35582  0.39531  0.05782  1.0000
  H   H8        1.0  0.64417  0.60470  0.94218  1.0000
  H   H9        1.0  0.90227  0.69406  0.90409  1.0000
  H   H10       1.0  0.09773  0.30594  0.09591  1.0000
  H   H11       1.0  0.96535  0.81930  0.79353  1.0000
  H   H12       1.0  0.03465  0.18070  0.20647  1.0000
  C   C1        1.0  0.33580  0.50656  0.61469  1.0000
  C   C2        1.0  0.66420  0.49344  0.38531  1.0000
  C   C3        1.0  0.69773  0.92635  0.47785  1.0000
  C   C4        1.0  0.30226  0.07365  0.52214  1.0000
  C   C5        1.0  0.89301  0.05902  0.61798  1.0000
  C   C6        1.0  0.10699  0.94098  0.38202  1.0000
  C   C7        1.0  0.45531  0.50296  0.53778  1.0000
  C   C8        1.0  0.54469  0.49704  0.46222  1.0000
  C   C9        1.0  0.53215  0.83159  0.34935  1.0000
  C   C10       1.0  0.46786  0.16841  0.65066  1.0000
  C   C11       1.0  0.34095  0.71906  0.19046  1.0000
  C   C12       1.0  0.65905  0.28094  0.80954  1.0000
  O   O1        1.0  0.40123  0.51862  0.77583  1.0000
  O   O2        1.0  0.59876  0.48138  0.22417  1.0000
  O   O3        1.0  0.94099  0.21321  0.59562  1.0000
  O   O4        1.0  0.05901  0.78679  0.40439  1.0000
  O   O5        1.0  0.26500  0.79625  0.74044  1.0000
  O   O6        1.0  0.73500  0.20375  0.25956  1.0000
  O   O7        1.0  0.15982  0.49593  0.51589  1.0000
  O   O8        1.0  0.84018  0.50407  0.48411  1.0000
  O   O9        1.0  0.20752  0.34401  0.96988  1.0000
  O   O10       1.0  0.79248  0.65599  0.03012  1.0000
  O   O11       1.0  0.96695  0.71306  0.83201  1.0000
  O   O12       1.0  0.03305  0.28694  0.16798  1.0000
  O   O13       1.0  0.34962  0.70510  0.05216  1.0000
  O   O14       1.0  0.65038  0.29490  0.94784  1.0000
  O   O15       1.0  0.00217  0.02080  0.74887  1.0000
  O   O16       1.0  0.99783  0.97920  0.25113  1.0000
  O   O17       1.0  0.18376  0.64451  0.19994  1.0000
  O   O18       1.0  0.81623  0.35549  0.80006  1.0000
