data_image0
_chemical_formula_structural       Zn4H36C44N20O24
_chemical_formula_sum              "Zn4 H36 C44 N20 O24"
_cell_length_a       10.2696
_cell_length_b       11.2436
_cell_length_c       13.8871
_cell_angle_alpha    90.0001
_cell_angle_beta     99.296
_cell_angle_gamma    90

_space_group_name_H-M_alt    "P 1"
_space_group_IT_number       1

loop_
  _space_group_symop_operation_xyz
  'x, y, z'

loop_
  _atom_site_type_symbol
  _atom_site_label
  _atom_site_symmetry_multiplicity
  _atom_site_fract_x
  _atom_site_fract_y
  _atom_site_fract_z
  _atom_site_occupancy
  Zn  Zn1       1.0  0.60361  0.57492  0.27183  1.0000
  Zn  Zn2       1.0  0.39639  0.07492  0.22817  1.0000
  Zn  Zn3       1.0  0.39639  0.42508  0.72817  1.0000
  Zn  Zn4       1.0  0.60361  0.92508  0.77183  1.0000
  H   H1        1.0  0.77001  0.33571  0.28120  1.0000
  H   H2        1.0  0.22999  0.83571  0.21880  1.0000
  H   H3        1.0  0.22999  0.66429  0.71880  1.0000
  H   H4        1.0  0.77001  0.16429  0.78120  1.0000
  H   H5        1.0  0.92724  0.23280  0.40780  1.0000
  H   H6        1.0  0.07276  0.73280  0.09220  1.0000
  H   H7        1.0  0.07276  0.76720  0.59220  1.0000
  H   H8        1.0  0.92724  0.26720  0.90780  1.0000
  H   H9        1.0  0.96634  0.31578  0.58038  1.0000
  H   H10       1.0  0.03366  0.81578  0.91962  1.0000
  H   H11       1.0  0.03366  0.68422  0.41962  1.0000
  H   H12       1.0  0.96634  0.18422  0.08038  1.0000
  H   H13       1.0  0.84481  0.50052  0.61401  1.0000
  H   H14       1.0  0.15519  0.00052  0.88599  1.0000
  H   H15       1.0  0.15519  0.49948  0.38599  1.0000
  H   H16       1.0  0.84481  0.99948  0.11401  1.0000
  H   H17       1.0  0.68248  0.65824  0.55513  1.0000
  H   H18       1.0  0.31752  0.15824  0.94487  1.0000
  H   H19       1.0  0.31753  0.34176  0.44487  1.0000
  H   H20       1.0  0.68248  0.84176  0.05513  1.0000
  H   H21       1.0  0.45875  0.71613  0.55391  1.0000
  H   H22       1.0  0.54125  0.21613  0.94609  1.0000
  H   H23       1.0  0.54125  0.28387  0.44608  1.0000
  H   H24       1.0  0.45875  0.78387  0.05391  1.0000
  H   H25       1.0  0.30534  0.88814  0.55313  1.0000
  H   H26       1.0  0.69466  0.38814  0.94687  1.0000
  H   H27       1.0  0.69466  0.11186  0.44687  1.0000
  H   H28       1.0  0.30534  0.61186  0.05313  1.0000
  H   H29       1.0  0.28405  0.03404  0.41374  1.0000
  H   H30       1.0  0.71596  0.53404  0.08626  1.0000
  H   H31       1.0  0.71595  0.96596  0.58626  1.0000
  H   H32       1.0  0.28404  0.46596  0.91374  1.0000
  H   H33       1.0  0.55088  0.84448  0.27922  1.0000
  H   H34       1.0  0.44912  0.34448  0.22078  1.0000
  H   H35       1.0  0.44912  0.15552  0.72078  1.0000
  H   H36       1.0  0.55088  0.65552  0.77922  1.0000
  C   C1        1.0  0.78920  0.37030  0.35538  1.0000
  C   C2        1.0  0.21080  0.87030  0.14462  1.0000
  C   C3        1.0  0.21080  0.62970  0.64462  1.0000
  C   C4        1.0  0.78920  0.12970  0.85538  1.0000
  C   C5        1.0  0.87706  0.31211  0.42769  1.0000
  C   C6        1.0  0.12294  0.81211  0.07231  1.0000
  C   C7        1.0  0.12293  0.68789  0.57231  1.0000
  C   C8        1.0  0.87707  0.18789  0.92769  1.0000
  C   C9        1.0  0.89848  0.35813  0.52195  1.0000
  C   C10       1.0  0.10152  0.85814  0.97805  1.0000
  C   C11       1.0  0.10152  0.64186  0.47805  1.0000
  C   C12       1.0  0.89848  0.14187  0.02195  1.0000
  C   C13       1.0  0.83171  0.46150  0.54132  1.0000
  C   C14       1.0  0.16829  0.96150  0.95868  1.0000
  C   C15       1.0  0.16829  0.53850  0.45868  1.0000
  C   C16       1.0  0.83171  0.03850  0.04132  1.0000
  C   C17       1.0  0.74555  0.51447  0.46548  1.0000
  C   C18       1.0  0.25445  0.01447  0.03452  1.0000
  C   C19       1.0  0.25445  0.48553  0.53452  1.0000
  C   C20       1.0  0.74555  0.98553  0.96548  1.0000
  C   C21       1.0  0.67221  0.62202  0.48101  1.0000
  C   C22       1.0  0.32779  0.12202  0.01899  1.0000
  C   C23       1.0  0.32779  0.37798  0.51899  1.0000
  C   C24       1.0  0.67221  0.87798  0.98101  1.0000
  C   C25       1.0  0.51803  0.76806  0.41693  1.0000
  C   C26       1.0  0.48197  0.26807  0.08307  1.0000
  C   C27       1.0  0.48197  0.23194  0.58308  1.0000
  C   C28       1.0  0.51803  0.73194  0.91692  1.0000
  C   C29       1.0  0.44772  0.78088  0.49476  1.0000
  C   C30       1.0  0.55228  0.28088  0.00524  1.0000
  C   C31       1.0  0.55228  0.21912  0.50524  1.0000
  C   C32       1.0  0.44772  0.71912  0.99476  1.0000
  C   C33       1.0  0.36164  0.87660  0.49387  1.0000
  C   C34       1.0  0.63836  0.37660  0.00613  1.0000
  C   C35       1.0  0.63836  0.12339  0.50613  1.0000
  C   C36       1.0  0.36164  0.62340  0.99387  1.0000
  C   C37       1.0  0.34905  0.95711  0.41700  1.0000
  C   C38       1.0  0.65096  0.45711  0.08300  1.0000
  C   C39       1.0  0.65096  0.04289  0.58300  1.0000
  C   C40       1.0  0.34904  0.54289  0.91700  1.0000
  C   C41       1.0  0.49873  0.85230  0.34140  1.0000
  C   C42       1.0  0.50127  0.35230  0.15860  1.0000
  C   C43       1.0  0.50127  0.14771  0.65860  1.0000
  C   C44       1.0  0.49873  0.64771  0.84140  1.0000
  N   N1        1.0  0.72479  0.46877  0.37376  1.0000
  N   N2        1.0  0.27521  0.96877  0.12624  1.0000
  N   N3        1.0  0.27520  0.53123  0.62624  1.0000
  N   N4        1.0  0.72480  0.03123  0.87376  1.0000
  N   N5        1.0  0.60016  0.67094  0.40678  1.0000
  N   N6        1.0  0.39984  0.17094  0.09322  1.0000
  N   N7        1.0  0.39984  0.32906  0.59322  1.0000
  N   N8        1.0  0.60016  0.82906  0.90678  1.0000
  N   N9        1.0  0.41726  0.94531  0.34220  1.0000
  N   N10       1.0  0.58274  0.44531  0.15780  1.0000
  N   N11       1.0  0.58274  0.05469  0.65780  1.0000
  N   N12       1.0  0.41726  0.55469  0.84220  1.0000
  N   N13       1.0  0.33305  0.57386  0.25905  1.0000
  N   N14       1.0  0.66694  0.07386  0.24095  1.0000
  N   N15       1.0  0.66695  0.42614  0.74095  1.0000
  N   N16       1.0  0.33305  0.92614  0.75905  1.0000
  N   N17       1.0  0.81188  0.72418  0.22432  1.0000
  N   N18       1.0  0.18812  0.22418  0.27569  1.0000
  N   N19       1.0  0.18812  0.27582  0.77568  1.0000
  N   N20       1.0  0.81188  0.77582  0.72431  1.0000
  O   O1        1.0  0.41101  0.64175  0.21782  1.0000
  O   O2        1.0  0.58900  0.14175  0.28218  1.0000
  O   O3        1.0  0.58900  0.35825  0.78218  1.0000
  O   O4        1.0  0.41100  0.85825  0.71782  1.0000
  O   O5        1.0  0.38688  0.49471  0.31761  1.0000
  O   O6        1.0  0.61312  0.99472  0.18239  1.0000
  O   O7        1.0  0.61312  0.50528  0.68239  1.0000
  O   O8        1.0  0.38688  0.00529  0.81761  1.0000
  O   O9        1.0  0.21175  0.58841  0.23984  1.0000
  O   O10       1.0  0.78825  0.08841  0.26016  1.0000
  O   O11       1.0  0.78825  0.41159  0.76016  1.0000
  O   O12       1.0  0.21175  0.91158  0.73985  1.0000
  O   O13       1.0  0.68840  0.69520  0.18882  1.0000
  O   O14       1.0  0.31160  0.19520  0.31118  1.0000
  O   O15       1.0  0.31160  0.30480  0.81118  1.0000
  O   O16       1.0  0.68840  0.80480  0.68882  1.0000
  O   O17       1.0  0.87370  0.78411  0.17156  1.0000
  O   O18       1.0  0.12630  0.28411  0.32844  1.0000
  O   O19       1.0  0.12630  0.21589  0.82844  1.0000
  O   O20       1.0  0.87370  0.71589  0.67156  1.0000
  O   O21       1.0  0.85896  0.68939  0.30815  1.0000
  O   O22       1.0  0.14105  0.18940  0.19185  1.0000
  O   O23       1.0  0.14105  0.31061  0.69185  1.0000
  O   O24       1.0  0.85896  0.81061  0.80815  1.0000
