data_image0
_chemical_formula_structural       Sn4H48C24S8N8
_chemical_formula_sum              "Sn4 H48 C24 S8 N8"
_cell_length_a       9.56709
_cell_length_b       10.2408
_cell_length_c       11.8556
_cell_angle_alpha    107.29
_cell_angle_beta     96.3084
_cell_angle_gamma    100.533

_space_group_name_H-M_alt    "P 1"
_space_group_IT_number       1

loop_
  _space_group_symop_operation_xyz
  'x, y, z'

loop_
  _atom_site_type_symbol
  _atom_site_label
  _atom_site_symmetry_multiplicity
  _atom_site_fract_x
  _atom_site_fract_y
  _atom_site_fract_z
  _atom_site_occupancy
  Sn  Sn1       1.0  0.30646  0.23686  0.66851  1.0000
  Sn  Sn2       1.0  0.69353  0.76313  0.33149  1.0000
  Sn  Sn3       1.0  0.19118  0.27213  0.17039  1.0000
  Sn  Sn4       1.0  0.80882  0.72788  0.82961  1.0000
  H   H1        1.0  0.67341  0.19432  0.26257  1.0000
  H   H2        1.0  0.32659  0.80568  0.73743  1.0000
  H   H3        1.0  0.50833  0.06805  0.23195  1.0000
  H   H4        1.0  0.49167  0.93195  0.76805  1.0000
  H   H5        1.0  0.51345  0.24807  0.30279  1.0000
  H   H6        1.0  0.48655  0.75193  0.69721  1.0000
  H   H7        1.0  0.41227  0.09678  0.47553  1.0000
  H   H8        1.0  0.58773  0.90321  0.52446  1.0000
  H   H9        1.0  0.50297  0.27852  0.52578  1.0000
  H   H10       1.0  0.49703  0.72148  0.47422  1.0000
  H   H11       1.0  0.32389  0.22272  0.43854  1.0000
  H   H12       1.0  0.67611  0.77727  0.56146  1.0000
  H   H13       1.0  0.42737  0.51060  0.78623  1.0000
  H   H14       1.0  0.57262  0.48940  0.21376  1.0000
  H   H15       1.0  0.33164  0.43844  0.88231  1.0000
  H   H16       1.0  0.66836  0.56157  0.11769  1.0000
  H   H17       1.0  0.23551  0.48874  0.76830  1.0000
  H   H18       1.0  0.76449  0.51125  0.23169  1.0000
  H   H19       1.0  0.23037  0.96782  0.66033  1.0000
  H   H20       1.0  0.76964  0.03218  0.33969  1.0000
  H   H21       1.0  0.06934  0.02286  0.62403  1.0000
  H   H22       1.0  0.93066  0.97713  0.37598  1.0000
  H   H23       1.0  0.15637  0.07107  0.77785  1.0000
  H   H24       1.0  0.84364  0.92894  0.22217  1.0000
  H   H25       1.0  0.81896  0.29003  0.71832  1.0000
  H   H26       1.0  0.18103  0.70996  0.28167  1.0000
  H   H27       1.0  0.99783  0.38834  0.78309  1.0000
  H   H28       1.0  0.00215  0.61167  0.21690  1.0000
  H   H29       1.0  0.95945  0.20164  0.73289  1.0000
  H   H30       1.0  0.04055  0.79837  0.26711  1.0000
  H   H31       1.0  0.35109  0.53667  0.27991  1.0000
  H   H32       1.0  0.64891  0.46333  0.72010  1.0000
  H   H33       1.0  0.43608  0.42176  0.33666  1.0000
  H   H34       1.0  0.56391  0.57824  0.66334  1.0000
  H   H35       1.0  0.27822  0.46669  0.38942  1.0000
  H   H36       1.0  0.72178  0.53331  0.61058  1.0000
  H   H37       1.0  0.06419  0.99550  0.10109  1.0000
  H   H38       1.0  0.93583  0.00449  0.89891  1.0000
  H   H39       1.0  0.11752  0.06221  0.26105  1.0000
  H   H40       1.0  0.88249  0.93780  0.73895  1.0000
  H   H41       1.0  0.24867  0.01882  0.16715  1.0000
  H   H42       1.0  0.75135  0.98119  0.83287  1.0000
  H   H43       1.0  0.99908  0.24607  0.97316  1.0000
  H   H44       1.0  0.00092  0.75394  0.02684  1.0000
  H   H45       1.0  0.17940  0.30721  0.95165  1.0000
  H   H46       1.0  0.82060  0.69280  0.04835  1.0000
  H   H47       1.0  0.08940  0.42635  0.04438  1.0000
  H   H48       1.0  0.91061  0.57365  0.95562  1.0000
  C   C1        1.0  0.51939  0.20691  0.91403  1.0000
  C   C2        1.0  0.48061  0.79309  0.08597  1.0000
  C   C3        1.0  0.52546  0.19406  0.11572  1.0000
  C   C4        1.0  0.47455  0.80594  0.88428  1.0000
  C   C5        1.0  0.55637  0.17560  0.23475  1.0000
  C   C6        1.0  0.44363  0.82440  0.76525  1.0000
  C   C7        1.0  0.39784  0.20488  0.50676  1.0000
  C   C8        1.0  0.60216  0.79511  0.49324  1.0000
  C   C9        1.0  0.32631  0.44444  0.79133  1.0000
  C   C10       1.0  0.67369  0.55556  0.20866  1.0000
  C   C11       1.0  0.17302  0.05257  0.68506  1.0000
  C   C12       1.0  0.82699  0.94743  0.31495  1.0000
  C   C13       1.0  0.97721  0.30672  0.39246  1.0000
  C   C14       1.0  0.02279  0.69328  0.60754  1.0000
  C   C15       1.0  0.96499  0.29359  0.59312  1.0000
  C   C16       1.0  0.03500  0.70641  0.40688  1.0000
  C   C17       1.0  0.93306  0.29320  0.71302  1.0000
  C   C18       1.0  0.06693  0.70680  0.28697  1.0000
  C   C19       1.0  0.33247  0.44560  0.31158  1.0000
  C   C20       1.0  0.66752  0.55440  0.68842  1.0000
  C   C21       1.0  0.15133  0.06036  0.17548  1.0000
  C   C22       1.0  0.84869  0.93965  0.82453  1.0000
  C   C23       1.0  0.10403  0.31828  0.01502  1.0000
  C   C24       1.0  0.89597  0.68172  0.98498  1.0000
  S   S1        1.0  0.64510  0.17592  0.01646  1.0000
  S   S2        1.0  0.35489  0.82407  0.98354  1.0000
  S   S3        1.0  0.55323  0.20197  0.77379  1.0000
  S   S4        1.0  0.44676  0.79802  0.22621  1.0000
  S   S5        1.0  0.84940  0.32676  0.48816  1.0000
  S   S6        1.0  0.15059  0.67324  0.51184  1.0000
  S   S7        1.0  0.94693  0.32085  0.25209  1.0000
  S   S8        1.0  0.05307  0.67915  0.74791  1.0000
  N   N1        1.0  0.40169  0.23060  0.95819  1.0000
  N   N2        1.0  0.59831  0.76940  0.04181  1.0000
  N   N3        1.0  0.40659  0.22327  0.07172  1.0000
  N   N4        1.0  0.59341  0.77674  0.92828  1.0000
  N   N5        1.0  0.09394  0.27891  0.44264  1.0000
  N   N6        1.0  0.90605  0.72108  0.55736  1.0000
  N   N7        1.0  0.08546  0.27162  0.55464  1.0000
  N   N8        1.0  0.91454  0.72837  0.44536  1.0000
