data_image0
_chemical_formula_structural       UP2H24C18N2O14
_chemical_formula_sum              "U1 P2 H24 C18 N2 O14"
_cell_length_a       6.8536
_cell_length_b       8.21825
_cell_length_c       11.8638
_cell_angle_alpha    81.8077
_cell_angle_beta     83.3974
_cell_angle_gamma    86.7817

_space_group_name_H-M_alt    "P 1"
_space_group_IT_number       1

loop_
  _space_group_symop_operation_xyz
  'x, y, z'

loop_
  _atom_site_type_symbol
  _atom_site_label
  _atom_site_symmetry_multiplicity
  _atom_site_fract_x
  _atom_site_fract_y
  _atom_site_fract_z
  _atom_site_occupancy
  U   U1        1.0  0.49999  1.00000  0.50000  1.0000
  P   P1        1.0  0.40450  0.66981  0.76261  1.0000
  P   P2        1.0  0.59550  0.33020  0.23739  1.0000
  H   H1        1.0  0.59265  0.02498  0.77884  1.0000
  H   H2        1.0  0.40733  0.97503  0.22117  1.0000
  H   H3        1.0  0.88432  0.13983  0.83068  1.0000
  H   H4        1.0  0.11567  0.86019  0.16933  1.0000
  H   H5        1.0  0.90029  0.75507  0.11972  1.0000
  H   H6        1.0  0.09976  0.24491  0.88026  1.0000
  H   H7        1.0  0.61085  0.64046  0.06446  1.0000
  H   H8        1.0  0.38919  0.35951  0.93554  1.0000
  H   H9        1.0  0.27612  0.85775  0.88284  1.0000
  H   H10       1.0  0.72388  0.14224  0.11718  1.0000
  H   H11       1.0  0.33206  0.66569  0.96285  1.0000
  H   H12       1.0  0.66797  0.33429  0.03716  1.0000
  H   H13       1.0  0.04127  0.80407  0.70984  1.0000
  H   H14       1.0  0.95873  0.19595  0.29015  1.0000
  H   H15       1.0  0.90503  0.62376  0.76310  1.0000
  H   H16       1.0  0.09496  0.37626  0.23689  1.0000
  H   H17       1.0  0.03810  0.64228  0.62257  1.0000
  H   H18       1.0  0.96192  0.35774  0.37743  1.0000
  H   H19       1.0  0.47537  0.31400  0.71518  1.0000
  H   H20       1.0  0.52462  0.68599  0.28483  1.0000
  H   H21       1.0  0.73406  0.34760  0.70090  1.0000
  H   H22       1.0  0.26592  0.65241  0.29908  1.0000
  H   H23       1.0  0.58204  0.47206  0.60755  1.0000
  H   H24       1.0  0.41791  0.52793  0.39245  1.0000
  C   C1        1.0  0.57819  0.82499  0.91894  1.0000
  C   C2        1.0  0.42183  0.17501  0.08106  1.0000
  C   C3        1.0  0.65947  0.96543  0.85385  1.0000
  C   C4        1.0  0.34053  0.03457  0.14615  1.0000
  C   C5        1.0  0.82534  0.03125  0.88433  1.0000
  C   C6        1.0  0.17465  0.96875  0.11567  1.0000
  C   C7        1.0  0.91566  0.96127  0.98181  1.0000
  C   C8        1.0  0.08435  0.03872  0.01819  1.0000
  C   C9        1.0  0.83680  0.81639  0.04405  1.0000
  C   C10       1.0  0.16324  0.18360  0.95594  1.0000
  C   C11       1.0  0.67192  0.74989  0.01274  1.0000
  C   C12       1.0  0.32811  0.25010  0.98725  1.0000
  C   C13       1.0  0.39041  0.75866  0.89298  1.0000
  C   C14       1.0  0.60961  0.24133  0.10703  1.0000
  C   C15       1.0  0.03628  0.67092  0.71002  1.0000
  C   C16       1.0  0.96372  0.32909  0.28998  1.0000
  C   C17       1.0  0.58819  0.40587  0.69420  1.0000
  C   C18       1.0  0.41178  0.59412  0.30580  1.0000
  N   N1        1.0  0.81721  0.79112  0.38953  1.0000
  N   N2        1.0  0.18278  0.20889  0.61047  1.0000
  O   O1        1.0  0.32073  0.90453  0.43317  1.0000
  O   O2        1.0  0.67926  0.09546  0.56683  1.0000
  O   O3        1.0  0.45605  0.79105  0.65781  1.0000
  O   O4        1.0  0.54394  0.20895  0.34219  1.0000
  O   O5        1.0  0.20402  0.58431  0.76086  1.0000
  O   O6        1.0  0.79598  0.41570  0.23915  1.0000
  O   O7        1.0  0.55911  0.52036  0.77903  1.0000
  O   O8        1.0  0.44088  0.47964  0.22097  1.0000
  O   O9        1.0  0.75671  0.93159  0.33938  1.0000
  O   O10       1.0  0.24327  0.06842  0.66062  1.0000
  O   O11       1.0  0.94330  0.70303  0.34330  1.0000
  O   O12       1.0  0.05670  0.29697  0.65670  1.0000
  O   O13       1.0  0.73236  0.74974  0.49128  1.0000
  O   O14       1.0  0.26762  0.25026  0.50872  1.0000
