data_image0
_chemical_formula_structural       Pr2H12C12O18
_chemical_formula_sum              "Pr2 H12 C12 O18"
_cell_length_a       8.30189
_cell_length_b       8.62784
_cell_length_c       9.10219
_cell_angle_alpha    94.6667
_cell_angle_beta     116.435
_cell_angle_gamma    111.196

_space_group_name_H-M_alt    "P 1"
_space_group_IT_number       1

loop_
  _space_group_symop_operation_xyz
  'x, y, z'

loop_
  _atom_site_type_symbol
  _atom_site_label
  _atom_site_symmetry_multiplicity
  _atom_site_fract_x
  _atom_site_fract_y
  _atom_site_fract_z
  _atom_site_occupancy
  Pr  Pr1       1.0  0.08881  0.02111  0.27542  1.0000
  Pr  Pr2       1.0  0.91119  0.97889  0.72458  1.0000
  H   H1        1.0  0.30629  0.41601  0.30870  1.0000
  H   H2        1.0  0.69371  0.58399  0.69130  1.0000
  H   H3        1.0  0.20523  0.30920  0.11535  1.0000
  H   H4        1.0  0.79477  0.69080  0.88465  1.0000
  H   H5        1.0  0.35429  0.88847  0.56104  1.0000
  H   H6        1.0  0.64571  0.11153  0.43896  1.0000
  H   H7        1.0  0.16228  0.72136  0.40008  1.0000
  H   H8        1.0  0.83772  0.27864  0.59992  1.0000
  H   H9        1.0  0.90276  0.20653  0.40652  1.0000
  H   H10       1.0  0.09723  0.79347  0.59348  1.0000
  H   H11       1.0  0.96791  0.33007  0.29841  1.0000
  H   H12       1.0  0.03209  0.66993  0.70159  1.0000
  C   C1        1.0  0.35592  0.22303  0.69146  1.0000
  C   C2        1.0  0.64408  0.77697  0.30854  1.0000
  C   C3        1.0  0.53895  0.33019  0.85303  1.0000
  C   C4        1.0  0.46105  0.66981  0.14696  1.0000
  C   C5        1.0  0.33957  0.00666  0.11598  1.0000
  C   C6        1.0  0.66043  0.99334  0.88402  1.0000
  C   C7        1.0  0.88982  0.55841  0.12038  1.0000
  C   C8        1.0  0.11018  0.44159  0.87962  1.0000
  C   C9        1.0  0.69920  0.42441  0.98221  1.0000
  C   C10       1.0  0.30081  0.57559  0.01779  1.0000
  C   C11       1.0  0.45627  0.00297  0.03786  1.0000
  C   C12       1.0  0.54374  0.99702  0.96215  1.0000
  O   O1        1.0  0.20858  0.83965  0.47243  1.0000
  O   O2        1.0  0.79142  0.16035  0.52757  1.0000
  O   O3        1.0  0.40802  0.02107  0.27459  1.0000
  O   O4        1.0  0.59198  0.97893  0.72541  1.0000
  O   O5        1.0  0.37441  0.22098  0.56016  1.0000
  O   O6        1.0  0.62558  0.77902  0.43984  1.0000
  O   O7        1.0  0.26915  0.30513  0.23652  1.0000
  O   O8        1.0  0.73085  0.69487  0.76348  1.0000
  O   O9        1.0  0.96945  0.22616  0.33742  1.0000
  O   O10       1.0  0.03055  0.77384  0.66258  1.0000
  O   O11       1.0  0.19411  0.14080  0.69058  1.0000
  O   O12       1.0  0.80589  0.85920  0.30943  1.0000
  O   O13       1.0  0.16400  0.99376  0.02013  1.0000
  O   O14       1.0  0.83600  0.00624  0.97987  1.0000
  O   O15       1.0  0.93210  0.70950  0.09745  1.0000
  O   O16       1.0  0.06790  0.29050  0.90255  1.0000
  O   O17       1.0  0.00057  0.52405  0.24918  1.0000
  O   O18       1.0  0.99943  0.47595  0.75081  1.0000
