data_image0
_chemical_formula_structural       Sm2H12C12O18
_chemical_formula_sum              "Sm2 H12 C12 O18"
_cell_length_a       8.27046
_cell_length_b       8.54124
_cell_length_c       9.01584
_cell_angle_alpha    94.6079
_cell_angle_beta     116.658
_cell_angle_gamma    111.043

_space_group_name_H-M_alt    "P 1"
_space_group_IT_number       1

loop_
  _space_group_symop_operation_xyz
  'x, y, z'

loop_
  _atom_site_type_symbol
  _atom_site_label
  _atom_site_symmetry_multiplicity
  _atom_site_fract_x
  _atom_site_fract_y
  _atom_site_fract_z
  _atom_site_occupancy
  Sm  Sm1       1.0  0.41135  0.98154  0.22764  1.0000
  Sm  Sm2       1.0  0.58864  0.01846  0.77236  1.0000
  H   H1        1.0  0.14489  0.10737  0.94040  1.0000
  H   H2        1.0  0.85511  0.89263  0.05960  1.0000
  H   H3        1.0  0.59768  0.80087  0.09498  1.0000
  H   H4        1.0  0.40231  0.19913  0.90503  1.0000
  H   H5        1.0  0.53347  0.67606  0.20408  1.0000
  H   H6        1.0  0.46653  0.32393  0.79592  1.0000
  H   H7        1.0  0.29853  0.69334  0.38298  1.0000
  H   H8        1.0  0.70147  0.30666  0.61702  1.0000
  H   H9        1.0  0.20156  0.59062  0.18674  1.0000
  H   H10       1.0  0.79844  0.40939  0.81326  1.0000
  H   H11       1.0  0.33793  0.27794  0.09957  1.0000
  H   H12       1.0  0.66206  0.72206  0.90043  1.0000
  C   C1        1.0  0.15256  0.77892  0.80830  1.0000
  C   C2        1.0  0.84744  0.22108  0.19170  1.0000
  C   C3        1.0  0.96431  0.66897  0.64849  1.0000
  C   C4        1.0  0.03567  0.33102  0.35150  1.0000
  C   C5        1.0  0.60736  0.44169  0.38086  1.0000
  C   C6        1.0  0.39265  0.55832  0.61914  1.0000
  C   C7        1.0  0.16222  0.99327  0.38446  1.0000
  C   C8        1.0  0.83779  0.00673  0.61555  1.0000
  C   C9        1.0  0.80082  0.57478  0.51985  1.0000
  C   C10       1.0  0.19919  0.42523  0.48016  1.0000
  C   C11       1.0  0.04407  0.99700  0.46202  1.0000
  C   C12       1.0  0.95593  0.00300  0.53798  1.0000
  O   O1        1.0  0.14062  0.78837  0.94404  1.0000
  O   O2        1.0  0.85938  0.21164  0.05596  1.0000
  O   O3        1.0  0.29198  0.15762  0.02884  1.0000
  O   O4        1.0  0.70802  0.84238  0.97116  1.0000
  O   O5        1.0  0.09540  0.98021  0.22445  1.0000
  O   O6        1.0  0.90460  0.01979  0.77555  1.0000
  O   O7        1.0  0.23273  0.69911  0.26088  1.0000
  O   O8        1.0  0.76727  0.30089  0.73912  1.0000
  O   O9        1.0  0.33797  0.00489  0.48184  1.0000
  O   O10       1.0  0.66203  0.99512  0.51817  1.0000
  O   O11       1.0  0.31119  0.85601  0.80252  1.0000
  O   O12       1.0  0.68881  0.14399  0.19748  1.0000
  O   O13       1.0  0.53246  0.78176  0.16597  1.0000
  O   O14       1.0  0.46754  0.21824  0.83403  1.0000
  O   O15       1.0  0.56139  0.28903  0.40382  1.0000
  O   O16       1.0  0.43861  0.71097  0.59618  1.0000
  O   O17       1.0  0.49762  0.47788  0.25059  1.0000
  O   O18       1.0  0.50239  0.52212  0.74942  1.0000
