data_image0
_chemical_formula_structural       FeH24C34S2N14O2
_chemical_formula_sum              "Fe1 H24 C34 S2 N14 O2"
_cell_length_a       9.2487
_cell_length_b       9.04949
_cell_length_c       11.5406
_cell_angle_alpha    101.859
_cell_angle_beta     101.248
_cell_angle_gamma    103.018

_space_group_name_H-M_alt    "P 1"
_space_group_IT_number       1

loop_
  _space_group_symop_operation_xyz
  'x, y, z'

loop_
  _atom_site_type_symbol
  _atom_site_label
  _atom_site_symmetry_multiplicity
  _atom_site_fract_x
  _atom_site_fract_y
  _atom_site_fract_z
  _atom_site_occupancy
  Fe  Fe1       1.0  0.01786  0.01319  0.49977  1.0000
  H   H1        1.0  0.03006  0.65522  0.51547  1.0000
  H   H2        1.0  0.97048  0.36421  0.48389  1.0000
  H   H3        1.0  0.09980  0.88628  0.24200  1.0000
  H   H4        1.0  0.92619  0.12792  0.75820  1.0000
  H   H5        1.0  0.28954  0.82401  0.14837  1.0000
  H   H6        1.0  0.71816  0.17351  0.84937  1.0000
  H   H7        1.0  0.35819  0.71829  0.95934  1.0000
  H   H8        1.0  0.64874  0.27269  0.04011  1.0000
  H   H9        1.0  0.13132  0.24687  0.96326  1.0000
  H   H10       1.0  0.86368  0.74894  0.03975  1.0000
  H   H11       1.0  0.05220  0.35394  0.14895  1.0000
  H   H12       1.0  0.94268  0.64889  0.85216  1.0000
  H   H13       1.0  0.18286  0.63159  0.74897  1.0000
  H   H14       1.0  0.81351  0.35788  0.25604  1.0000
  H   H15       1.0  0.31871  0.77842  0.62396  1.0000
  H   H16       1.0  0.67346  0.21569  0.38162  1.0000
  H   H17       1.0  0.65510  0.51674  0.65319  1.0000
  H   H18       1.0  0.34180  0.48216  0.34513  1.0000
  H   H19       1.0  0.52272  0.37644  0.78400  1.0000
  H   H20       1.0  0.47855  0.61762  0.21432  1.0000
  H   H21       1.0  0.61163  0.94911  0.37619  1.0000
  H   H22       1.0  0.37151  0.04140  0.61960  1.0000
  H   H23       1.0  0.81220  0.74241  0.63584  1.0000
  H   H24       1.0  0.18072  0.26034  0.36396  1.0000
  C   C1        1.0  0.05701  0.68032  0.43306  1.0000
  C   C2        1.0  0.94723  0.33577  0.56640  1.0000
  C   C3        1.0  0.09474  0.80261  0.29704  1.0000
  C   C4        1.0  0.92332  0.21105  0.70297  1.0000
  C   C5        1.0  0.16462  0.59614  0.15956  1.0000
  C   C6        1.0  0.83661  0.40448  0.83975  1.0000
  C   C7        1.0  0.25149  0.69772  0.10674  1.0000
  C   C8        1.0  0.75298  0.29956  0.89201  1.0000
  C   C9        1.0  0.29125  0.63805  0.00005  1.0000
  C   C10       1.0  0.71280  0.35548  0.99960  1.0000
  C   C11       1.0  0.24395  0.47588  0.94734  1.0000
  C   C12       1.0  0.75708  0.51720  0.05389  1.0000
  C   C13       1.0  0.16197  0.37357  0.00303  1.0000
  C   C14       1.0  0.83570  0.62272  0.99870  1.0000
  C   C15       1.0  0.12088  0.43375  0.10859  1.0000
  C   C16       1.0  0.87673  0.56644  0.89223  1.0000
  C   C17       1.0  0.34680  0.49587  0.77406  1.0000
  C   C18       1.0  0.65200  0.49516  0.22710  1.0000
  C   C19       1.0  0.28635  0.60690  0.72838  1.0000
  C   C20       1.0  0.70974  0.38392  0.27479  1.0000
  C   C21       1.0  0.36260  0.68980  0.65866  1.0000
  C   C22       1.0  0.63110  0.30380  0.34488  1.0000
  C   C23       1.0  0.49614  0.65861  0.63351  1.0000
  C   C24       1.0  0.49780  0.33779  0.36836  1.0000
  C   C25       1.0  0.55365  0.54431  0.67614  1.0000
  C   C26       1.0  0.44290  0.45216  0.32355  1.0000
  C   C27       1.0  0.47913  0.46419  0.74786  1.0000
  C   C28       1.0  0.51987  0.52950  0.25166  1.0000
  C   C29       1.0  0.62545  0.88366  0.44445  1.0000
  C   C30       1.0  0.36115  0.10982  0.55330  1.0000
  C   C31       1.0  0.73092  0.77853  0.57419  1.0000
  C   C32       1.0  0.26013  0.22198  0.42514  1.0000
  C   C33       1.0  0.89007  0.05388  0.24473  1.0000
  C   C34       1.0  0.11859  0.95264  0.75262  1.0000
  S   S1        1.0  0.83827  0.05507  0.10277  1.0000
  S   S2        1.0  0.15154  0.93675  0.89189  1.0000
  N   N1        1.0  0.11917  0.66006  0.26503  1.0000
  N   N2        1.0  0.88408  0.34602  0.73360  1.0000
  N   N3        1.0  0.09474  0.57991  0.35092  1.0000
  N   N4        1.0  0.89937  0.42773  0.64718  1.0000
  N   N5        1.0  0.05617  0.81929  0.40397  1.0000
  N   N6        1.0  0.96338  0.20112  0.59682  1.0000
  N   N7        1.0  0.57858  0.74632  0.56672  1.0000
  N   N8        1.0  0.41257  0.25206  0.43485  1.0000
  N   N9        1.0  0.50944  0.81364  0.48409  1.0000
  N   N10       1.0  0.47818  0.18093  0.51599  1.0000
  N   N11       1.0  0.76308  0.86505  0.49740  1.0000
  N   N12       1.0  0.22365  0.13061  0.49906  1.0000
  N   N13       1.0  0.93132  0.05368  0.34917  1.0000
  N   N14       1.0  0.08985  0.96410  0.65018  1.0000
  O   O1        1.0  0.27572  0.40524  0.84127  1.0000
  O   O2        1.0  0.72647  0.58542  0.16128  1.0000
