data_image0
_chemical_formula_structural       Zn4H36C62N12O18
_chemical_formula_sum              "Zn4 H36 C62 N12 O18"
_cell_length_a       7.42265
_cell_length_b       11.4745
_cell_length_c       17.3659
_cell_angle_alpha    94.7772
_cell_angle_beta     102.691
_cell_angle_gamma    98.1125

_space_group_name_H-M_alt    "P 1"
_space_group_IT_number       1

loop_
  _space_group_symop_operation_xyz
  'x, y, z'

loop_
  _atom_site_type_symbol
  _atom_site_label
  _atom_site_symmetry_multiplicity
  _atom_site_fract_x
  _atom_site_fract_y
  _atom_site_fract_z
  _atom_site_occupancy
  Zn  Zn1       1.0  0.19214  0.46724  0.46635  1.0000
  Zn  Zn2       1.0  0.80786  0.53276  0.53365  1.0000
  Zn  Zn3       1.0  0.85278  0.16522  0.03564  1.0000
  Zn  Zn4       1.0  0.14722  0.83478  0.96436  1.0000
  H   H1        1.0  0.47868  0.48633  0.35367  1.0000
  H   H2        1.0  0.52131  0.51367  0.64633  1.0000
  H   H3        1.0  0.95118  0.59483  0.32977  1.0000
  H   H4        1.0  0.04882  0.40518  0.67022  1.0000
  H   H5        1.0  0.12130  0.68818  0.21356  1.0000
  H   H6        1.0  0.87870  0.31183  0.78644  1.0000
  H   H7        1.0  0.74696  0.90313  0.05054  1.0000
  H   H8        1.0  0.25305  0.09687  0.94947  1.0000
  H   H9        1.0  0.75877  0.19267  0.22072  1.0000
  H   H10       1.0  0.24123  0.80733  0.77928  1.0000
  H   H11       1.0  0.66044  0.98700  0.28173  1.0000
  H   H12       1.0  0.33956  0.01300  0.71827  1.0000
  H   H13       1.0  0.75740  0.35901  0.16101  1.0000
  H   H14       1.0  0.24259  0.64099  0.83899  1.0000
  H   H15       1.0  0.81174  0.37324  0.92557  1.0000
  H   H16       1.0  0.18826  0.62676  0.07443  1.0000
  H   H17       1.0  0.71781  0.58896  0.98108  1.0000
  H   H18       1.0  0.28220  0.41104  0.01893  1.0000
  H   H19       1.0  0.45726  0.81156  0.25201  1.0000
  H   H20       1.0  0.54275  0.18844  0.74799  1.0000
  H   H21       1.0  0.81421  0.73307  0.09478  1.0000
  H   H22       1.0  0.18580  0.26693  0.90522  1.0000
  H   H23       1.0  0.49697  0.44799  0.18144  1.0000
  H   H24       1.0  0.50303  0.55201  0.81857  1.0000
  H   H25       1.0  0.99337  0.10786  0.52808  1.0000
  H   H26       1.0  0.00662  0.89213  0.47191  1.0000
  H   H27       1.0  0.51647  0.00138  0.62445  1.0000
  H   H28       1.0  0.48353  0.99863  0.37555  1.0000
  H   H29       1.0  0.36624  0.16599  0.56550  1.0000
  H   H30       1.0  0.63376  0.83402  0.43449  1.0000
  H   H31       1.0  0.84673  0.10175  0.73961  1.0000
  H   H32       1.0  0.15327  0.89825  0.26039  1.0000
  H   H33       1.0  0.81990  0.74033  0.64476  1.0000
  H   H34       1.0  0.18009  0.25967  0.35524  1.0000
  H   H35       1.0  0.76627  0.67550  0.77264  1.0000
  H   H36       1.0  0.23372  0.32450  0.22736  1.0000
  C   C1        1.0  0.35589  0.52538  0.32989  1.0000
  C   C2        1.0  0.64411  0.47462  0.67011  1.0000
  C   C3        1.0  0.08367  0.58457  0.31570  1.0000
  C   C4        1.0  0.91633  0.41543  0.68430  1.0000
  C   C5        1.0  0.16466  0.63120  0.25887  1.0000
  C   C6        1.0  0.83534  0.36880  0.74113  1.0000
  C   C7        1.0  0.73608  0.95484  0.10420  1.0000
  C   C8        1.0  0.26393  0.04515  0.89581  1.0000
  C   C9        1.0  0.73987  0.10238  0.19319  1.0000
  C   C10       1.0  0.26013  0.89762  0.80681  1.0000
  C   C11       1.0  0.68927  0.00094  0.22454  1.0000
  C   C12       1.0  0.31075  0.99906  0.77547  1.0000
  C   C13       1.0  0.76399  0.39090  0.10470  1.0000
  C   C14       1.0  0.23602  0.60910  0.89530  1.0000
  C   C15       1.0  0.78763  0.40416  0.98247  1.0000
  C   C16       1.0  0.21237  0.59584  0.01753  1.0000
  C   C17       1.0  0.74281  0.50954  0.00896  1.0000
  C   C18       1.0  0.25720  0.49046  0.99105  1.0000
  C   C19       1.0  0.47347  0.62749  0.22481  1.0000
  C   C20       1.0  0.52653  0.37251  0.77519  1.0000
  C   C21       1.0  0.52042  0.74844  0.22068  1.0000
  C   C22       1.0  0.47959  0.25156  0.77933  1.0000
  C   C23       1.0  0.64168  0.78543  0.17323  1.0000
  C   C24       1.0  0.35832  0.21457  0.82677  1.0000
  C   C25       1.0  0.71669  0.70357  0.13065  1.0000
  C   C26       1.0  0.28332  0.29643  0.86935  1.0000
  C   C27       1.0  0.66494  0.58327  0.13541  1.0000
  C   C28       1.0  0.33507  0.41673  0.86460  1.0000
  C   C29       1.0  0.54435  0.54283  0.18280  1.0000
  C   C30       1.0  0.45565  0.45717  0.81720  1.0000
  C   C31       1.0  0.50520  0.33058  0.48456  1.0000
  C   C32       1.0  0.49480  0.66942  0.51544  1.0000
  C   C33       1.0  0.88437  0.29442  0.46164  1.0000
  C   C34       1.0  0.11563  0.70558  0.53835  1.0000
  C   C35       1.0  0.73737  0.79861  0.90124  1.0000
  C   C36       1.0  0.26263  0.20139  0.09876  1.0000
  C   C37       1.0  0.80043  0.07185  0.88118  1.0000
  C   C38       1.0  0.19957  0.92815  0.11882  1.0000
  C   C39       1.0  0.59597  0.23114  0.51593  1.0000
  C   C40       1.0  0.40402  0.76885  0.48406  1.0000
  C   C41       1.0  0.77266  0.21365  0.50451  1.0000
  C   C42       1.0  0.22734  0.78634  0.49548  1.0000
  C   C43       1.0  0.85646  0.12151  0.53677  1.0000
  C   C44       1.0  0.14353  0.87849  0.46323  1.0000
  C   C45       1.0  0.76647  0.04807  0.58172  1.0000
  C   C46       1.0  0.23353  0.95194  0.41828  1.0000
  C   C47       1.0  0.58878  0.06294  0.59245  1.0000
  C   C48       1.0  0.41122  0.93707  0.40755  1.0000
  C   C49       1.0  0.50539  0.15349  0.55924  1.0000
  C   C50       1.0  0.49461  0.84652  0.44076  1.0000
  C   C51       1.0  0.77162  0.85136  0.82785  1.0000
  C   C52       1.0  0.22838  0.14864  0.17215  1.0000
  C   C53       1.0  0.79639  0.97298  0.81799  1.0000
  C   C54       1.0  0.20360  0.02702  0.18201  1.0000
  C   C55       1.0  0.82489  0.00744  0.74563  1.0000
  C   C56       1.0  0.17510  0.99256  0.25437  1.0000
  C   C57       1.0  0.82636  0.92386  0.68324  1.0000
  C   C58       1.0  0.17363  0.07614  0.31677  1.0000
  C   C59       1.0  0.80836  0.80385  0.69267  1.0000
  C   C60       1.0  0.19164  0.19615  0.30733  1.0000
  C   C61       1.0  0.78063  0.76944  0.76474  1.0000
  C   C62       1.0  0.21936  0.23056  0.23526  1.0000
  N   N1        1.0  0.20414  0.51965  0.35951  1.0000
  N   N2        1.0  0.79586  0.48035  0.64048  1.0000
  N   N3        1.0  0.33699  0.59249  0.26854  1.0000
  N   N4        1.0  0.66301  0.40751  0.73146  1.0000
  N   N5        1.0  0.76803  0.07245  0.11829  1.0000
  N   N6        1.0  0.23198  0.92754  0.88171  1.0000
  N   N7        1.0  0.68778  0.90771  0.16770  1.0000
  N   N8        1.0  0.31222  0.09229  0.83230  1.0000
  N   N9        1.0  0.80057  0.33141  0.04264  1.0000
  N   N10       1.0  0.19943  0.66858  0.95736  1.0000
  N   N11       1.0  0.72777  0.49968  0.08687  1.0000
  N   N12       1.0  0.27223  0.50031  0.91313  1.0000
  O   O1        1.0  0.33392  0.32829  0.48590  1.0000
  O   O2        1.0  0.66608  0.67171  0.51410  1.0000
  O   O3        1.0  0.60069  0.41344  0.45775  1.0000
  O   O4        1.0  0.39931  0.58656  0.54225  1.0000
  O   O5        1.0  0.99047  0.38500  0.50960  1.0000
  O   O6        1.0  0.00953  0.61500  0.49039  1.0000
  O   O7        1.0  0.88177  0.27143  0.39058  1.0000
  O   O8        1.0  0.11821  0.72856  0.60942  1.0000
  O   O9        1.0  0.57967  0.74059  0.89778  1.0000
  O   O10       1.0  0.42033  0.25941  0.10222  1.0000
  O   O11       1.0  0.87646  0.80714  0.96253  1.0000
  O   O12       1.0  0.12354  0.19286  0.03747  1.0000
  O   O13       1.0  0.74859  0.04159  0.94409  1.0000
  O   O14       1.0  0.25140  0.95840  0.05591  1.0000
  O   O15       1.0  0.85452  0.17725  0.87098  1.0000
  O   O16       1.0  0.14547  0.82275  0.12902  1.0000
  O   O17       1.0  0.85682  0.95900  0.61174  1.0000
  O   O18       1.0  0.14318  0.04100  0.38826  1.0000
