data_image0
_chemical_formula_structural       Na2Cu2H38C22N2O18
_chemical_formula_sum              "Na2 Cu2 H38 C22 N2 O18"
_cell_length_a       9.16149
_cell_length_b       10.2568
_cell_length_c       10.8332
_cell_angle_alpha    65.0629
_cell_angle_beta     74.5618
_cell_angle_gamma    86.1471

_space_group_name_H-M_alt    "P 1"
_space_group_IT_number       1

loop_
  _space_group_symop_operation_xyz
  'x, y, z'

loop_
  _atom_site_type_symbol
  _atom_site_label
  _atom_site_symmetry_multiplicity
  _atom_site_fract_x
  _atom_site_fract_y
  _atom_site_fract_z
  _atom_site_occupancy
  Na  Na1       1.0  0.06246  0.18353  0.40144  1.0000
  Na  Na2       1.0  0.93754  0.81645  0.59856  1.0000
  Cu  Cu1       1.0  0.45850  0.14481  0.40423  1.0000
  Cu  Cu2       1.0  0.54151  0.85518  0.59578  1.0000
  H   H1        1.0  0.55518  0.35823  0.43504  1.0000
  H   H2        1.0  0.44482  0.64177  0.56497  1.0000
  H   H3        1.0  0.66937  0.43580  0.04687  1.0000
  H   H4        1.0  0.33063  0.56420  0.95313  1.0000
  H   H5        1.0  0.50725  0.44819  0.17660  1.0000
  H   H6        1.0  0.49275  0.55181  0.82341  1.0000
  H   H7        1.0  0.81681  0.33214  0.22454  1.0000
  H   H8        1.0  0.18319  0.66787  0.77546  1.0000
  H   H9        1.0  0.74146  0.49599  0.21971  1.0000
  H   H10       1.0  0.25854  0.50402  0.78029  1.0000
  H   H11       1.0  0.47898  0.31209  0.00036  1.0000
  H   H12       1.0  0.52103  0.68792  0.99964  1.0000
  H   H13       1.0  0.34463  0.33798  0.14036  1.0000
  H   H14       1.0  0.65537  0.66202  0.85964  1.0000
  H   H15       1.0  0.23580  0.95711  0.33292  1.0000
  H   H16       1.0  0.76420  0.04289  0.66707  1.0000
  H   H17       1.0  0.24996  0.16057  0.08666  1.0000
  H   H18       1.0  0.75005  0.83945  0.91333  1.0000
  H   H19       1.0  0.40509  0.04876  0.11956  1.0000
  H   H20       1.0  0.59492  0.95125  0.88043  1.0000
  H   H21       1.0  0.66646  0.15370  0.04703  1.0000
  H   H22       1.0  0.33354  0.84630  0.95297  1.0000
  H   H23       1.0  0.77197  0.18722  0.14618  1.0000
  H   H24       1.0  0.22803  0.81278  0.85382  1.0000
  H   H25       1.0  0.53004  0.93868  0.26905  1.0000
  H   H26       1.0  0.46996  0.06132  0.73095  1.0000
  H   H27       1.0  0.72828  0.92553  0.24883  1.0000
  H   H28       1.0  0.27172  0.07447  0.75117  1.0000
  H   H29       1.0  0.75501  0.25716  0.50300  1.0000
  H   H30       1.0  0.24499  0.74284  0.49700  1.0000
  H   H31       1.0  0.82477  0.28245  0.61064  1.0000
  H   H32       1.0  0.17525  0.71755  0.38936  1.0000
  H   H33       1.0  0.11970  0.39207  0.69919  1.0000
  H   H34       1.0  0.88029  0.60792  0.30081  1.0000
  H   H35       1.0  0.20683  0.97625  0.60860  1.0000
  H   H36       1.0  0.79316  0.02373  0.39141  1.0000
  H   H37       1.0  0.04483  0.99127  0.69915  1.0000
  H   H38       1.0  0.95517  0.00873  0.30084  1.0000
  C   C1        1.0  0.60612  0.38501  0.15925  1.0000
  C   C2        1.0  0.39388  0.61499  0.84076  1.0000
  C   C3        1.0  0.71024  0.38321  0.24820  1.0000
  C   C4        1.0  0.28976  0.61679  0.75180  1.0000
  C   C5        1.0  0.42373  0.26237  0.11458  1.0000
  C   C6        1.0  0.57627  0.73764  0.88542  1.0000
  C   C7        1.0  0.33342  0.12668  0.15026  1.0000
  C   C8        1.0  0.66659  0.87332  0.84973  1.0000
  C   C9        1.0  0.66166  0.14571  0.15258  1.0000
  C   C10       1.0  0.33834  0.85429  0.84742  1.0000
  C   C11       1.0  0.63177  0.99186  0.26681  1.0000
  C   C12       1.0  0.36822  0.00814  0.73319  1.0000
  C   C13       1.0  0.06590  0.43895  0.61245  1.0000
  C   C14       1.0  0.93409  0.56103  0.38755  1.0000
  C   C15       1.0  0.14053  0.43854  0.48203  1.0000
  C   C16       1.0  0.85946  0.56145  0.51797  1.0000
  C   C17       1.0  0.28789  0.36611  0.46889  1.0000
  C   C18       1.0  0.71211  0.63388  0.53111  1.0000
  C   C19       1.0  0.92514  0.49943  0.63265  1.0000
  C   C20       1.0  0.07486  0.50056  0.36734  1.0000
  C   C21       1.0  0.84627  0.49871  0.77508  1.0000
  C   C22       1.0  0.15373  0.50129  0.22492  1.0000
  N   N1        1.0  0.54334  0.24032  0.19046  1.0000
  N   N2        1.0  0.45667  0.75968  0.80954  1.0000
  O   O1        1.0  0.64475  0.30842  0.39800  1.0000
  O   O2        1.0  0.35525  0.69158  0.60200  1.0000
  O   O3        1.0  0.25867  0.06284  0.29746  1.0000
  O   O4        1.0  0.74133  0.93716  0.70253  1.0000
  O   O5        1.0  0.09460  0.97357  0.61702  1.0000
  O   O6        1.0  0.90540  0.02642  0.38298  1.0000
  O   O7        1.0  0.61396  0.00176  0.39766  1.0000
  O   O8        1.0  0.38603  0.99825  0.60234  1.0000
  O   O9        1.0  0.82259  0.21465  0.56932  1.0000
  O   O10       1.0  0.17742  0.78535  0.43067  1.0000
  O   O11       1.0  0.29244  0.27308  0.41606  1.0000
  O   O12       1.0  0.70756  0.72692  0.58394  1.0000
  O   O13       1.0  0.39152  0.39546  0.51015  1.0000
  O   O14       1.0  0.60846  0.60454  0.48985  1.0000
  O   O15       1.0  0.73653  0.40734  0.84933  1.0000
  O   O16       1.0  0.26347  0.59265  0.15065  1.0000
  O   O17       1.0  0.89778  0.59161  0.80386  1.0000
  O   O18       1.0  0.10220  0.40840  0.19614  1.0000
