data_image0
_chemical_formula_structural       U2H28C18O12
_chemical_formula_sum              "U2 H28 C18 O12"
_cell_length_a       4.39311
_cell_length_b       10.8912
_cell_length_c       11.2431
_cell_angle_alpha    94.95
_cell_angle_beta     90.001
_cell_angle_gamma    89.9987

_space_group_name_H-M_alt    "P 1"
_space_group_IT_number       1

loop_
  _space_group_symop_operation_xyz
  'x, y, z'

loop_
  _atom_site_type_symbol
  _atom_site_label
  _atom_site_symmetry_multiplicity
  _atom_site_fract_x
  _atom_site_fract_y
  _atom_site_fract_z
  _atom_site_occupancy
  U   U1        1.0  0.08060  0.75001  0.49999  1.0000
  U   U2        1.0  0.91940  0.25000  0.50001  1.0000
  H   H1        1.0  0.38717  0.93152  0.81631  1.0000
  H   H2        1.0  0.38717  0.56847  0.18369  1.0000
  H   H3        1.0  0.61283  0.06848  0.18369  1.0000
  H   H4        1.0  0.61283  0.43153  0.81631  1.0000
  H   H5        1.0  0.41117  0.03474  0.70737  1.0000
  H   H6        1.0  0.41118  0.46526  0.29263  1.0000
  H   H7        1.0  0.58884  0.96526  0.29263  1.0000
  H   H8        1.0  0.58881  0.53474  0.70736  1.0000
  H   H9        1.0  0.92311  0.10951  0.79094  1.0000
  H   H10       1.0  0.92312  0.39048  0.20907  1.0000
  H   H11       1.0  0.07689  0.89049  0.20906  1.0000
  H   H12       1.0  0.07688  0.60952  0.79094  1.0000
  H   H13       1.0  0.89317  0.00678  0.90327  1.0000
  H   H14       1.0  0.89318  0.49320  0.09673  1.0000
  H   H15       1.0  0.10683  0.99321  0.09673  1.0000
  H   H16       1.0  0.10682  0.50680  0.90327  1.0000
  H   H17       1.0  0.42889  0.20977  0.86259  1.0000
  H   H18       1.0  0.42891  0.29022  0.13741  1.0000
  H   H19       1.0  0.57110  0.79022  0.13741  1.0000
  H   H20       1.0  0.57110  0.70978  0.86259  1.0000
  H   H21       1.0  0.41353  0.11146  0.97804  1.0000
  H   H22       1.0  0.41353  0.38854  0.02197  1.0000
  H   H23       1.0  0.58647  0.88854  0.02197  1.0000
  H   H24       1.0  0.58648  0.61146  0.97803  1.0000
  H   H25       1.0  0.91706  0.30016  0.94269  1.0000
  H   H26       1.0  0.91706  0.19983  0.05731  1.0000
  H   H27       1.0  0.08294  0.69984  0.05731  1.0000
  H   H28       1.0  0.08294  0.80017  0.94268  1.0000
  C   C1        1.0  0.70991  0.88488  0.68263  1.0000
  C   C2        1.0  0.70992  0.61513  0.31737  1.0000
  C   C3        1.0  0.29010  0.11512  0.31738  1.0000
  C   C4        1.0  0.29008  0.38487  0.68263  1.0000
  C   C5        1.0  0.55270  0.98036  0.76411  1.0000
  C   C6        1.0  0.55271  0.51964  0.23588  1.0000
  C   C7        1.0  0.44730  0.01963  0.23589  1.0000
  C   C8        1.0  0.44729  0.48037  0.76412  1.0000
  C   C9        1.0  0.75908  0.06290  0.84535  1.0000
  C   C10       1.0  0.75909  0.43709  0.15465  1.0000
  C   C11       1.0  0.24091  0.93710  0.15465  1.0000
  C   C12       1.0  0.24091  0.56291  0.84535  1.0000
  C   C13       1.0  0.57347  0.15859  0.92157  1.0000
  C   C14       1.0  0.57347  0.34140  0.07844  1.0000
  C   C15       1.0  0.42653  0.84141  0.07844  1.0000
  C   C16       1.0  0.42653  0.65859  0.92157  1.0000
  C   C17       1.0  0.76579  0.25000  0.00000  1.0000
  C   C18       1.0  0.23421  0.75000  1.00000  1.0000
  O   O1        1.0  0.07636  0.88825  0.42352  1.0000
  O   O2        1.0  0.07639  0.61177  0.57646  1.0000
  O   O3        1.0  0.92363  0.11175  0.57648  1.0000
  O   O4        1.0  0.92361  0.38823  0.42355  1.0000
  O   O5        1.0  0.98962  0.85951  0.69493  1.0000
  O   O6        1.0  0.98962  0.64049  0.30506  1.0000
  O   O7        1.0  0.01038  0.14049  0.30507  1.0000
  O   O8        1.0  0.01038  0.35951  0.69494  1.0000
  O   O9        1.0  0.56990  0.82476  0.59407  1.0000
  O   O10       1.0  0.56987  0.67526  0.40592  1.0000
  O   O11       1.0  0.43011  0.17525  0.40593  1.0000
  O   O12       1.0  0.43012  0.32474  0.59408  1.0000
