data_image0
_chemical_formula_structural       U4H40C28N2O20
_chemical_formula_sum              "U4 H40 C28 N2 O20"
_cell_length_a       7.21514
_cell_length_b       11.3755
_cell_length_c       12.3883
_cell_angle_alpha    76.3783
_cell_angle_beta     74.31
_cell_angle_gamma    84.1945

_space_group_name_H-M_alt    "P 1"
_space_group_IT_number       1

loop_
  _space_group_symop_operation_xyz
  'x, y, z'

loop_
  _atom_site_type_symbol
  _atom_site_label
  _atom_site_symmetry_multiplicity
  _atom_site_fract_x
  _atom_site_fract_y
  _atom_site_fract_z
  _atom_site_occupancy
  U   U1        1.0  0.80304  0.79931  0.99820  1.0000
  U   U2        1.0  0.19696  0.20069  0.00180  1.0000
  U   U3        1.0  0.89141  0.50712  0.87887  1.0000
  U   U4        1.0  0.10858  0.49288  0.12113  1.0000
  H   H1        1.0  0.63095  0.04415  0.05873  1.0000
  H   H2        1.0  0.36905  0.95585  0.94127  1.0000
  H   H3        1.0  0.83113  0.07013  0.96096  1.0000
  H   H4        1.0  0.16887  0.92987  0.03904  1.0000
  H   H5        1.0  0.94621  0.60314  0.58897  1.0000
  H   H6        1.0  0.05379  0.39687  0.41103  1.0000
  H   H7        1.0  0.80721  0.59094  0.43010  1.0000
  H   H8        1.0  0.19278  0.40906  0.56989  1.0000
  H   H9        1.0  0.31412  0.42597  0.69014  1.0000
  H   H10       1.0  0.68587  0.57402  0.30986  1.0000
  H   H11       1.0  0.47296  0.44856  0.83575  1.0000
  H   H12       1.0  0.52705  0.55144  0.16425  1.0000
  H   H13       1.0  0.29859  0.75412  0.81748  1.0000
  H   H14       1.0  0.70141  0.24588  0.18252  1.0000
  H   H15       1.0  0.49692  0.70544  0.71748  1.0000
  H   H16       1.0  0.50308  0.29456  0.28251  1.0000
  H   H17       1.0  0.57124  0.92058  0.61906  1.0000
  H   H18       1.0  0.42876  0.07942  0.38094  1.0000
  H   H19       1.0  0.39288  0.97225  0.72817  1.0000
  H   H20       1.0  0.60712  0.02775  0.27182  1.0000
  H   H21       1.0  0.13678  0.88607  0.67397  1.0000
  H   H22       1.0  0.86322  0.11393  0.32603  1.0000
  H   H23       1.0  0.26366  0.00084  0.56537  1.0000
  H   H24       1.0  0.73634  0.99916  0.43463  1.0000
  H   H25       1.0  0.45672  0.83868  0.46583  1.0000
  H   H26       1.0  0.54328  0.16132  0.53417  1.0000
  H   H27       1.0  0.30846  0.72914  0.57050  1.0000
  H   H28       1.0  0.69154  0.27086  0.42950  1.0000
  H   H29       1.0  0.15986  0.95169  0.41779  1.0000
  H   H30       1.0  0.84014  0.04831  0.58221  1.0000
  H   H31       1.0  0.01500  0.84007  0.51873  1.0000
  H   H32       1.0  0.98500  0.15993  0.48127  1.0000
  H   H33       1.0  0.32328  0.79063  0.30616  1.0000
  H   H34       1.0  0.67672  0.20937  0.69384  1.0000
  H   H35       1.0  0.15783  0.68630  0.40277  1.0000
  H   H36       1.0  0.84217  0.31370  0.59723  1.0000
  H   H37       1.0  0.05151  0.92679  0.25155  1.0000
  H   H38       1.0  0.94849  0.07321  0.74845  1.0000
  H   H39       1.0  0.88300  0.82913  0.35474  1.0000
  H   H40       1.0  0.11699  0.17087  0.64526  1.0000
  C   C1        1.0  0.80533  0.56544  0.60665  1.0000
  C   C2        1.0  0.19467  0.43456  0.39335  1.0000
  C   C3        1.0  0.72536  0.55849  0.51846  1.0000
  C   C4        1.0  0.27464  0.44150  0.48154  1.0000
  C   C5        1.0  0.54492  0.50640  0.54521  1.0000
  C   C6        1.0  0.45508  0.49360  0.45479  1.0000
  C   C7        1.0  0.45387  0.46647  0.66169  1.0000
  C   C8        1.0  0.54613  0.53353  0.33831  1.0000
  C   C9        1.0  0.54255  0.47803  0.74495  1.0000
  C   C10       1.0  0.45745  0.52197  0.25505  1.0000
  C   C11       1.0  0.56520  0.78173  0.84194  1.0000
  C   C12       1.0  0.43480  0.21827  0.15805  1.0000
  C   C13       1.0  0.44322  0.77880  0.76245  1.0000
  C   C14       1.0  0.55678  0.22119  0.23755  1.0000
  C   C15       1.0  0.42872  0.90054  0.67900  1.0000
  C   C16       1.0  0.57128  0.09946  0.32100  1.0000
  C   C17       1.0  0.27711  0.90635  0.61208  1.0000
  C   C18       1.0  0.72289  0.09365  0.38792  1.0000
  C   C19       1.0  0.31220  0.82504  0.52558  1.0000
  C   C20       1.0  0.68780  0.17496  0.47442  1.0000
  C   C21       1.0  0.15853  0.85412  0.45781  1.0000
  C   C22       1.0  0.84147  0.14588  0.54219  1.0000
  C   C23       1.0  0.17771  0.78322  0.36459  1.0000
  C   C24       1.0  0.82229  0.21678  0.63541  1.0000
  C   C25       1.0  0.02848  0.83164  0.29538  1.0000
  C   C26       1.0  0.97152  0.16836  0.70462  1.0000
  C   C27       1.0  0.01821  0.76024  0.20928  1.0000
  C   C28       1.0  0.98179  0.23976  0.79072  1.0000
  N   N1        1.0  0.71685  0.52514  0.71851  1.0000
  N   N2        1.0  0.28315  0.47486  0.28149  1.0000
  O   O1        1.0  0.99175  0.85478  0.87080  1.0000
  O   O2        1.0  0.00825  0.14522  0.12920  1.0000
  O   O3        1.0  0.60908  0.76597  0.12815  1.0000
  O   O4        1.0  0.39092  0.23403  0.87185  1.0000
  O   O5        1.0  0.07902  0.59661  0.77182  1.0000
  O   O6        1.0  0.92097  0.40339  0.22818  1.0000
  O   O7        1.0  0.69210  0.41608  0.96986  1.0000
  O   O8        1.0  0.30790  0.58392  0.03014  1.0000
  O   O9        1.0  0.90906  0.60619  0.01857  1.0000
  O   O10       1.0  0.09094  0.39381  0.98143  1.0000
  O   O11       1.0  0.68415  0.69439  0.86826  1.0000
  O   O12       1.0  0.31585  0.30561  0.13174  1.0000
  O   O13       1.0  0.55614  0.87303  0.88744  1.0000
  O   O14       1.0  0.44386  0.12697  0.11256  1.0000
  O   O15       1.0  0.02451  0.81808  0.10521  1.0000
  O   O16       1.0  0.97549  0.18193  0.89479  1.0000
  O   O17       1.0  0.99766  0.64709  0.23999  1.0000
  O   O18       1.0  0.00233  0.35291  0.76001  1.0000
  O   O19       1.0  0.74236  0.00498  0.01004  1.0000
  O   O20       1.0  0.25764  0.99502  0.98996  1.0000
