data_image0
_chemical_formula_structural       U2H40C30N2O12
_chemical_formula_sum              "U2 H40 C30 N2 O12"
_cell_length_a       8.10416
_cell_length_b       9.73743
_cell_length_c       11.9531
_cell_angle_alpha    70.5939
_cell_angle_beta     87.6699
_cell_angle_gamma    68.8338

_space_group_name_H-M_alt    "P 1"
_space_group_IT_number       1

loop_
  _space_group_symop_operation_xyz
  'x, y, z'

loop_
  _atom_site_type_symbol
  _atom_site_label
  _atom_site_symmetry_multiplicity
  _atom_site_fract_x
  _atom_site_fract_y
  _atom_site_fract_z
  _atom_site_occupancy
  U   U1        1.0  0.76730  0.55249  0.16533  1.0000
  U   U2        1.0  0.23270  0.44749  0.83467  1.0000
  H   H1        1.0  0.39344  0.58872  0.03782  1.0000
  H   H2        1.0  0.60655  0.41129  0.96217  1.0000
  H   H3        1.0  0.08580  0.75923  0.96225  1.0000
  H   H4        1.0  0.91420  0.24079  0.03774  1.0000
  H   H5        1.0  0.16098  0.09685  0.09704  1.0000
  H   H6        1.0  0.83903  0.90315  0.90297  1.0000
  H   H7        1.0  0.46864  0.90937  0.16761  1.0000
  H   H8        1.0  0.53136  0.09063  0.83239  1.0000
  H   H9        1.0  0.23161  0.29334  0.32852  1.0000
  H   H10       1.0  0.76839  0.70666  0.67148  1.0000
  H   H11       1.0  0.36136  0.40342  0.25267  1.0000
  H   H12       1.0  0.63865  0.59658  0.74733  1.0000
  H   H13       1.0  0.44524  0.05754  0.28877  1.0000
  H   H14       1.0  0.55475  0.94246  0.71123  1.0000
  H   H15       1.0  0.56237  0.17210  0.20056  1.0000
  H   H16       1.0  0.43763  0.82790  0.79944  1.0000
  H   H17       1.0  0.51509  0.11831  0.46585  1.0000
  H   H18       1.0  0.48490  0.88169  0.53415  1.0000
  H   H19       1.0  0.63714  0.22577  0.37849  1.0000
  H   H20       1.0  0.36286  0.77424  0.62151  1.0000
  H   H21       1.0  0.72633  0.87623  0.42459  1.0000
  H   H22       1.0  0.27367  0.12377  0.57541  1.0000
  H   H23       1.0  0.81850  0.94759  0.51323  1.0000
  H   H24       1.0  0.18150  0.05241  0.48677  1.0000
  H   H25       1.0  0.11822  0.82965  0.48014  1.0000
  H   H26       1.0  0.88178  0.17035  0.51987  1.0000
  H   H27       1.0  0.19719  0.86714  0.33779  1.0000
  H   H28       1.0  0.80281  0.13286  0.66221  1.0000
  H   H29       1.0  0.36609  0.55692  0.42961  1.0000
  H   H30       1.0  0.63390  0.44309  0.57039  1.0000
  H   H31       1.0  0.23923  0.44129  0.43770  1.0000
  H   H32       1.0  0.76077  0.55871  0.56230  1.0000
  H   H33       1.0  0.07729  0.69490  0.28935  1.0000
  H   H34       1.0  0.92271  0.30510  0.71065  1.0000
  H   H35       1.0  0.95768  0.67702  0.41572  1.0000
  H   H36       1.0  0.04232  0.32298  0.58428  1.0000
  H   H37       1.0  0.87011  0.99241  0.24959  1.0000
  H   H38       1.0  0.12989  0.00760  0.75041  1.0000
  H   H39       1.0  0.93414  0.09308  0.32739  1.0000
  H   H40       1.0  0.06586  0.90692  0.67261  1.0000
  C   C1        1.0  0.33696  0.70226  0.04954  1.0000
  C   C2        1.0  0.66304  0.29775  0.95046  1.0000
  C   C3        1.0  0.16288  0.79978  0.00717  1.0000
  C   C4        1.0  0.83712  0.20023  0.99282  1.0000
  C   C5        1.0  0.09225  0.94622  0.02241  1.0000
  C   C6        1.0  0.90775  0.05379  0.97759  1.0000
  C   C7        1.0  0.20526  0.98556  0.08179  1.0000
  C   C8        1.0  0.79475  0.01445  0.91821  1.0000
  C   C9        1.0  0.37825  0.88150  0.12154  1.0000
  C   C10       1.0  0.62175  0.11851  0.87846  1.0000
  C   C11       1.0  0.20963  0.35993  0.13974  1.0000
  C   C12       1.0  0.79037  0.64006  0.86026  1.0000
  C   C13       1.0  0.31832  0.30686  0.25602  1.0000
  C   C14       1.0  0.68168  0.69314  0.74398  1.0000
  C   C15       1.0  0.48493  0.15798  0.27829  1.0000
  C   C16       1.0  0.51507  0.84202  0.72170  1.0000
  C   C17       1.0  0.59801  0.12495  0.39038  1.0000
  C   C18       1.0  0.40199  0.87505  0.60962  1.0000
  C   C19       1.0  0.76427  0.97517  0.42194  1.0000
  C   C20       1.0  0.23573  0.02483  0.57805  1.0000
  C   C21       1.0  0.23532  0.50785  0.58718  1.0000
  C   C22       1.0  0.76467  0.49215  0.41282  1.0000
  C   C23       1.0  0.08697  0.84365  0.38722  1.0000
  C   C24       1.0  0.91303  0.15635  0.61278  1.0000
  C   C25       1.0  0.23777  0.54622  0.45468  1.0000
  C   C26       1.0  0.76222  0.45378  0.54532  1.0000
  C   C27       1.0  0.08125  0.69043  0.38237  1.0000
  C   C28       1.0  0.91875  0.30957  0.61763  1.0000
  C   C29       1.0  0.91241  0.98393  0.33897  1.0000
  C   C30       1.0  0.08759  0.01607  0.66103  1.0000
  N   N1        1.0  0.44427  0.74165  0.10577  1.0000
  N   N2        1.0  0.55573  0.25835  0.89422  1.0000
  O   O1        1.0  0.68251  0.39915  0.18143  1.0000
  O   O2        1.0  0.31750  0.60083  0.81858  1.0000
  O   O3        1.0  0.84104  0.71392  0.14202  1.0000
  O   O4        1.0  0.15895  0.28606  0.85799  1.0000
  O   O5        1.0  0.04234  0.38794  0.14008  1.0000
  O   O6        1.0  0.95766  0.61206  0.85992  1.0000
  O   O7        1.0  0.28610  0.37672  0.04391  1.0000
  O   O8        1.0  0.71390  0.62328  0.95609  1.0000
  O   O9        1.0  0.37274  0.40636  0.65752  1.0000
  O   O10       1.0  0.62726  0.59364  0.34248  1.0000
  O   O11       1.0  0.09594  0.57357  0.63344  1.0000
  O   O12       1.0  0.90406  0.42642  0.36656  1.0000
