data_image0
_chemical_formula_structural       U2H40C30N2O12
_chemical_formula_sum              "U2 H40 C30 N2 O12"
_cell_length_a       8.09154
_cell_length_b       9.1878
_cell_length_c       12.7682
_cell_angle_alpha    108.309
_cell_angle_beta     98.0704
_cell_angle_gamma    105.268

_space_group_name_H-M_alt    "P 1"
_space_group_IT_number       1

loop_
  _space_group_symop_operation_xyz
  'x, y, z'

loop_
  _atom_site_type_symbol
  _atom_site_label
  _atom_site_symmetry_multiplicity
  _atom_site_fract_x
  _atom_site_fract_y
  _atom_site_fract_z
  _atom_site_occupancy
  U   U1        1.0  0.33758  0.48751  0.17660  1.0000
  U   U2        1.0  0.66242  0.51249  0.82340  1.0000
  H   H1        1.0  0.20618  0.10053  0.17569  1.0000
  H   H2        1.0  0.79382  0.89946  0.82430  1.0000
  H   H3        1.0  0.59879  0.50940  0.41053  1.0000
  H   H4        1.0  0.40120  0.49060  0.58947  1.0000
  H   H5        1.0  0.70050  0.35060  0.51531  1.0000
  H   H6        1.0  0.29950  0.64940  0.48469  1.0000
  H   H7        1.0  0.29505  0.92159  0.26766  1.0000
  H   H8        1.0  0.70495  0.07841  0.73234  1.0000
  H   H9        1.0  0.55935  0.90408  0.39904  1.0000
  H   H10       1.0  0.44065  0.09592  0.60096  1.0000
  H   H11       1.0  0.69745  0.08283  0.51341  1.0000
  H   H12       1.0  0.30256  0.91717  0.48659  1.0000
  H   H13       1.0  0.95518  0.64687  0.41288  1.0000
  H   H14       1.0  0.04482  0.35314  0.58712  1.0000
  H   H15       1.0  0.81325  0.56290  0.27617  1.0000
  H   H16       1.0  0.18676  0.43711  0.72384  1.0000
  H   H17       1.0  0.83910  0.85040  0.38361  1.0000
  H   H18       1.0  0.16090  0.14961  0.61640  1.0000
  H   H19       1.0  0.06339  0.91629  0.38221  1.0000
  H   H20       1.0  0.93661  0.08372  0.61780  1.0000
  H   H21       1.0  0.76289  0.73473  0.16559  1.0000
  H   H22       1.0  0.23711  0.26526  0.83441  1.0000
  H   H23       1.0  0.98431  0.82996  0.17228  1.0000
  H   H24       1.0  0.01569  0.17004  0.82773  1.0000
  H   H25       1.0  0.95094  0.10017  0.29470  1.0000
  H   H26       1.0  0.04905  0.89983  0.70529  1.0000
  H   H27       1.0  0.72478  0.99357  0.26873  1.0000
  H   H28       1.0  0.27522  0.00643  0.73127  1.0000
  H   H29       1.0  0.92512  0.04338  0.08889  1.0000
  H   H30       1.0  0.07488  0.95661  0.91110  1.0000
  H   H31       1.0  0.70605  0.91626  0.05528  1.0000
  H   H32       1.0  0.29395  0.08373  0.94472  1.0000
  H   H33       1.0  0.61592  0.14902  0.16144  1.0000
  H   H34       1.0  0.38408  0.85098  0.83856  1.0000
  H   H35       1.0  0.83669  0.27813  0.20508  1.0000
  H   H36       1.0  0.16331  0.72186  0.79492  1.0000
  H   H37       1.0  0.84382  0.25198  0.00636  1.0000
  H   H38       1.0  0.15617  0.74802  0.99364  1.0000
  H   H39       1.0  0.63852  0.09753  0.95290  1.0000
  H   H40       1.0  0.36148  0.90247  0.04710  1.0000
  C   C1        1.0  0.31494  0.15088  0.25145  1.0000
  C   C2        1.0  0.68506  0.84912  0.74855  1.0000
  C   C3        1.0  0.53398  0.37900  0.38258  1.0000
  C   C4        1.0  0.46602  0.62100  0.61742  1.0000
  C   C5        1.0  0.59067  0.28857  0.43996  1.0000
  C   C6        1.0  0.40933  0.71143  0.56004  1.0000
  C   C7        1.0  0.36508  0.05192  0.30354  1.0000
  C   C8        1.0  0.63492  0.94808  0.69646  1.0000
  C   C9        1.0  0.50580  0.12085  0.40084  1.0000
  C   C10       1.0  0.49421  0.87915  0.59916  1.0000
  C   C11       1.0  0.56139  0.01899  0.46131  1.0000
  C   C12       1.0  0.43862  0.98101  0.53869  1.0000
  C   C13       1.0  0.08058  0.59973  0.27764  1.0000
  C   C14       1.0  0.91942  0.40027  0.72236  1.0000
  C   C15       1.0  0.94064  0.65557  0.32825  1.0000
  C   C16       1.0  0.05936  0.34444  0.67176  1.0000
  C   C17       1.0  0.93488  0.82312  0.33368  1.0000
  C   C18       1.0  0.06512  0.17689  0.66633  1.0000
  C   C19       1.0  0.88083  0.83842  0.21889  1.0000
  C   C20       1.0  0.11917  0.16158  0.78111  1.0000
  C   C21       1.0  0.84064  0.99581  0.23226  1.0000
  C   C22       1.0  0.15936  0.00419  0.76774  1.0000
  C   C23       1.0  0.80493  0.02558  0.12128  1.0000
  C   C24       1.0  0.19507  0.97441  0.87872  1.0000
  C   C25       1.0  0.74129  0.17145  0.13530  1.0000
  C   C26       1.0  0.25871  0.82855  0.86469  1.0000
  C   C27       1.0  0.71658  0.20859  0.02694  1.0000
  C   C28       1.0  0.28342  0.79141  0.97306  1.0000
  C   C29       1.0  0.62196  0.32993  0.02730  1.0000
  C   C30       1.0  0.37804  0.67007  0.97270  1.0000
  N   N1        1.0  0.39743  0.31263  0.28978  1.0000
  N   N2        1.0  0.60257  0.68737  0.71022  1.0000
  O   O1        1.0  0.51187  0.65067  0.29058  1.0000
  O   O2        1.0  0.48813  0.34932  0.70942  1.0000
  O   O3        1.0  0.16373  0.31592  0.06932  1.0000
  O   O4        1.0  0.83627  0.68408  0.93068  1.0000
  O   O5        1.0  0.14511  0.65232  0.20514  1.0000
  O   O6        1.0  0.85491  0.34770  0.79487  1.0000
  O   O7        1.0  0.13622  0.49497  0.30529  1.0000
  O   O8        1.0  0.86378  0.50503  0.69472  1.0000
  O   O9        1.0  0.55173  0.37997  0.10857  1.0000
  O   O10       1.0  0.44827  0.62003  0.89142  1.0000
  O   O11       1.0  0.61244  0.37703  0.94333  1.0000
  O   O12       1.0  0.38756  0.62297  0.05667  1.0000
