data_image0
_chemical_formula_structural       Sb4H32C16I12O4
_chemical_formula_sum              "Sb4 H32 C16 I12 O4"
_cell_length_a       7.79071
_cell_length_b       11.2643
_cell_length_c       12.4383
_cell_angle_alpha    89.9993
_cell_angle_beta     89.9991
_cell_angle_gamma    92.9217

_space_group_name_H-M_alt    "P 1"
_space_group_IT_number       1

loop_
  _space_group_symop_operation_xyz
  'x, y, z'

loop_
  _atom_site_type_symbol
  _atom_site_label
  _atom_site_symmetry_multiplicity
  _atom_site_fract_x
  _atom_site_fract_y
  _atom_site_fract_z
  _atom_site_occupancy
  Sb  Sb1       1.0  0.78355  0.06050  0.06009  1.0000
  Sb  Sb2       1.0  0.71644  0.43950  0.56009  1.0000
  Sb  Sb3       1.0  0.21644  0.93951  0.93991  1.0000
  Sb  Sb4       1.0  0.28356  0.56050  0.43991  1.0000
  H   H1        1.0  0.87731  0.74078  0.87301  1.0000
  H   H2        1.0  0.62271  0.75920  0.37302  1.0000
  H   H3        1.0  0.12269  0.25921  0.12699  1.0000
  H   H4        1.0  0.37731  0.24079  0.62698  1.0000
  H   H5        1.0  0.69581  0.80982  0.92927  1.0000
  H   H6        1.0  0.80421  0.69018  0.42929  1.0000
  H   H7        1.0  0.30419  0.19018  0.07073  1.0000
  H   H8        1.0  0.19580  0.30982  0.57071  1.0000
  H   H9        1.0  0.73488  0.56697  0.95166  1.0000
  H   H10       1.0  0.76510  0.93303  0.45165  1.0000
  H   H11       1.0  0.26511  0.43303  0.04834  1.0000
  H   H12       1.0  0.23490  0.06697  0.54835  1.0000
  H   H13       1.0  0.64257  0.65157  0.05547  1.0000
  H   H14       1.0  0.85741  0.84844  0.55547  1.0000
  H   H15       1.0  0.35742  0.34843  0.94454  1.0000
  H   H16       1.0  0.14259  0.15156  0.44453  1.0000
  H   H17       1.0  0.88652  0.56890  0.14950  1.0000
  H   H18       1.0  0.61345  0.93110  0.64950  1.0000
  H   H19       1.0  0.11349  0.43110  0.85050  1.0000
  H   H20       1.0  0.38655  0.06890  0.35050  1.0000
  H   H21       1.0  0.02147  0.59024  0.03472  1.0000
  H   H22       1.0  0.47850  0.90974  0.53472  1.0000
  H   H23       1.0  0.97852  0.40976  0.96528  1.0000
  H   H24       1.0  0.52150  0.09025  0.46528  1.0000
  H   H25       1.0  0.88348  0.78193  0.18166  1.0000
  H   H26       1.0  0.61651  0.71806  0.68166  1.0000
  H   H27       1.0  0.11652  0.21807  0.81834  1.0000
  H   H28       1.0  0.38349  0.28193  0.31834  1.0000
  H   H29       1.0  0.09774  0.77098  0.13312  1.0000
  H   H30       1.0  0.40226  0.72900  0.63313  1.0000
  H   H31       1.0  0.90227  0.22902  0.86688  1.0000
  H   H32       1.0  0.59775  0.27099  0.36687  1.0000
  C   C1        1.0  0.80627  0.75645  0.94761  1.0000
  C   C2        1.0  0.69373  0.74354  0.44761  1.0000
  C   C3        1.0  0.19373  0.24355  0.05239  1.0000
  C   C4        1.0  0.30627  0.25645  0.55239  1.0000
  C   C5        1.0  0.75911  0.64161  0.00718  1.0000
  C   C6        1.0  0.74087  0.85839  0.50718  1.0000
  C   C7        1.0  0.24088  0.35839  0.99282  1.0000
  C   C8        1.0  0.25914  0.14161  0.49282  1.0000
  C   C9        1.0  0.91504  0.62649  0.07999  1.0000
  C   C10       1.0  0.58494  0.87349  0.57998  1.0000
  C   C11       1.0  0.08496  0.37351  0.92002  1.0000
  C   C12       1.0  0.41506  0.12650  0.42002  1.0000
  C   C13       1.0  0.96145  0.75337  0.11353  1.0000
  C   C14       1.0  0.53855  0.74662  0.61353  1.0000
  C   C15       1.0  0.03856  0.24663  0.88647  1.0000
  C   C16       1.0  0.46146  0.25338  0.38647  1.0000
  I   I1        1.0  0.68073  0.28916  0.10524  1.0000
  I   I2        1.0  0.81926  0.21084  0.60525  1.0000
  I   I3        1.0  0.31926  0.71084  0.89475  1.0000
  I   I4        1.0  0.18074  0.78916  0.39475  1.0000
  I   I5        1.0  0.97290  0.04734  0.25153  1.0000
  I   I6        1.0  0.52706  0.45266  0.75153  1.0000
  I   I7        1.0  0.02707  0.95267  0.74847  1.0000
  I   I8        1.0  0.47293  0.54734  0.24847  1.0000
  I   I9        1.0  0.49811  0.93004  0.15559  1.0000
  I   I10       1.0  0.00186  0.56996  0.65559  1.0000
  I   I11       1.0  0.50187  0.06996  0.84440  1.0000
  I   I12       1.0  0.99814  0.43005  0.34440  1.0000
  O   O1        1.0  0.92140  0.82698  0.02003  1.0000
  O   O2        1.0  0.57860  0.67302  0.52004  1.0000
  O   O3        1.0  0.07860  0.17302  0.97997  1.0000
  O   O4        1.0  0.42140  0.32698  0.47996  1.0000
