data_image0
_chemical_formula_structural       Tb4H28C28S4O32
_chemical_formula_sum              "Tb4 H28 C28 S4 O32"
_cell_length_a       8.72436
_cell_length_b       8.95059
_cell_length_c       14.0686
_cell_angle_alpha    101.841
_cell_angle_beta     89.9999
_cell_angle_gamma    90

_space_group_name_H-M_alt    "P 1"
_space_group_IT_number       1

loop_
  _space_group_symop_operation_xyz
  'x, y, z'

loop_
  _atom_site_type_symbol
  _atom_site_label
  _atom_site_symmetry_multiplicity
  _atom_site_fract_x
  _atom_site_fract_y
  _atom_site_fract_z
  _atom_site_occupancy
  Tb  Tb1       1.0  0.53738  0.26282  0.22089  1.0000
  Tb  Tb2       1.0  0.03738  0.23718  0.27911  1.0000
  Tb  Tb3       1.0  0.46262  0.73718  0.77911  1.0000
  Tb  Tb4       1.0  0.96262  0.76282  0.72089  1.0000
  H   H1        1.0  0.31502  0.59611  0.04193  1.0000
  H   H2        1.0  0.81502  0.90389  0.45806  1.0000
  H   H3        1.0  0.68497  0.40389  0.95807  1.0000
  H   H4        1.0  0.18498  0.09611  0.54193  1.0000
  H   H5        1.0  0.86604  0.80025  0.05671  1.0000
  H   H6        1.0  0.36604  0.69975  0.44329  1.0000
  H   H7        1.0  0.13396  0.19975  0.94329  1.0000
  H   H8        1.0  0.63396  0.30025  0.55671  1.0000
  H   H9        1.0  0.79526  0.66433  0.18798  1.0000
  H   H10       1.0  0.29527  0.83567  0.31202  1.0000
  H   H11       1.0  0.20473  0.33567  0.81202  1.0000
  H   H12       1.0  0.70474  0.16433  0.68798  1.0000
  H   H13       1.0  0.44825  0.20575  0.01770  1.0000
  H   H14       1.0  0.94824  0.29425  0.48230  1.0000
  H   H15       1.0  0.55176  0.79425  0.98230  1.0000
  H   H16       1.0  0.05175  0.70575  0.51770  1.0000
  H   H17       1.0  0.36378  0.05982  0.03810  1.0000
  H   H18       1.0  0.86378  0.44018  0.46190  1.0000
  H   H19       1.0  0.63622  0.94018  0.96190  1.0000
  H   H20       1.0  0.13622  0.55982  0.53810  1.0000
  H   H21       1.0  0.66971  0.50453  0.36798  1.0000
  H   H22       1.0  0.16971  0.99547  0.13202  1.0000
  H   H23       1.0  0.33029  0.49547  0.63202  1.0000
  H   H24       1.0  0.83029  0.00453  0.86798  1.0000
  H   H25       1.0  0.78832  0.48785  0.27991  1.0000
  H   H26       1.0  0.28832  0.01215  0.22009  1.0000
  H   H27       1.0  0.21168  0.51215  0.72009  1.0000
  H   H28       1.0  0.71168  0.98785  0.77991  1.0000
  C   C1        1.0  0.28849  0.44361  0.17744  1.0000
  C   C2        1.0  0.78849  0.05639  0.32256  1.0000
  C   C3        1.0  0.71151  0.55639  0.82256  1.0000
  C   C4        1.0  0.21151  0.94361  0.67744  1.0000
  C   C5        1.0  0.16430  0.53624  0.14823  1.0000
  C   C6        1.0  0.66430  0.96375  0.35176  1.0000
  C   C7        1.0  0.83570  0.46376  0.85177  1.0000
  C   C8        1.0  0.33570  0.03624  0.64823  1.0000
  C   C9        1.0  0.20110  0.61263  0.07382  1.0000
  C   C10       1.0  0.70110  0.88737  0.42618  1.0000
  C   C11       1.0  0.79890  0.38737  0.92618  1.0000
  C   C12       1.0  0.29891  0.11263  0.57382  1.0000
  C   C13       1.0  0.09436  0.70353  0.04001  1.0000
  C   C14       1.0  0.59436  0.79647  0.45999  1.0000
  C   C15       1.0  0.90564  0.29647  0.95998  1.0000
  C   C16       1.0  0.40564  0.20352  0.54001  1.0000
  C   C17       1.0  0.94776  0.72522  0.08233  1.0000
  C   C18       1.0  0.44776  0.77478  0.41767  1.0000
  C   C19       1.0  0.05224  0.27478  0.91767  1.0000
  C   C20       1.0  0.55224  0.22523  0.58233  1.0000
  C   C21       1.0  0.90947  0.65063  0.15586  1.0000
  C   C22       1.0  0.40947  0.84937  0.34414  1.0000
  C   C23       1.0  0.09053  0.34937  0.84414  1.0000
  C   C24       1.0  0.59053  0.15063  0.65586  1.0000
  C   C25       1.0  0.01401  0.55104  0.18983  1.0000
  C   C26       1.0  0.51401  0.94895  0.31017  1.0000
  C   C27       1.0  0.98599  0.44896  0.81017  1.0000
  C   C28       1.0  0.48599  0.05104  0.68983  1.0000
  S   S1        1.0  0.15216  0.80193  0.95056  1.0000
  S   S2        1.0  0.65216  0.69807  0.54945  1.0000
  S   S3        1.0  0.84784  0.19807  0.04944  1.0000
  S   S4        1.0  0.34784  0.30193  0.45055  1.0000
  O   O1        1.0  0.26325  0.34717  0.23383  1.0000
  O   O2        1.0  0.76325  0.15283  0.26617  1.0000
  O   O3        1.0  0.73675  0.65283  0.76617  1.0000
  O   O4        1.0  0.23675  0.84717  0.73383  1.0000
  O   O5        1.0  0.42420  0.45532  0.14703  1.0000
  O   O6        1.0  0.92420  0.04468  0.35297  1.0000
  O   O7        1.0  0.57580  0.54468  0.85297  1.0000
  O   O8        1.0  0.07580  0.95532  0.64703  1.0000
  O   O9        1.0  0.96983  0.47611  0.25693  1.0000
  O   O10       1.0  0.46983  0.02389  0.24307  1.0000
  O   O11       1.0  0.03017  0.52389  0.74307  1.0000
  O   O12       1.0  0.53017  0.97611  0.75693  1.0000
  O   O13       1.0  0.27820  0.71119  0.89728  1.0000
  O   O14       1.0  0.77820  0.78881  0.60272  1.0000
  O   O15       1.0  0.72180  0.28881  0.10272  1.0000
  O   O16       1.0  0.22180  0.21119  0.39728  1.0000
  O   O17       1.0  0.20306  0.95522  0.00068  1.0000
  O   O18       1.0  0.70306  0.54478  0.49932  1.0000
  O   O19       1.0  0.79694  0.04478  0.99932  1.0000
  O   O20       1.0  0.29694  0.45522  0.50068  1.0000
  O   O21       1.0  0.01806  0.81241  0.88846  1.0000
  O   O22       1.0  0.51806  0.68759  0.61154  1.0000
  O   O23       1.0  0.98194  0.18759  0.11154  1.0000
  O   O24       1.0  0.48194  0.31241  0.38846  1.0000
  O   O25       1.0  0.67606  0.47943  0.29653  1.0000
  O   O26       1.0  0.17606  0.02057  0.20347  1.0000
  O   O27       1.0  0.32394  0.52057  0.70347  1.0000
  O   O28       1.0  0.82394  0.97943  0.79653  1.0000
  O   O29       1.0  0.44025  0.13970  0.06435  1.0000
  O   O30       1.0  0.94025  0.36030  0.43565  1.0000
  O   O31       1.0  0.55975  0.86030  0.93565  1.0000
  O   O32       1.0  0.05974  0.63970  0.56435  1.0000
