data_image0
_chemical_formula_structural       Yb4H28C28S4O32
_chemical_formula_sum              "Yb4 H28 C28 S4 O32"
_cell_length_a       8.51114
_cell_length_b       9.20802
_cell_length_c       13.6539
_cell_angle_alpha    102.002
_cell_angle_beta     90.0006
_cell_angle_gamma    90.0005

_space_group_name_H-M_alt    "P 1"
_space_group_IT_number       1

loop_
  _space_group_symop_operation_xyz
  'x, y, z'

loop_
  _atom_site_type_symbol
  _atom_site_label
  _atom_site_symmetry_multiplicity
  _atom_site_fract_x
  _atom_site_fract_y
  _atom_site_fract_z
  _atom_site_occupancy
  Yb  Yb1       1.0  0.53717  0.75661  0.71695  1.0000
  Yb  Yb2       1.0  0.03717  0.74339  0.78306  1.0000
  Yb  Yb3       1.0  0.46283  0.24338  0.28305  1.0000
  Yb  Yb4       1.0  0.96283  0.25661  0.21694  1.0000
  H   H1        1.0  0.79429  0.16850  0.70515  1.0000
  H   H2        1.0  0.29427  0.33151  0.79485  1.0000
  H   H3        1.0  0.20572  0.83151  0.29486  1.0000
  H   H4        1.0  0.70574  0.66847  0.20513  1.0000
  H   H5        1.0  0.86511  0.30709  0.57341  1.0000
  H   H6        1.0  0.36510  0.19291  0.92659  1.0000
  H   H7        1.0  0.13489  0.69292  0.42660  1.0000
  H   H8        1.0  0.63490  0.80707  0.07340  1.0000
  H   H9        1.0  0.31517  0.08790  0.53899  1.0000
  H   H10       1.0  0.81516  0.41210  0.96101  1.0000
  H   H11       1.0  0.68483  0.91210  0.46101  1.0000
  H   H12       1.0  0.18483  0.58791  0.03900  1.0000
  H   H13       1.0  0.36314  0.55431  0.53659  1.0000
  H   H14       1.0  0.86313  0.94570  0.96342  1.0000
  H   H15       1.0  0.63686  0.44569  0.46342  1.0000
  H   H16       1.0  0.13686  0.05431  0.03659  1.0000
  H   H17       1.0  0.42112  0.71019  0.51949  1.0000
  H   H18       1.0  0.92112  0.78981  0.98051  1.0000
  H   H19       1.0  0.57888  0.28981  0.48052  1.0000
  H   H20       1.0  0.07887  0.21019  0.01949  1.0000
  H   H21       1.0  0.65310  0.99418  0.86732  1.0000
  H   H22       1.0  0.15309  0.50583  0.63269  1.0000
  H   H23       1.0  0.34690  0.00582  0.13269  1.0000
  H   H24       1.0  0.84691  0.49417  0.36732  1.0000
  H   H25       1.0  0.77920  0.97755  0.78012  1.0000
  H   H26       1.0  0.27920  0.52246  0.71988  1.0000
  H   H27       1.0  0.22080  0.02245  0.21988  1.0000
  H   H28       1.0  0.72080  0.47754  0.28012  1.0000
  C   C1        1.0  0.16423  0.02935  0.65044  1.0000
  C   C2        1.0  0.66424  0.47068  0.84956  1.0000
  C   C3        1.0  0.83577  0.97067  0.34956  1.0000
  C   C4        1.0  0.33577  0.52933  0.15044  1.0000
  C   C5        1.0  0.01326  0.04726  0.69720  1.0000
  C   C6        1.0  0.51328  0.45275  0.80280  1.0000
  C   C7        1.0  0.98673  0.95275  0.30280  1.0000
  C   C8        1.0  0.48673  0.54725  0.19720  1.0000
  C   C9        1.0  0.90869  0.15190  0.66860  1.0000
  C   C10       1.0  0.40869  0.34810  0.83139  1.0000
  C   C11       1.0  0.09131  0.84810  0.33140  1.0000
  C   C12       1.0  0.59132  0.65188  0.16860  1.0000
  C   C13       1.0  0.94712  0.22807  0.59478  1.0000
  C   C14       1.0  0.44711  0.27193  0.90521  1.0000
  C   C15       1.0  0.05289  0.77193  0.40522  1.0000
  C   C16       1.0  0.55290  0.72806  0.09478  1.0000
  C   C17       1.0  0.09384  0.20295  0.54656  1.0000
  C   C18       1.0  0.59382  0.29705  0.95344  1.0000
  C   C19       1.0  0.90616  0.79705  0.45345  1.0000
  C   C20       1.0  0.40618  0.70295  0.04656  1.0000
  C   C21       1.0  0.20109  0.10700  0.57534  1.0000
  C   C22       1.0  0.70108  0.39300  0.92465  1.0000
  C   C23       1.0  0.79891  0.89300  0.42466  1.0000
  C   C24       1.0  0.29892  0.60700  0.07534  1.0000
  C   C25       1.0  0.28866  0.93235  0.67517  1.0000
  C   C26       1.0  0.78867  0.56766  0.82482  1.0000
  C   C27       1.0  0.71133  0.06764  0.32482  1.0000
  C   C28       1.0  0.21133  0.43235  0.17518  1.0000
  S   S1        1.0  0.14736  0.29693  0.45228  1.0000
  S   S2        1.0  0.64736  0.20307  0.04772  1.0000
  S   S3        1.0  0.85264  0.70308  0.54772  1.0000
  S   S4        1.0  0.35264  0.79693  0.95228  1.0000
  O   O1        1.0  0.42442  0.93350  0.63676  1.0000
  O   O2        1.0  0.92441  0.56650  0.86324  1.0000
  O   O3        1.0  0.57558  0.06649  0.36324  1.0000
  O   O4        1.0  0.07558  0.43350  0.13676  1.0000
  O   O5        1.0  0.26551  0.84289  0.73665  1.0000
  O   O6        1.0  0.76550  0.65712  0.76335  1.0000
  O   O7        1.0  0.73450  0.15711  0.26335  1.0000
  O   O8        1.0  0.23450  0.34288  0.23665  1.0000
  O   O9        1.0  0.96785  0.97074  0.76404  1.0000
  O   O10       1.0  0.46785  0.52926  0.73595  1.0000
  O   O11       1.0  0.03215  0.02926  0.23596  1.0000
  O   O12       1.0  0.53216  0.47073  0.26404  1.0000
  O   O13       1.0  0.00865  0.29535  0.38727  1.0000
  O   O14       1.0  0.50864  0.20466  0.11273  1.0000
  O   O15       1.0  0.99136  0.70465  0.61273  1.0000
  O   O16       1.0  0.49135  0.79535  0.88727  1.0000
  O   O17       1.0  0.19152  0.45022  0.50002  1.0000
  O   O18       1.0  0.69150  0.04977  0.99997  1.0000
  O   O19       1.0  0.80848  0.54978  0.49997  1.0000
  O   O20       1.0  0.30848  0.95022  0.00003  1.0000
  O   O21       1.0  0.28025  0.21215  0.39933  1.0000
  O   O22       1.0  0.78025  0.28786  0.10067  1.0000
  O   O23       1.0  0.71975  0.78786  0.60068  1.0000
  O   O24       1.0  0.21975  0.71214  0.89933  1.0000
  O   O25       1.0  0.43691  0.63712  0.56076  1.0000
  O   O26       1.0  0.93691  0.86289  0.93925  1.0000
  O   O27       1.0  0.56310  0.36288  0.43925  1.0000
  O   O28       1.0  0.06309  0.13711  0.06076  1.0000
  O   O29       1.0  0.66309  0.96886  0.79376  1.0000
  O   O30       1.0  0.16308  0.53115  0.70624  1.0000
  O   O31       1.0  0.33692  0.03114  0.20624  1.0000
  O   O32       1.0  0.83692  0.46885  0.29376  1.0000
