data_image0
_chemical_formula_structural       Li6H34C44N2O18
_chemical_formula_sum              "Li6 H34 C44 N2 O18"
_cell_length_a       9.74613
_cell_length_b       10.8334
_cell_length_c       11.5024
_cell_angle_alpha    116.126
_cell_angle_beta     92.8705
_cell_angle_gamma    110.608

_space_group_name_H-M_alt    "P 1"
_space_group_IT_number       1

loop_
  _space_group_symop_operation_xyz
  'x, y, z'

loop_
  _atom_site_type_symbol
  _atom_site_label
  _atom_site_symmetry_multiplicity
  _atom_site_fract_x
  _atom_site_fract_y
  _atom_site_fract_z
  _atom_site_occupancy
  Li  Li1       1.0  0.93107  0.45531  0.66290  1.0000
  Li  Li2       1.0  0.06892  0.54470  0.33709  1.0000
  Li  Li3       1.0  0.76554  0.22959  0.79471  1.0000
  Li  Li4       1.0  0.23447  0.77041  0.20530  1.0000
  Li  Li5       1.0  0.71488  0.17885  0.50421  1.0000
  Li  Li6       1.0  0.28512  0.82115  0.49580  1.0000
  H   H1        1.0  0.79705  0.65224  0.61345  1.0000
  H   H2        1.0  0.20295  0.34776  0.38654  1.0000
  H   H3        1.0  0.64048  0.79858  0.67311  1.0000
  H   H4        1.0  0.35952  0.20143  0.32688  1.0000
  H   H5        1.0  0.50427  0.30833  0.06773  1.0000
  H   H6        1.0  0.49574  0.69166  0.93227  1.0000
  H   H7        1.0  0.31529  0.41944  0.12373  1.0000
  H   H8        1.0  0.68471  0.58055  0.87627  1.0000
  H   H9        1.0  0.99940  0.84939  0.25497  1.0000
  H   H10       1.0  0.00060  0.15061  0.74504  1.0000
  H   H11       1.0  0.85225  0.00567  0.31631  1.0000
  H   H12       1.0  0.14776  0.99433  0.68369  1.0000
  H   H13       1.0  0.47966  0.17636  0.59953  1.0000
  H   H14       1.0  0.52033  0.82364  0.40046  1.0000
  H   H15       1.0  0.18685  0.46447  0.72870  1.0000
  H   H16       1.0  0.81315  0.53553  0.27129  1.0000
  H   H17       1.0  0.81303  0.91869  0.01037  1.0000
  H   H18       1.0  0.18697  0.08130  0.98963  1.0000
  H   H19       1.0  0.73724  0.04007  0.12102  1.0000
  H   H20       1.0  0.26276  0.95992  0.87899  1.0000
  H   H21       1.0  0.93597  0.10196  0.14739  1.0000
  H   H22       1.0  0.06403  0.89803  0.85261  1.0000
  H   H23       1.0  0.18455  0.65436  0.69046  1.0000
  H   H24       1.0  0.81545  0.34564  0.30953  1.0000
  H   H25       1.0  0.06573  0.66190  0.60006  1.0000
  H   H26       1.0  0.93428  0.33811  0.39994  1.0000
  H   H27       1.0  0.88617  0.48548  0.89902  1.0000
  H   H28       1.0  0.11383  0.51452  0.10098  1.0000
  H   H29       1.0  0.02206  0.44175  0.86401  1.0000
  H   H30       1.0  0.97795  0.55825  0.13599  1.0000
  H   H31       1.0  0.59568  0.14522  0.29828  1.0000
  H   H32       1.0  0.40431  0.85478  0.70173  1.0000
  H   H33       1.0  0.52726  0.97162  0.26857  1.0000
  H   H34       1.0  0.47273  0.02838  0.73144  1.0000
  C   C1        1.0  0.48436  0.39396  0.63116  1.0000
  C   C2        1.0  0.51564  0.60605  0.36884  1.0000
  C   C3        1.0  0.63227  0.45294  0.60966  1.0000
  C   C4        1.0  0.36773  0.54706  0.39033  1.0000
  C   C5        1.0  0.68452  0.60374  0.62706  1.0000
  C   C6        1.0  0.31548  0.39626  0.37294  1.0000
  C   C7        1.0  0.59803  0.68454  0.65998  1.0000
  C   C8        1.0  0.40198  0.31547  0.34003  1.0000
  C   C9        1.0  0.44972  0.62522  0.68203  1.0000
  C   C10       1.0  0.55028  0.37479  0.31797  1.0000
  C   C11       1.0  0.39928  0.47644  0.66815  1.0000
  C   C12       1.0  0.60073  0.52357  0.33186  1.0000
  C   C13       1.0  0.39443  0.28924  0.77062  1.0000
  C   C14       1.0  0.60558  0.71077  0.22939  1.0000
  C   C15       1.0  0.47999  0.27562  0.86680  1.0000
  C   C16       1.0  0.52002  0.72438  0.13320  1.0000
  C   C17       1.0  0.44612  0.32519  0.99631  1.0000
  C   C18       1.0  0.55389  0.67480  0.00369  1.0000
  C   C19       1.0  0.34225  0.38601  0.02658  1.0000
  C   C20       1.0  0.65775  0.61398  0.97342  1.0000
  C   C21       1.0  0.26614  0.41026  0.93346  1.0000
  C   C22       1.0  0.73386  0.58973  0.06653  1.0000
  C   C23       1.0  0.30259  0.36404  0.80521  1.0000
  C   C24       1.0  0.69742  0.63596  0.19480  1.0000
  C   C25       1.0  0.25448  0.16125  0.53743  1.0000
  C   C26       1.0  0.74552  0.83875  0.46257  1.0000
  C   C27       1.0  0.19313  0.01041  0.42398  1.0000
  C   C28       1.0  0.80687  0.98959  0.57601  1.0000
  C   C29       1.0  0.04539  0.96030  0.34407  1.0000
  C   C30       1.0  0.95461  0.03970  0.65593  1.0000
  C   C31       1.0  0.96435  0.04657  0.37721  1.0000
  C   C32       1.0  0.03565  0.95344  0.62279  1.0000
  C   C33       1.0  0.02100  0.19227  0.49543  1.0000
  C   C34       1.0  0.97900  0.80773  0.50457  1.0000
  C   C35       1.0  0.17082  0.24538  0.57267  1.0000
  C   C36       1.0  0.82918  0.75462  0.42734  1.0000
  C   C37       1.0  0.41289  0.24277  0.62863  1.0000
  C   C38       1.0  0.58711  0.75724  0.37137  1.0000
  C   C39       1.0  0.25305  0.39775  0.69842  1.0000
  C   C40       1.0  0.74696  0.60226  0.30157  1.0000
  C   C41       1.0  0.82950  0.03692  0.07011  1.0000
  C   C42       1.0  0.17050  0.96306  0.92989  1.0000
  C   C43       1.0  0.83119  0.10396  0.98565  1.0000
  C   C44       1.0  0.16880  0.89602  0.01435  1.0000
  N   N1        1.0  0.83198  0.15672  0.91673  1.0000
  N   N2        1.0  0.16800  0.84325  0.08326  1.0000
  O   O1        1.0  0.71675  0.38047  0.58493  1.0000
  O   O2        1.0  0.28325  0.61954  0.41507  1.0000
  O   O3        1.0  0.37276  0.70481  0.71955  1.0000
  O   O4        1.0  0.62724  0.29518  0.28044  1.0000
  O   O5        1.0  0.57837  0.22054  0.83834  1.0000
  O   O6        1.0  0.42164  0.77947  0.16166  1.0000
  O   O7        1.0  0.16700  0.46486  0.96166  1.0000
  O   O8        1.0  0.83300  0.53512  0.03834  1.0000
  O   O9        1.0  0.26499  0.92495  0.39335  1.0000
  O   O10       1.0  0.73501  0.07505  0.60665  1.0000
  O   O11       1.0  0.94332  0.27259  0.52614  1.0000
  O   O12       1.0  0.05668  0.72742  0.47386  1.0000
  O   O13       1.0  0.07537  0.63356  0.66947  1.0000
  O   O14       1.0  0.92463  0.36644  0.33053  1.0000
  O   O15       1.0  0.92172  0.42777  0.82010  1.0000
  O   O16       1.0  0.07828  0.57223  0.17990  1.0000
  O   O17       1.0  0.60938  0.07332  0.32526  1.0000
  O   O18       1.0  0.39060  0.92668  0.67474  1.0000
