data_image0
_chemical_formula_structural       Hg4H42C66I8N12O12
_chemical_formula_sum              "Hg4 H42 C66 I8 N12 O12"
_cell_length_a       10.7683
_cell_length_b       14.2724
_cell_length_c       14.7934
_cell_angle_alpha    62.5628
_cell_angle_beta     89.5537
_cell_angle_gamma    69.8272

_space_group_name_H-M_alt    "P 1"
_space_group_IT_number       1

loop_
  _space_group_symop_operation_xyz
  'x, y, z'

loop_
  _atom_site_type_symbol
  _atom_site_label
  _atom_site_symmetry_multiplicity
  _atom_site_fract_x
  _atom_site_fract_y
  _atom_site_fract_z
  _atom_site_occupancy
  Hg  Hg1       1.0  0.78390  0.70496  0.16439  1.0000
  Hg  Hg2       1.0  0.21610  0.29504  0.83561  1.0000
  Hg  Hg3       1.0  0.73084  0.79118  0.38981  1.0000
  Hg  Hg4       1.0  0.26916  0.20882  0.61019  1.0000
  H   H1        1.0  0.78855  0.51779  0.46109  1.0000
  H   H2        1.0  0.21146  0.48220  0.53892  1.0000
  H   H3        1.0  0.68977  0.39946  0.42903  1.0000
  H   H4        1.0  0.31023  0.60054  0.57097  1.0000
  H   H5        1.0  0.30985  0.68973  0.30615  1.0000
  H   H6        1.0  0.69015  0.31027  0.69385  1.0000
  H   H7        1.0  0.42501  0.79689  0.34320  1.0000
  H   H8        1.0  0.57499  0.20311  0.65680  1.0000
  H   H9        1.0  0.47167  0.38067  0.38922  1.0000
  H   H10       1.0  0.52833  0.61933  0.61078  1.0000
  H   H11       1.0  0.31916  0.50469  0.32918  1.0000
  H   H12       1.0  0.68084  0.49531  0.67082  1.0000
  H   H13       1.0  0.71965  0.32601  0.08758  1.0000
  H   H14       1.0  0.28035  0.67399  0.91242  1.0000
  H   H15       1.0  0.65731  0.96810  0.95048  1.0000
  H   H16       1.0  0.34270  0.03189  0.04952  1.0000
  H   H17       1.0  0.73821  0.09914  0.80643  1.0000
  H   H18       1.0  0.26179  0.90086  0.19358  1.0000
  H   H19       1.0  0.14482  0.87144  0.96964  1.0000
  H   H20       1.0  0.85518  0.12856  0.03035  1.0000
  H   H21       1.0  0.04738  0.75403  0.11014  1.0000
  H   H22       1.0  0.95263  0.24597  0.88986  1.0000
  H   H23       1.0  0.94429  0.16050  0.75999  1.0000
  H   H24       1.0  0.05571  0.83950  0.24001  1.0000
  H   H25       1.0  0.10848  0.05251  0.81829  1.0000
  H   H26       1.0  0.89152  0.94749  0.18171  1.0000
  H   H27       1.0  0.16898  0.79723  0.61313  1.0000
  H   H28       1.0  0.83102  0.20277  0.38687  1.0000
  H   H29       1.0  0.06652  0.61618  0.06700  1.0000
  H   H30       1.0  0.93348  0.38382  0.93300  1.0000
  H   H31       1.0  0.23676  0.43853  0.07838  1.0000
  H   H32       1.0  0.76324  0.56147  0.92163  1.0000
  H   H33       1.0  0.96367  0.27066  0.20981  1.0000
  H   H34       1.0  0.03633  0.72934  0.79018  1.0000
  H   H35       1.0  0.80571  0.45389  0.19471  1.0000
  H   H36       1.0  0.19429  0.54611  0.80529  1.0000
  H   H37       1.0  0.17210  0.17549  0.15249  1.0000
  H   H38       1.0  0.82790  0.82451  0.84751  1.0000
  H   H39       1.0  0.28487  0.24634  0.10109  1.0000
  H   H40       1.0  0.71513  0.75366  0.89891  1.0000
  H   H41       1.0  0.61254  0.14232  0.45246  1.0000
  H   H42       1.0  0.38746  0.85768  0.54754  1.0000
  C   C1        1.0  0.68269  0.55305  0.42645  1.0000
  C   C2        1.0  0.31731  0.44695  0.57355  1.0000
  C   C3        1.0  0.62723  0.48764  0.40734  1.0000
  C   C4        1.0  0.37277  0.51235  0.59266  1.0000
  C   C5        1.0  0.49171  0.53705  0.36095  1.0000
  C   C6        1.0  0.50829  0.46295  0.63905  1.0000
  C   C7        1.0  0.41670  0.64914  0.33917  1.0000
  C   C8        1.0  0.58330  0.35086  0.66083  1.0000
  C   C9        1.0  0.48005  0.70867  0.36052  1.0000
  C   C10       1.0  0.51995  0.29133  0.63948  1.0000
  C   C11       1.0  0.42848  0.47227  0.33268  1.0000
  C   C12       1.0  0.57152  0.52773  0.66732  1.0000
  C   C13       1.0  0.56633  0.41191  0.21660  1.0000
  C   C14       1.0  0.43367  0.58809  0.78340  1.0000
  C   C15       1.0  0.54547  0.44792  0.10411  1.0000
  C   C16       1.0  0.45453  0.55208  0.89589  1.0000
  C   C17       1.0  0.42319  0.54284  0.05648  1.0000
  C   C18       1.0  0.57681  0.45716  0.94352  1.0000
  C   C19       1.0  0.36292  0.56680  0.13850  1.0000
  C   C20       1.0  0.63708  0.43320  0.86150  1.0000
  C   C21       1.0  0.62650  0.40146  0.04941  1.0000
  C   C22       1.0  0.37350  0.59854  0.95059  1.0000
  C   C23       1.0  0.76457  0.95038  0.95204  1.0000
  C   C24       1.0  0.23543  0.04962  0.04796  1.0000
  C   C25       1.0  0.81061  0.02269  0.87164  1.0000
  C   C26       1.0  0.18939  0.97731  0.12836  1.0000
  C   C27       1.0  0.94913  0.99528  0.87558  1.0000
  C   C28       1.0  0.05087  0.00472  0.12442  1.0000
  C   C29       1.0  0.03614  0.89688  0.96259  1.0000
  C   C30       1.0  0.96387  0.10312  0.03741  1.0000
  C   C31       1.0  0.98237  0.83015  0.04056  1.0000
  C   C32       1.0  0.01763  0.16985  0.95944  1.0000
  C   C33       1.0  0.00493  0.06930  0.78971  1.0000
  C   C34       1.0  0.99507  0.93070  0.21028  1.0000
  C   C35       1.0  0.07997  0.94529  0.70624  1.0000
  C   C36       1.0  0.92003  0.05471  0.29376  1.0000
  C   C37       1.0  0.04887  0.96177  0.60081  1.0000
  C   C38       1.0  0.95113  0.03823  0.39919  1.0000
  C   C39       1.0  0.95568  0.07402  0.53865  1.0000
  C   C40       1.0  0.04432  0.92598  0.46135  1.0000
  C   C41       1.0  0.92414  0.13114  0.60342  1.0000
  C   C42       1.0  0.07586  0.86886  0.39658  1.0000
  C   C43       1.0  0.09624  0.88394  0.56441  1.0000
  C   C44       1.0  0.90376  0.11606  0.43559  1.0000
  C   C45       1.0  0.04701  0.53797  0.09829  1.0000
  C   C46       1.0  0.95299  0.46203  0.90171  1.0000
  C   C47       1.0  0.14208  0.43885  0.10483  1.0000
  C   C48       1.0  0.85792  0.56115  0.89517  1.0000
  C   C49       1.0  0.11572  0.33914  0.14691  1.0000
  C   C50       1.0  0.88428  0.66086  0.85308  1.0000
  C   C51       1.0  0.99155  0.34481  0.17824  1.0000
  C   C52       1.0  0.00845  0.65519  0.82176  1.0000
  C   C53       1.0  0.90210  0.44760  0.16919  1.0000
  C   C54       1.0  0.09790  0.55240  0.83081  1.0000
  C   C55       1.0  0.22019  0.22874  0.15969  1.0000
  C   C56       1.0  0.77981  0.77126  0.84031  1.0000
  C   C57       1.0  0.40286  0.18735  0.29485  1.0000
  C   C58       1.0  0.59714  0.81265  0.70515  1.0000
  C   C59       1.0  0.46476  0.09426  0.40347  1.0000
  C   C60       1.0  0.53524  0.90574  0.59653  1.0000
  C   C61       1.0  0.40330  0.01516  0.42958  1.0000
  C   C62       1.0  0.59670  0.98484  0.57041  1.0000
  C   C63       1.0  0.30247  0.05574  0.33781  1.0000
  C   C64       1.0  0.69753  0.94426  0.66219  1.0000
  C   C65       1.0  0.56394  0.08145  0.47302  1.0000
  C   C66       1.0  0.43606  0.91855  0.52698  1.0000
  I   I1        1.0  0.96874  0.63675  0.32957  1.0000
  I   I2        1.0  0.03127  0.36325  0.67043  1.0000
  I   I3        1.0  0.54008  0.75464  0.07058  1.0000
  I   I4        1.0  0.45992  0.24536  0.92943  1.0000
  I   I5        1.0  0.85992  0.71013  0.58009  1.0000
  I   I6        1.0  0.14008  0.28986  0.41991  1.0000
  I   I7        1.0  0.59984  0.97314  0.20401  1.0000
  I   I8        1.0  0.40016  0.02686  0.79599  1.0000
  N   N1        1.0  0.61120  0.66218  0.40214  1.0000
  N   N2        1.0  0.38879  0.33782  0.59786  1.0000
  N   N3        1.0  0.45128  0.48335  0.23159  1.0000
  N   N4        1.0  0.54871  0.51665  0.76841  1.0000
  N   N5        1.0  0.84944  0.85528  0.03461  1.0000
  N   N6        1.0  0.15056  0.14472  0.96539  1.0000
  N   N7        1.0  0.00601  0.05036  0.70107  1.0000
  N   N8        1.0  0.99399  0.94964  0.29893  1.0000
  N   N9        1.0  0.92929  0.54248  0.13077  1.0000
  N   N10       1.0  0.07071  0.45752  0.86923  1.0000
  N   N11       1.0  0.30544  0.15949  0.26202  1.0000
  N   N12       1.0  0.69456  0.84051  0.73798  1.0000
  O   O1        1.0  0.66365  0.33873  0.28479  1.0000
  O   O2        1.0  0.33635  0.66127  0.71521  1.0000
  O   O3        1.0  0.25715  0.64212  0.12994  1.0000
  O   O4        1.0  0.74285  0.35789  0.87006  1.0000
  O   O5        1.0  0.15215  0.85896  0.78461  1.0000
  O   O6        1.0  0.84785  0.14104  0.21539  1.0000
  O   O7        1.0  0.84349  0.22683  0.58092  1.0000
  O   O8        1.0  0.15651  0.77317  0.41908  1.0000
  O   O9        1.0  0.23036  0.00995  0.32715  1.0000
  O   O10       1.0  0.76964  0.99005  0.67285  1.0000
  O   O11       1.0  0.42801  0.27182  0.24163  1.0000
  O   O12       1.0  0.57199  0.72818  0.75837  1.0000
