data_image0
_chemical_formula_structural       Ni2H26C36SN4O10
_chemical_formula_sum              "Ni2 H26 C36 S1 N4 O10"
_cell_length_a       8.08436
_cell_length_b       11.2261
_cell_length_c       13.2464
_cell_angle_alpha    107.332
_cell_angle_beta     107.768
_cell_angle_gamma    90.0124

_space_group_name_H-M_alt    "P 1"
_space_group_IT_number       1

loop_
  _space_group_symop_operation_xyz
  'x, y, z'

loop_
  _atom_site_type_symbol
  _atom_site_label
  _atom_site_symmetry_multiplicity
  _atom_site_fract_x
  _atom_site_fract_y
  _atom_site_fract_z
  _atom_site_occupancy
  Ni  Ni1       1.0  0.85717  0.06904  0.62422  1.0000
  Ni  Ni2       1.0  0.23296  0.93098  0.37582  1.0000
  H   H1        1.0  0.69107  0.78934  0.94473  1.0000
  H   H2        1.0  0.74626  0.21067  0.05528  1.0000
  H   H3        1.0  0.42358  0.69614  0.77954  1.0000
  H   H4        1.0  0.64395  0.30364  0.22043  1.0000
  H   H5        1.0  0.33474  0.79638  0.62851  1.0000
  H   H6        1.0  0.70626  0.20338  0.37144  1.0000
  H   H7        1.0  0.68981  0.81502  0.45849  1.0000
  H   H8        1.0  0.23123  0.18509  0.54155  1.0000
  H   H9        1.0  0.67580  0.59459  0.45985  1.0000
  H   H10       1.0  0.21575  0.40547  0.54010  1.0000
  H   H11       1.0  0.04833  0.72123  0.79337  1.0000
  H   H12       1.0  0.25514  0.27881  0.20669  1.0000
  H   H13       1.0  0.04534  0.93583  0.77753  1.0000
  H   H14       1.0  0.26813  0.06424  0.22263  1.0000
  H   H15       1.0  0.10761  0.30358  0.74060  1.0000
  H   H16       1.0  0.36700  0.69656  0.25938  1.0000
  H   H17       1.0  0.12420  0.52490  0.74195  1.0000
  H   H18       1.0  0.38235  0.47523  0.25800  1.0000
  H   H19       1.0  0.58605  0.45242  0.52834  1.0000
  H   H20       1.0  0.05802  0.54757  0.47169  1.0000
  H   H21       1.0  0.59645  0.23155  0.53310  1.0000
  H   H22       1.0  0.06349  0.76841  0.46693  1.0000
  H   H23       1.0  0.19106  0.02918  0.61546  1.0000
  H   H24       1.0  0.57567  0.97091  0.38454  1.0000
  H   H25       1.0  0.18098  0.09415  0.73809  1.0000
  H   H26       1.0  0.44288  0.90594  0.26193  1.0000
  C   C1        1.0  0.54091  0.94670  0.71019  1.0000
  C   C2        1.0  0.83079  0.05318  0.28973  1.0000
  C   C3        1.0  0.68691  0.00273  0.80512  1.0000
  C   C4        1.0  0.88169  0.99714  0.19474  1.0000
  C   C5        1.0  0.73928  0.94212  0.88702  1.0000
  C   C6        1.0  0.85210  0.05778  0.11283  1.0000
  C   C7        1.0  0.64546  0.83283  0.87879  1.0000
  C   C8        1.0  0.76659  0.16709  0.12117  1.0000
  C   C9        1.0  0.49687  0.78162  0.78681  1.0000
  C   C10       1.0  0.71005  0.21821  0.21317  1.0000
  C   C11       1.0  0.44644  0.83763  0.70284  1.0000
  C   C12       1.0  0.74365  0.16219  0.29712  1.0000
  C   C13       1.0  0.48712  0.99480  0.61255  1.0000
  C   C14       1.0  0.87467  0.00510  0.38740  1.0000
  C   C15       1.0  0.78378  0.12909  0.82752  1.0000
  C   C16       1.0  0.95625  0.87085  0.17242  1.0000
  C   C17       1.0  0.76756  0.78989  0.53087  1.0000
  C   C18       1.0  0.23666  0.21020  0.46916  1.0000
  C   C19       1.0  0.75988  0.66697  0.53273  1.0000
  C   C20       1.0  0.22703  0.33309  0.46725  1.0000
  C   C21       1.0  0.86172  0.63736  0.62717  1.0000
  C   C22       1.0  0.23463  0.36267  0.37283  1.0000
  C   C23       1.0  0.96937  0.73606  0.71605  1.0000
  C   C24       1.0  0.25346  0.26396  0.28400  1.0000
  C   C25       1.0  0.96913  0.85648  0.70799  1.0000
  C   C26       1.0  0.26133  0.14356  0.29213  1.0000
  C   C27       1.0  0.99580  0.34007  0.69360  1.0000
  C   C28       1.0  0.30229  0.66003  0.30641  1.0000
  C   C29       1.0  0.00322  0.46399  0.69431  1.0000
  C   C30       1.0  0.30914  0.53611  0.30572  1.0000
  C   C31       1.0  0.85691  0.50801  0.63214  1.0000
  C   C32       1.0  0.22507  0.49204  0.36789  1.0000
  C   C33       1.0  0.70657  0.42309  0.57433  1.0000
  C   C34       1.0  0.13259  0.57695  0.42573  1.0000
  C   C35       1.0  0.71034  0.30023  0.57700  1.0000
  C   C36       1.0  0.13358  0.69980  0.42307  1.0000
  S   S1        1.0  0.93666  0.00002  0.99995  1.0000
  N   N1        1.0  0.86966  0.88408  0.61741  1.0000
  N   N2        1.0  0.25235  0.11599  0.38270  1.0000
  N   N3        1.0  0.85342  0.25812  0.63382  1.0000
  N   N4        1.0  0.21973  0.74194  0.36620  1.0000
  O   O1        1.0  0.59368  0.05778  0.59059  1.0000
  O   O2        1.0  0.00303  0.94205  0.40937  1.0000
  O   O3        1.0  0.32678  0.96600  0.54923  1.0000
  O   O4        1.0  0.77775  0.03408  0.45076  1.0000
  O   O5        1.0  0.91781  0.12817  0.79283  1.0000
  O   O6        1.0  0.12500  0.87193  0.20728  1.0000
  O   O7        1.0  0.73063  0.22290  0.88116  1.0000
  O   O8        1.0  0.84959  0.77697  0.11872  1.0000
  O   O9        1.0  0.13023  0.09101  0.66045  1.0000
  O   O10       1.0  0.46985  0.90905  0.33956  1.0000
