data_image0
_chemical_formula_structural       Er2H30C30N2O16
_chemical_formula_sum              "Er2 H30 C30 N2 O16"
_cell_length_a       8.57785
_cell_length_b       10.253
_cell_length_c       10.8948
_cell_angle_alpha    63.1884
_cell_angle_beta     70.5047
_cell_angle_gamma    81.2196

_space_group_name_H-M_alt    "P 1"
_space_group_IT_number       1

loop_
  _space_group_symop_operation_xyz
  'x, y, z'

loop_
  _atom_site_type_symbol
  _atom_site_label
  _atom_site_symmetry_multiplicity
  _atom_site_fract_x
  _atom_site_fract_y
  _atom_site_fract_z
  _atom_site_occupancy
  Er  Er1       1.0  0.13927  0.93929  0.15895  1.0000
  Er  Er2       1.0  0.86073  0.06072  0.84105  1.0000
  H   H1        1.0  0.99335  0.53402  0.76133  1.0000
  H   H2        1.0  0.00666  0.46600  0.23867  1.0000
  H   H3        1.0  0.94746  0.25319  0.20632  1.0000
  H   H4        1.0  0.05254  0.74683  0.79367  1.0000
  H   H5        1.0  0.54660  0.82870  0.38758  1.0000
  H   H6        1.0  0.45340  0.17129  0.61244  1.0000
  H   H7        1.0  0.74083  0.12766  0.47654  1.0000
  H   H8        1.0  0.25917  0.87233  0.52347  1.0000
  H   H9        1.0  0.20338  0.55016  0.59630  1.0000
  H   H10       1.0  0.79661  0.44983  0.40369  1.0000
  H   H11       1.0  0.65021  0.64745  0.24127  1.0000
  H   H12       1.0  0.34979  0.35254  0.75871  1.0000
  H   H13       1.0  0.14320  0.15378  0.33817  1.0000
  H   H14       1.0  0.85680  0.84621  0.66183  1.0000
  H   H15       1.0  0.30182  0.47687  0.22521  1.0000
  H   H16       1.0  0.69818  0.52312  0.77481  1.0000
  H   H17       1.0  0.41770  0.35517  0.34261  1.0000
  H   H18       1.0  0.58229  0.64483  0.65740  1.0000
  H   H19       1.0  0.20333  0.32348  0.38541  1.0000
  H   H20       1.0  0.79668  0.67652  0.61459  1.0000
  H   H21       1.0  0.57458  0.19166  0.11018  1.0000
  H   H22       1.0  0.42543  0.80834  0.88982  1.0000
  H   H23       1.0  0.59669  0.36224  0.11223  1.0000
  H   H24       1.0  0.40331  0.63776  0.88779  1.0000
  H   H25       1.0  0.49474  0.35373  0.99661  1.0000
  H   H26       1.0  0.50527  0.64627  0.00340  1.0000
  H   H27       1.0  0.41804  0.09018  0.88812  1.0000
  H   H28       1.0  0.58197  0.90982  0.11188  1.0000
  H   H29       1.0  0.26003  0.07767  0.84581  1.0000
  H   H30       1.0  0.73997  0.92233  0.15419  1.0000
  C   C1        1.0  0.94186  0.25430  0.95837  1.0000
  C   C2        1.0  0.05813  0.74572  0.04162  1.0000
  C   C3        1.0  0.96929  0.38130  0.98094  1.0000
  C   C4        1.0  0.03070  0.61872  0.01906  1.0000
  C   C5        1.0  0.99687  0.52053  0.86535  1.0000
  C   C6        1.0  0.00313  0.47949  0.13465  1.0000
  C   C7        1.0  0.97137  0.36141  0.11639  1.0000
  C   C8        1.0  0.02863  0.63861  0.88361  1.0000
  C   C9        1.0  0.82902  0.94953  0.34228  1.0000
  C   C10       1.0  0.17098  0.05047  0.65772  1.0000
  C   C11       1.0  0.65911  0.97624  0.42308  1.0000
  C   C12       1.0  0.34089  0.02375  0.57693  1.0000
  C   C13       1.0  0.52405  0.90403  0.43672  1.0000
  C   C14       1.0  0.47596  0.09595  0.56329  1.0000
  C   C15       1.0  0.63479  0.07300  0.48653  1.0000
  C   C16       1.0  0.36521  0.92699  0.51348  1.0000
  C   C17       1.0  0.32594  0.73133  0.31975  1.0000
  C   C18       1.0  0.67406  0.26867  0.68024  1.0000
  C   C19       1.0  0.41707  0.61068  0.41059  1.0000
  C   C20       1.0  0.58293  0.38931  0.58940  1.0000
  C   C21       1.0  0.33352  0.52690  0.55610  1.0000
  C   C22       1.0  0.66648  0.47309  0.44388  1.0000
  C   C23       1.0  0.58467  0.58275  0.35437  1.0000
  C   C24       1.0  0.41533  0.41724  0.64561  1.0000
  C   C25       1.0  0.25634  0.17086  0.24666  1.0000
  C   C26       1.0  0.74367  0.82914  0.75335  1.0000
  C   C27       1.0  0.31873  0.36214  0.29701  1.0000
  C   C28       1.0  0.68127  0.63786  0.70300  1.0000
  C   C29       1.0  0.51576  0.29664  0.10269  1.0000
  C   C30       1.0  0.48424  0.70336  0.89732  1.0000
  N   N1        1.0  0.36005  0.27162  0.21887  1.0000
  N   N2        1.0  0.63995  0.72838  0.78113  1.0000
  O   O1        1.0  0.99188  0.12821  0.03238  1.0000
  O   O2        1.0  0.00812  0.87181  0.96762  1.0000
  O   O3        1.0  0.31439  0.03457  0.92367  1.0000
  O   O4        1.0  0.68561  0.96543  0.07633  1.0000
  O   O5        1.0  0.87023  0.27577  0.86583  1.0000
  O   O6        1.0  0.12976  0.72424  0.13418  1.0000
  O   O7        1.0  0.95231  0.00591  0.34056  1.0000
  O   O8        1.0  0.04769  0.99410  0.65944  1.0000
  O   O9        1.0  0.85057  0.87140  0.27266  1.0000
  O   O10       1.0  0.14943  0.12861  0.72734  1.0000
  O   O11       1.0  0.17423  0.75369  0.37620  1.0000
  O   O12       1.0  0.82577  0.24632  0.62380  1.0000
  O   O13       1.0  0.39980  0.81234  0.18684  1.0000
  O   O14       1.0  0.60020  0.18767  0.81316  1.0000
  O   O15       1.0  0.28518  0.09825  0.17397  1.0000
  O   O16       1.0  0.71482  0.90175  0.82603  1.0000
