data_image0
_chemical_formula_structural       Er2H30C30N2O16
_chemical_formula_sum              "Er2 H30 C30 N2 O16"
_cell_length_a       8.5963
_cell_length_b       10.2835
_cell_length_c       10.8259
_cell_angle_alpha    63.0905
_cell_angle_beta     70.5733
_cell_angle_gamma    81.7173

_space_group_name_H-M_alt    "P 1"
_space_group_IT_number       1

loop_
  _space_group_symop_operation_xyz
  'x, y, z'

loop_
  _atom_site_type_symbol
  _atom_site_label
  _atom_site_symmetry_multiplicity
  _atom_site_fract_x
  _atom_site_fract_y
  _atom_site_fract_z
  _atom_site_occupancy
  Er  Er1       1.0  0.13832  0.93826  0.16200  1.0000
  Er  Er2       1.0  0.86167  0.06175  0.83799  1.0000
  H   H1        1.0  0.26057  0.07562  0.84553  1.0000
  H   H2        1.0  0.73943  0.92439  0.15446  1.0000
  H   H3        1.0  0.41845  0.08798  0.88797  1.0000
  H   H4        1.0  0.58155  0.91203  0.11202  1.0000
  H   H5        1.0  0.98692  0.53416  0.76137  1.0000
  H   H6        1.0  0.01307  0.46584  0.23863  1.0000
  H   H7        1.0  0.95953  0.25160  0.20560  1.0000
  H   H8        1.0  0.04046  0.74840  0.79439  1.0000
  H   H9        1.0  0.54910  0.82099  0.39667  1.0000
  H   H10       1.0  0.45089  0.17900  0.60333  1.0000
  H   H11       1.0  0.73871  0.13547  0.46979  1.0000
  H   H12       1.0  0.26128  0.86452  0.53021  1.0000
  H   H13       1.0  0.20359  0.54395  0.60045  1.0000
  H   H14       1.0  0.79641  0.45607  0.39953  1.0000
  H   H15       1.0  0.64760  0.65286  0.23953  1.0000
  H   H16       1.0  0.35240  0.34716  0.76045  1.0000
  H   H17       1.0  0.15078  0.15102  0.34274  1.0000
  H   H18       1.0  0.84920  0.84899  0.65725  1.0000
  H   H19       1.0  0.43088  0.36324  0.32992  1.0000
  H   H20       1.0  0.56912  0.63675  0.67009  1.0000
  H   H21       1.0  0.21669  0.32353  0.38467  1.0000
  H   H22       1.0  0.78331  0.67647  0.61534  1.0000
  H   H23       1.0  0.30564  0.47723  0.21871  1.0000
  H   H24       1.0  0.69437  0.52276  0.78129  1.0000
  H   H25       1.0  0.60649  0.35360  0.10649  1.0000
  H   H26       1.0  0.39352  0.64637  0.89355  1.0000
  H   H27       1.0  0.49110  0.36981  0.98965  1.0000
  H   H28       1.0  0.50895  0.63015  0.01037  1.0000
  H   H29       1.0  0.56543  0.19674  0.08977  1.0000
  H   H30       1.0  0.43460  0.80322  0.91029  1.0000
  C   C1        1.0  0.94517  0.25282  0.95915  1.0000
  C   C2        1.0  0.05482  0.74718  0.04085  1.0000
  C   C3        1.0  0.97224  0.38044  0.98083  1.0000
  C   C4        1.0  0.02775  0.61956  0.01917  1.0000
  C   C5        1.0  0.99310  0.52047  0.86542  1.0000
  C   C6        1.0  0.00689  0.47954  0.13457  1.0000
  C   C7        1.0  0.97848  0.36065  0.11601  1.0000
  C   C8        1.0  0.02151  0.63936  0.88399  1.0000
  C   C9        1.0  0.82894  0.94874  0.34517  1.0000
  C   C10       1.0  0.17106  0.05126  0.65482  1.0000
  C   C11       1.0  0.65920  0.97636  0.42426  1.0000
  C   C12       1.0  0.34079  0.02364  0.57574  1.0000
  C   C13       1.0  0.52539  0.89978  0.44174  1.0000
  C   C14       1.0  0.47460  0.10021  0.55825  1.0000
  C   C15       1.0  0.63361  0.07741  0.48269  1.0000
  C   C16       1.0  0.36638  0.92259  0.51730  1.0000
  C   C17       1.0  0.32423  0.73046  0.32211  1.0000
  C   C18       1.0  0.67577  0.26956  0.67788  1.0000
  C   C19       1.0  0.41601  0.61012  0.41184  1.0000
  C   C20       1.0  0.58399  0.38989  0.58815  1.0000
  C   C21       1.0  0.33359  0.52353  0.55832  1.0000
  C   C22       1.0  0.66641  0.47648  0.44167  1.0000
  C   C23       1.0  0.58342  0.58561  0.35339  1.0000
  C   C24       1.0  0.41658  0.41440  0.64659  1.0000
  C   C25       1.0  0.26092  0.16940  0.24797  1.0000
  C   C26       1.0  0.73908  0.83060  0.75203  1.0000
  C   C27       1.0  0.32779  0.36432  0.29100  1.0000
  C   C28       1.0  0.67221  0.63567  0.70901  1.0000
  C   C29       1.0  0.51617  0.29981  0.09320  1.0000
  C   C30       1.0  0.48386  0.70015  0.90683  1.0000
  N   N1        1.0  0.36550  0.27198  0.21523  1.0000
  N   N2        1.0  0.63451  0.72800  0.78478  1.0000
  O   O1        1.0  0.99412  0.12756  0.03478  1.0000
  O   O2        1.0  0.00586  0.87244  0.96521  1.0000
  O   O3        1.0  0.87427  0.27350  0.86582  1.0000
  O   O4        1.0  0.12572  0.72651  0.13418  1.0000
  O   O5        1.0  0.95224  0.00339  0.34555  1.0000
  O   O6        1.0  0.04775  0.99661  0.65444  1.0000
  O   O7        1.0  0.85001  0.87109  0.27509  1.0000
  O   O8        1.0  0.14998  0.12892  0.72490  1.0000
  O   O9        1.0  0.17277  0.75048  0.38000  1.0000
  O   O10       1.0  0.82723  0.24955  0.62000  1.0000
  O   O11       1.0  0.39783  0.81345  0.18841  1.0000
  O   O12       1.0  0.60217  0.18657  0.81159  1.0000
  O   O13       1.0  0.31419  0.03282  0.92419  1.0000
  O   O14       1.0  0.68581  0.96718  0.07580  1.0000
  O   O15       1.0  0.28558  0.09652  0.17602  1.0000
  O   O16       1.0  0.71441  0.90349  0.82398  1.0000
