data_image0
_chemical_formula_structural       Cd2H32C44N6O8
_chemical_formula_sum              "Cd2 H32 C44 N6 O8"
_cell_length_a       8.37392
_cell_length_b       10.0434
_cell_length_c       11.8576
_cell_angle_alpha    90.7886
_cell_angle_beta     105.552
_cell_angle_gamma    101.873

_space_group_name_H-M_alt    "P 1"
_space_group_IT_number       1

loop_
  _space_group_symop_operation_xyz
  'x, y, z'

loop_
  _atom_site_type_symbol
  _atom_site_label
  _atom_site_symmetry_multiplicity
  _atom_site_fract_x
  _atom_site_fract_y
  _atom_site_fract_z
  _atom_site_occupancy
  Cd  Cd1       1.0  0.82576  0.39403  0.88441  1.0000
  Cd  Cd2       1.0  0.17424  0.60597  0.11559  1.0000
  H   H1        1.0  0.86970  0.87982  0.89953  1.0000
  H   H2        1.0  0.13030  0.12018  0.10047  1.0000
  H   H3        1.0  0.20905  0.75366  0.72562  1.0000
  H   H4        1.0  0.79095  0.24634  0.27439  1.0000
  H   H5        1.0  0.31361  0.99753  0.68899  1.0000
  H   H6        1.0  0.68639  0.00247  0.31101  1.0000
  H   H7        1.0  0.17655  0.17623  0.74473  1.0000
  H   H8        1.0  0.82345  0.82377  0.25527  1.0000
  H   H9        1.0  0.56742  0.17479  0.95270  1.0000
  H   H10       1.0  0.43258  0.82521  0.04730  1.0000
  H   H11       1.0  0.36728  0.12590  0.07888  1.0000
  H   H12       1.0  0.63272  0.87410  0.92112  1.0000
  H   H13       1.0  0.36851  0.31435  0.22258  1.0000
  H   H14       1.0  0.63149  0.68565  0.77742  1.0000
  H   H15       1.0  0.76266  0.57066  0.10212  1.0000
  H   H16       1.0  0.23735  0.42934  0.89788  1.0000
  H   H17       1.0  0.85467  0.78510  0.57535  1.0000
  H   H18       1.0  0.14533  0.21490  0.42466  1.0000
  H   H19       1.0  0.67823  0.90845  0.65912  1.0000
  H   H20       1.0  0.32177  0.09155  0.34088  1.0000
  H   H21       1.0  0.37550  0.89349  0.55731  1.0000
  H   H22       1.0  0.62450  0.10651  0.44269  1.0000
  H   H23       1.0  0.23599  0.75588  0.36613  1.0000
  H   H24       1.0  0.76401  0.24412  0.63387  1.0000
  H   H25       1.0  0.95771  0.70031  0.41340  1.0000
  H   H26       1.0  0.04229  0.29969  0.58660  1.0000
  H   H27       1.0  0.89981  0.56466  0.30481  1.0000
  H   H28       1.0  0.10019  0.43533  0.69520  1.0000
  H   H29       1.0  0.83163  0.39746  0.44403  1.0000
  H   H30       1.0  0.16837  0.60253  0.55597  1.0000
  H   H31       1.0  0.86218  0.52829  0.55427  1.0000
  H   H32       1.0  0.13782  0.47171  0.44573  1.0000
  C   C1        1.0  0.91815  0.14510  0.84472  1.0000
  C   C2        1.0  0.08184  0.85490  0.15528  1.0000
  C   C3        1.0  0.00957  0.03841  0.82102  1.0000
  C   C4        1.0  0.99042  0.96159  0.17898  1.0000
  C   C5        1.0  0.96342  0.90448  0.85063  1.0000
  C   C6        1.0  0.03658  0.09552  0.14937  1.0000
  C   C7        1.0  0.03386  0.80210  0.81533  1.0000
  C   C8        1.0  0.96614  0.19790  0.18467  1.0000
  C   C9        1.0  0.15725  0.83497  0.75429  1.0000
  C   C10       1.0  0.84275  0.16503  0.24571  1.0000
  C   C11       1.0  0.21320  0.97013  0.73244  1.0000
  C   C12       1.0  0.78680  0.02987  0.26756  1.0000
  C   C13       1.0  0.13807  0.07104  0.76435  1.0000
  C   C14       1.0  0.86193  0.92896  0.23565  1.0000
  C   C15       1.0  0.97169  0.65636  0.83544  1.0000
  C   C16       1.0  0.02831  0.34364  0.16456  1.0000
  C   C17       1.0  0.56069  0.25251  0.01549  1.0000
  C   C18       1.0  0.43931  0.74749  0.98451  1.0000
  C   C19       1.0  0.45006  0.22671  0.08552  1.0000
  C   C20       1.0  0.54994  0.77329  0.91448  1.0000
  C   C21       1.0  0.45183  0.33043  0.16524  1.0000
  C   C22       1.0  0.54817  0.66957  0.83476  1.0000
  C   C23       1.0  0.56584  0.45676  0.17428  1.0000
  C   C24       1.0  0.43416  0.54325  0.82572  1.0000
  C   C25       1.0  0.67279  0.47425  0.10016  1.0000
  C   C26       1.0  0.32721  0.52575  0.89984  1.0000
  C   C27       1.0  0.56454  0.56418  0.25995  1.0000
  C   C28       1.0  0.43546  0.43582  0.74005  1.0000
  C   C29       1.0  0.46781  0.69243  0.36446  1.0000
  C   C30       1.0  0.53220  0.30757  0.63554  1.0000
  C   C31       1.0  0.64107  0.70163  0.42313  1.0000
  C   C32       1.0  0.35893  0.29837  0.57687  1.0000
  C   C33       1.0  0.72159  0.77892  0.52975  1.0000
  C   C34       1.0  0.27841  0.22108  0.47025  1.0000
  C   C35       1.0  0.62133  0.84640  0.57635  1.0000
  C   C36       1.0  0.37867  0.15360  0.42365  1.0000
  C   C37       1.0  0.44832  0.83765  0.51833  1.0000
  C   C38       1.0  0.55168  0.16235  0.48167  1.0000
  C   C39       1.0  0.36917  0.76210  0.41167  1.0000
  C   C40       1.0  0.63083  0.23790  0.58833  1.0000
  C   C41       1.0  0.87300  0.59959  0.38412  1.0000
  C   C42       1.0  0.12700  0.40041  0.61588  1.0000
  C   C43       1.0  0.90555  0.50046  0.47933  1.0000
  C   C44       1.0  0.09445  0.49954  0.52067  1.0000
  N   N1        1.0  0.66840  0.37399  0.02223  1.0000
  N   N2        1.0  0.33160  0.62601  0.97777  1.0000
  N   N3        1.0  0.42431  0.60677  0.26315  1.0000
  N   N4        1.0  0.57570  0.39324  0.73685  1.0000
  N   N5        1.0  0.69964  0.62106  0.35402  1.0000
  N   N6        1.0  0.30036  0.37894  0.64598  1.0000
  O   O1        1.0  0.97919  0.26750  0.82208  1.0000
  O   O2        1.0  0.02081  0.73250  0.17792  1.0000
  O   O3        1.0  0.78764  0.11316  0.88076  1.0000
  O   O4        1.0  0.21236  0.88684  0.11924  1.0000
  O   O5        1.0  0.93135  0.62864  0.93186  1.0000
  O   O6        1.0  0.06865  0.37136  0.06814  1.0000
  O   O7        1.0  0.95758  0.56579  0.75673  1.0000
  O   O8        1.0  0.04242  0.43421  0.24327  1.0000
