data_image0
_chemical_formula_structural       Cd2H36C44N6O10
_chemical_formula_sum              "Cd2 H36 C44 N6 O10"
_cell_length_a       9.14079
_cell_length_b       10.7702
_cell_length_c       11.3418
_cell_angle_alpha    80.6952
_cell_angle_beta     66.5701
_cell_angle_gamma    78.1169

_space_group_name_H-M_alt    "P 1"
_space_group_IT_number       1

loop_
  _space_group_symop_operation_xyz
  'x, y, z'

loop_
  _atom_site_type_symbol
  _atom_site_label
  _atom_site_symmetry_multiplicity
  _atom_site_fract_x
  _atom_site_fract_y
  _atom_site_fract_z
  _atom_site_occupancy
  Cd  Cd1       1.0  0.50928  0.40753  0.22037  1.0000
  Cd  Cd2       1.0  0.49073  0.59247  0.77963  1.0000
  H   H1        1.0  0.15384  0.08448  0.23548  1.0000
  H   H2        1.0  0.84616  0.91553  0.76452  1.0000
  H   H3        1.0  0.96005  0.02396  0.15805  1.0000
  H   H4        1.0  0.03995  0.97605  0.84195  1.0000
  H   H5        1.0  0.89455  0.15985  0.98037  1.0000
  H   H6        1.0  0.10545  0.84016  0.01963  1.0000
  H   H7        1.0  0.04073  0.34201  0.86925  1.0000
  H   H8        1.0  0.95927  0.65799  0.13075  1.0000
  H   H9        1.0  0.57261  0.10636  0.14077  1.0000
  H   H10       1.0  0.42739  0.89364  0.85923  1.0000
  H   H11       1.0  0.59390  0.86804  0.16941  1.0000
  H   H12       1.0  0.40610  0.13196  0.83059  1.0000
  H   H13       1.0  0.67354  0.74222  0.34011  1.0000
  H   H14       1.0  0.32646  0.25777  0.65989  1.0000
  H   H15       1.0  0.73303  0.84670  0.49526  1.0000
  H   H16       1.0  0.26697  0.15330  0.50474  1.0000
  H   H17       1.0  0.52916  0.37174  0.61305  1.0000
  H   H18       1.0  0.47084  0.62826  0.38695  1.0000
  H   H19       1.0  0.94872  0.36962  0.25685  1.0000
  H   H20       1.0  0.05128  0.63038  0.74315  1.0000
  H   H21       1.0  0.00901  0.55930  0.32273  1.0000
  H   H22       1.0  0.99099  0.44070  0.67727  1.0000
  H   H23       1.0  0.81859  0.64592  0.53341  1.0000
  H   H24       1.0  0.18141  0.35408  0.46659  1.0000
  H   H25       1.0  0.72116  0.00869  0.62701  1.0000
  H   H26       1.0  0.27884  0.99130  0.37299  1.0000
  H   H27       1.0  0.72606  0.17112  0.62881  1.0000
  H   H28       1.0  0.27393  0.82888  0.37120  1.0000
  H   H29       1.0  0.98559  0.06310  0.61738  1.0000
  H   H30       1.0  0.01441  0.93690  0.38262  1.0000
  H   H31       1.0  0.01510  0.14235  0.46290  1.0000
  H   H32       1.0  0.98490  0.85764  0.53710  1.0000
  H   H33       1.0  0.41864  0.63821  0.08782  1.0000
  H   H34       1.0  0.58136  0.36179  0.91218  1.0000
  H   H35       1.0  0.29726  0.55278  0.09958  1.0000
  H   H36       1.0  0.70274  0.44722  0.90042  1.0000
  C   C1        1.0  0.31776  0.27885  0.15007  1.0000
  C   C2        1.0  0.68224  0.72115  0.84993  1.0000
  C   C3        1.0  0.20744  0.24495  0.09558  1.0000
  C   C4        1.0  0.79256  0.75505  0.90442  1.0000
  C   C5        1.0  0.12831  0.13969  0.15471  1.0000
  C   C6        1.0  0.87169  0.86032  0.84529  1.0000
  C   C7        1.0  0.01968  0.10658  0.11183  1.0000
  C   C8        1.0  0.98031  0.89342  0.88817  1.0000
  C   C9        1.0  0.98462  0.18160  0.01100  1.0000
  C   C10       1.0  0.01538  0.81841  0.98900  1.0000
  C   C11       1.0  0.06525  0.28442  0.94938  1.0000
  C   C12       1.0  0.93475  0.71558  0.05062  1.0000
  C   C13       1.0  0.17813  0.31642  0.98952  1.0000
  C   C14       1.0  0.82186  0.68358  0.01048  1.0000
  C   C15       1.0  0.26687  0.42463  0.91555  1.0000
  C   C16       1.0  0.73313  0.57537  0.08445  1.0000
  C   C17       1.0  0.64293  0.10847  0.30163  1.0000
  C   C18       1.0  0.35707  0.89153  0.69837  1.0000
  C   C19       1.0  0.60566  0.04984  0.21771  1.0000
  C   C20       1.0  0.39433  0.95016  0.78229  1.0000
  C   C21       1.0  0.61792  0.91786  0.23458  1.0000
  C   C22       1.0  0.38207  0.08214  0.76542  1.0000
  C   C23       1.0  0.66371  0.84545  0.33317  1.0000
  C   C24       1.0  0.33629  0.15455  0.66683  1.0000
  C   C25       1.0  0.70000  0.90242  0.41796  1.0000
  C   C26       1.0  0.30000  0.09758  0.58204  1.0000
  C   C27       1.0  0.69092  0.03483  0.39915  1.0000
  C   C28       1.0  0.30908  0.96517  0.60085  1.0000
  C   C29       1.0  0.63611  0.41034  0.54490  1.0000
  C   C30       1.0  0.36390  0.58966  0.45510  1.0000
  C   C31       1.0  0.73544  0.35462  0.43079  1.0000
  C   C32       1.0  0.26456  0.64537  0.56921  1.0000
  C   C33       1.0  0.86996  0.41029  0.34703  1.0000
  C   C34       1.0  0.13004  0.58971  0.65297  1.0000
  C   C35       1.0  0.90238  0.51609  0.38301  1.0000
  C   C36       1.0  0.09762  0.48391  0.61700  1.0000
  C   C37       1.0  0.79742  0.56524  0.49882  1.0000
  C   C38       1.0  0.20258  0.43476  0.50118  1.0000
  C   C39       1.0  0.70009  0.23958  0.39904  1.0000
  C   C40       1.0  0.29991  0.76042  0.60096  1.0000
  C   C41       1.0  0.77766  0.09059  0.56895  1.0000
  C   C42       1.0  0.22234  0.90941  0.43105  1.0000
  C   C43       1.0  0.96084  0.06319  0.52994  1.0000
  C   C44       1.0  0.03916  0.93680  0.47006  1.0000
  N   N1        1.0  0.64855  0.23578  0.30512  1.0000
  N   N2        1.0  0.35145  0.76422  0.69488  1.0000
  N   N3        1.0  0.72554  0.12073  0.45976  1.0000
  N   N4        1.0  0.27447  0.87926  0.54024  1.0000
  N   N5        1.0  0.66525  0.51464  0.57718  1.0000
  N   N6        1.0  0.33475  0.48536  0.42282  1.0000
  O   O1        1.0  0.26843  0.28133  0.27106  1.0000
  O   O2        1.0  0.73157  0.71867  0.72894  1.0000
  O   O3        1.0  0.45740  0.30472  0.07264  1.0000
  O   O4        1.0  0.54260  0.69528  0.92736  1.0000
  O   O5        1.0  0.26284  0.51864  0.97277  1.0000
  O   O6        1.0  0.73716  0.48137  0.02723  1.0000
  O   O7        1.0  0.34479  0.41731  0.79509  1.0000
  O   O8        1.0  0.65521  0.58270  0.20491  1.0000
  O   O9        1.0  0.34145  0.58594  0.15354  1.0000
  O   O10       1.0  0.65856  0.41406  0.84646  1.0000
