data_image0
_chemical_formula_structural       Cu6H16C20I6N12
_chemical_formula_sum              "Cu6 H16 C20 I6 N12"
_cell_length_a       9.6192
_cell_length_b       9.61917
_cell_length_c       9.78113
_cell_angle_alpha    78.4412
_cell_angle_beta     78.4407
_cell_angle_gamma    79.968

_space_group_name_H-M_alt    "P 1"
_space_group_IT_number       1

loop_
  _space_group_symop_operation_xyz
  'x, y, z'

loop_
  _atom_site_type_symbol
  _atom_site_label
  _atom_site_symmetry_multiplicity
  _atom_site_fract_x
  _atom_site_fract_y
  _atom_site_fract_z
  _atom_site_occupancy
  Cu  Cu1       1.0  0.10512  0.89487  0.50000  1.0000
  Cu  Cu2       1.0  0.89487  0.10513  0.50000  1.0000
  Cu  Cu3       1.0  0.21670  0.21670  0.39219  1.0000
  Cu  Cu4       1.0  0.78330  0.78330  0.60781  1.0000
  Cu  Cu5       1.0  0.46555  0.46555  0.12800  1.0000
  Cu  Cu6       1.0  0.53445  0.53445  0.87199  1.0000
  H   H1        1.0  0.65696  0.00556  0.98846  1.0000
  H   H2        1.0  0.99444  0.34304  0.01154  1.0000
  H   H3        1.0  0.34304  0.99444  0.01155  1.0000
  H   H4        1.0  0.00556  0.65696  0.98846  1.0000
  H   H5        1.0  0.89430  0.89430  0.87578  1.0000
  H   H6        1.0  0.10571  0.10571  0.12422  1.0000
  H   H7        1.0  0.63477  0.63477  0.31929  1.0000
  H   H8        1.0  0.36523  0.36523  0.68070  1.0000
  H   H9        1.0  0.38159  0.70813  0.31880  1.0000
  H   H10       1.0  0.29187  0.61841  0.68120  1.0000
  H   H11       1.0  0.61840  0.29187  0.68120  1.0000
  H   H12       1.0  0.70813  0.38160  0.31880  1.0000
  H   H13       1.0  0.53247  0.11260  0.19850  1.0000
  H   H14       1.0  0.88740  0.46752  0.80150  1.0000
  H   H15       1.0  0.46753  0.88740  0.80151  1.0000
  H   H16       1.0  0.11260  0.53247  0.19849  1.0000
  C   C1        1.0  0.63015  0.82378  0.15734  1.0000
  C   C2        1.0  0.17621  0.36985  0.84266  1.0000
  C   C3        1.0  0.36985  0.17621  0.84266  1.0000
  C   C4        1.0  0.82379  0.63014  0.15734  1.0000
  C   C5        1.0  0.70247  0.89848  0.03374  1.0000
  C   C6        1.0  0.10151  0.29754  0.96626  1.0000
  C   C7        1.0  0.29754  0.10152  0.96626  1.0000
  C   C8        1.0  0.89849  0.70247  0.03374  1.0000
  C   C9        1.0  0.83642  0.83642  0.97190  1.0000
  C   C10       1.0  0.16358  0.16358  0.02810  1.0000
  C   C11       1.0  0.68824  0.68824  0.21855  1.0000
  C   C12       1.0  0.31176  0.31177  0.78144  1.0000
  C   C13       1.0  0.38768  0.82160  0.30890  1.0000
  C   C14       1.0  0.17839  0.61231  0.69110  1.0000
  C   C15       1.0  0.61231  0.17839  0.69110  1.0000
  C   C16       1.0  0.82161  0.38769  0.30890  1.0000
  C   C17       1.0  0.46476  0.03007  0.24599  1.0000
  C   C18       1.0  0.96993  0.53523  0.75401  1.0000
  C   C19       1.0  0.53524  0.96993  0.75401  1.0000
  C   C20       1.0  0.03007  0.46476  0.24599  1.0000
  I   I1        1.0  0.09492  0.09492  0.65570  1.0000
  I   I2        1.0  0.90507  0.90509  0.34430  1.0000
  I   I3        1.0  0.39781  0.39780  0.39066  1.0000
  I   I4        1.0  0.60219  0.60220  0.60933  1.0000
  I   I5        1.0  0.68383  0.31617  1.00000  1.0000
  I   I6        1.0  0.31617  0.68383  1.00000  1.0000
  N   N1        1.0  0.28956  0.91582  0.36788  1.0000
  N   N2        1.0  0.08418  0.71044  0.63212  1.0000
  N   N3        1.0  0.71044  0.08418  0.63212  1.0000
  N   N4        1.0  0.91582  0.28956  0.36788  1.0000
  N   N5        1.0  0.33819  0.04814  0.32773  1.0000
  N   N6        1.0  0.95186  0.66181  0.67227  1.0000
  N   N7        1.0  0.66181  0.95186  0.67227  1.0000
  N   N8        1.0  0.04814  0.33819  0.32773  1.0000
  N   N9        1.0  0.49962  0.88896  0.23048  1.0000
  N   N10       1.0  0.11103  0.50038  0.76952  1.0000
  N   N11       1.0  0.50038  0.11103  0.76952  1.0000
  N   N12       1.0  0.88897  0.49962  0.23048  1.0000
