data_image0
_chemical_formula_structural       Li2H22C28O8
_chemical_formula_sum              "Li2 H22 C28 O8"
_cell_length_a       5.29984
_cell_length_b       8.27197
_cell_length_c       13.6784
_cell_angle_alpha    99.259
_cell_angle_beta     92.8693
_cell_angle_gamma    93.6778

_space_group_name_H-M_alt    "P 1"
_space_group_IT_number       1

loop_
  _space_group_symop_operation_xyz
  'x, y, z'

loop_
  _atom_site_type_symbol
  _atom_site_label
  _atom_site_symmetry_multiplicity
  _atom_site_fract_x
  _atom_site_fract_y
  _atom_site_fract_z
  _atom_site_occupancy
  Li  Li1       1.0  0.80170  0.43794  0.43831  1.0000
  Li  Li2       1.0  0.19827  0.56206  0.56169  1.0000
  H   H1        1.0  0.62380  0.04252  0.23446  1.0000
  H   H2        1.0  0.37621  0.95748  0.76554  1.0000
  H   H3        1.0  0.42244  0.82814  0.09873  1.0000
  H   H4        1.0  0.57758  0.17186  0.90128  1.0000
  H   H5        1.0  0.02970  0.66521  0.12758  1.0000
  H   H6        1.0  0.97030  0.33478  0.87242  1.0000
  H   H7        1.0  0.83314  0.72229  0.29082  1.0000
  H   H8        1.0  0.16686  0.27771  0.70918  1.0000
  H   H9        1.0  0.03069  0.93722  0.42351  1.0000
  H   H10       1.0  0.96932  0.06277  0.57649  1.0000
  H   H11       1.0  0.62265  0.50910  0.20347  1.0000
  H   H12       1.0  0.37733  0.49091  0.79654  1.0000
  H   H13       1.0  0.55138  0.36452  0.02957  1.0000
  H   H14       1.0  0.44862  0.63550  0.97043  1.0000
  H   H15       1.0  0.16616  0.17180  0.98036  1.0000
  H   H16       1.0  0.83386  0.82821  0.01964  1.0000
  H   H17       1.0  0.85611  0.12796  0.10573  1.0000
  H   H18       1.0  0.14388  0.87204  0.89425  1.0000
  H   H19       1.0  0.92816  0.27346  0.27888  1.0000
  H   H20       1.0  0.07182  0.72654  0.72111  1.0000
  H   H21       1.0  0.41544  0.26893  0.54241  1.0000
  H   H22       1.0  0.58455  0.73106  0.45759  1.0000
  C   C1        1.0  0.34087  0.00290  0.33697  1.0000
  C   C2        1.0  0.65915  0.99710  0.66303  1.0000
  C   C3        1.0  0.45070  0.97121  0.24533  1.0000
  C   C4        1.0  0.54932  0.02879  0.75468  1.0000
  C   C5        1.0  0.33789  0.85109  0.17019  1.0000
  C   C6        1.0  0.66214  0.14891  0.82981  1.0000
  C   C7        1.0  0.11558  0.76108  0.18619  1.0000
  C   C8        1.0  0.88444  0.23891  0.81381  1.0000
  C   C9        1.0  0.00566  0.79227  0.27744  1.0000
  C   C10       1.0  0.99436  0.20772  0.72256  1.0000
  C   C11       1.0  0.11740  0.91308  0.35275  1.0000
  C   C12       1.0  0.88262  0.08692  0.64726  1.0000
  C   C13       1.0  0.46046  0.13665  0.41360  1.0000
  C   C14       1.0  0.53956  0.86334  0.58640  1.0000
  C   C15       1.0  0.27856  0.40350  0.25193  1.0000
  C   C16       1.0  0.72142  0.59650  0.74806  1.0000
  C   C17       1.0  0.45470  0.42604  0.18128  1.0000
  C   C18       1.0  0.54530  0.57396  0.81873  1.0000
  C   C19       1.0  0.41434  0.34394  0.08397  1.0000
  C   C20       1.0  0.58566  0.65607  0.91603  1.0000
  C   C21       1.0  0.19879  0.23643  0.05648  1.0000
  C   C22       1.0  0.80122  0.76358  0.94352  1.0000
  C   C23       1.0  0.02402  0.21214  0.12682  1.0000
  C   C24       1.0  0.97598  0.78787  0.87316  1.0000
  C   C25       1.0  0.06291  0.29538  0.22404  1.0000
  C   C26       1.0  0.93707  0.70462  0.77595  1.0000
  C   C27       1.0  0.32309  0.49383  0.35618  1.0000
  C   C28       1.0  0.67687  0.50617  0.64382  1.0000
  O   O1        1.0  0.34098  0.16317  0.49677  1.0000
  O   O2        1.0  0.65904  0.83683  0.50323  1.0000
  O   O3        1.0  0.65508  0.21978  0.39925  1.0000
  O   O4        1.0  0.34493  0.78021  0.60075  1.0000
  O   O5        1.0  0.54238  0.56876  0.38115  1.0000
  O   O6        1.0  0.45757  0.43123  0.61885  1.0000
  O   O7        1.0  0.14819  0.49039  0.41606  1.0000
  O   O8        1.0  0.85178  0.50961  0.58394  1.0000
