data_image0
_chemical_formula_structural       Cu4H28C40I4N8
_chemical_formula_sum              "Cu4 H28 C40 I4 N8"
_cell_length_a       9.27928
_cell_length_b       9.79975
_cell_length_c       11.2564
_cell_angle_alpha    70.4316
_cell_angle_beta     82.7847
_cell_angle_gamma    89.5271

_space_group_name_H-M_alt    "P 1"
_space_group_IT_number       1

loop_
  _space_group_symop_operation_xyz
  'x, y, z'

loop_
  _atom_site_type_symbol
  _atom_site_label
  _atom_site_symmetry_multiplicity
  _atom_site_fract_x
  _atom_site_fract_y
  _atom_site_fract_z
  _atom_site_occupancy
  Cu  Cu1       1.0  0.23706  0.23177  0.25646  1.0000
  Cu  Cu2       1.0  0.76293  0.76823  0.74354  1.0000
  Cu  Cu3       1.0  0.32738  0.47293  0.07297  1.0000
  Cu  Cu4       1.0  0.67262  0.52706  0.92702  1.0000
  H   H1        1.0  0.87587  0.26342  0.63427  1.0000
  H   H2        1.0  0.12414  0.73660  0.36573  1.0000
  H   H3        1.0  0.43810  0.73859  0.50559  1.0000
  H   H4        1.0  0.56189  0.26142  0.49442  1.0000
  H   H5        1.0  0.59537  0.86658  0.10638  1.0000
  H   H6        1.0  0.40464  0.13341  0.89363  1.0000
  H   H7        1.0  0.58233  0.68487  0.32524  1.0000
  H   H8        1.0  0.41766  0.31513  0.67477  1.0000
  H   H9        1.0  0.35707  0.82561  0.64632  1.0000
  H   H10       1.0  0.64293  0.17439  0.35368  1.0000
  H   H11       1.0  0.12518  0.06662  0.89793  1.0000
  H   H12       1.0  0.87482  0.93338  0.10207  1.0000
  H   H13       1.0  0.26393  0.67606  0.82511  1.0000
  H   H14       1.0  0.73607  0.32394  0.17489  1.0000
  H   H15       1.0  0.02796  0.11049  0.72134  1.0000
  H   H16       1.0  0.97203  0.88951  0.27867  1.0000
  H   H17       1.0  0.46442  0.10071  0.07748  1.0000
  H   H18       1.0  0.53558  0.89929  0.92252  1.0000
  H   H19       1.0  0.80852  0.59299  0.28062  1.0000
  H   H20       1.0  0.19149  0.40702  0.71939  1.0000
  H   H21       1.0  0.01044  0.49020  0.17315  1.0000
  H   H22       1.0  0.98956  0.50980  0.82685  1.0000
  H   H23       1.0  0.74238  0.47859  0.52011  1.0000
  H   H24       1.0  0.25763  0.52142  0.47989  1.0000
  H   H25       1.0  0.16263  0.94544  0.12190  1.0000
  H   H26       1.0  0.83736  0.05455  0.87810  1.0000
  H   H27       1.0  0.26112  0.69312  0.18687  1.0000
  H   H28       1.0  0.73889  0.30687  0.81312  1.0000
  C   C1        1.0  0.90487  0.31746  0.53247  1.0000
  C   C2        1.0  0.09513  0.68255  0.46754  1.0000
  C   C3        1.0  0.18882  0.95473  0.70309  1.0000
  C   C4        1.0  0.81118  0.04527  0.29691  1.0000
  C   C5        1.0  0.27933  0.98388  0.48473  1.0000
  C   C6        1.0  0.72066  0.01612  0.51526  1.0000
  C   C7        1.0  0.37250  0.94638  0.38477  1.0000
  C   C8        1.0  0.62750  0.05362  0.61523  1.0000
  C   C9        1.0  0.44559  0.81628  0.40941  1.0000
  C   C10       1.0  0.55441  0.18373  0.59059  1.0000
  C   C11       1.0  0.53295  0.88758  0.18674  1.0000
  C   C12       1.0  0.46705  0.11242  0.81326  1.0000
  C   C13       1.0  0.52697  0.78671  0.30904  1.0000
  C   C14       1.0  0.47303  0.21330  0.69097  1.0000
  C   C15       1.0  0.10443  0.14062  0.52484  1.0000
  C   C16       1.0  0.89556  0.85938  0.47516  1.0000
  C   C17       1.0  0.28094  0.91167  0.61435  1.0000
  C   C18       1.0  0.71906  0.08833  0.38565  1.0000
  C   C19       1.0  0.19359  0.88308  0.84012  1.0000
  C   C20       1.0  0.80641  0.11692  0.15987  1.0000
  C   C21       1.0  0.16034  0.95523  0.92801  1.0000
  C   C22       1.0  0.83966  0.04477  0.07199  1.0000
  C   C23       1.0  0.24099  0.74089  0.88679  1.0000
  C   C24       1.0  0.75900  0.25910  0.11321  1.0000
  C   C25       1.0  0.01740  0.26665  0.46501  1.0000
  C   C26       1.0  0.98260  0.73336  0.53499  1.0000
  C   C27       1.0  0.09997  0.07251  0.65586  1.0000
  C   C28       1.0  0.90003  0.92749  0.34414  1.0000
  C   C29       1.0  0.46006  0.01618  0.17047  1.0000
  C   C30       1.0  0.53994  0.98382  0.82953  1.0000
  C   C31       1.0  0.86555  0.50083  0.33670  1.0000
  C   C32       1.0  0.13445  0.49917  0.66330  1.0000
  C   C33       1.0  0.97866  0.44401  0.27588  1.0000
  C   C34       1.0  0.02134  0.55598  0.72412  1.0000
  C   C35       1.0  0.82893  0.43689  0.46800  1.0000
  C   C36       1.0  0.17107  0.56311  0.53200  1.0000
  C   C37       1.0  0.18119  0.88720  0.05438  1.0000
  C   C38       1.0  0.81881  0.11279  0.94562  1.0000
  C   C39       1.0  0.23567  0.74893  0.09076  1.0000
  C   C40       1.0  0.76434  0.25107  0.90924  1.0000
  I   I1        1.0  0.18259  0.28992  0.01873  1.0000
  I   I2        1.0  0.81740  0.71008  0.98126  1.0000
  I   I3        1.0  0.45630  0.42672  0.26606  1.0000
  I   I4        1.0  0.54370  0.57328  0.73393  1.0000
  N   N1        1.0  0.38158  0.04598  0.26651  1.0000
  N   N2        1.0  0.61842  0.95403  0.73348  1.0000
  N   N3        1.0  0.19126  0.09488  0.44118  1.0000
  N   N4        1.0  0.80873  0.90513  0.55882  1.0000
  N   N5        1.0  0.05439  0.33141  0.33810  1.0000
  N   N6        1.0  0.94561  0.66859  0.66190  1.0000
  N   N7        1.0  0.26397  0.67591  0.00816  1.0000
  N   N8        1.0  0.73603  0.32408  0.99183  1.0000
