data_image0
_chemical_formula_structural       Cd4H36C12Br8N4O12
_chemical_formula_sum              "Cd4 H36 C12 Br8 N4 O12"
_cell_length_a       7.67855
_cell_length_b       8.60031
_cell_length_c       13.823
_cell_angle_alpha    90.0018
_cell_angle_beta     89.9978
_cell_angle_gamma    104.417

_space_group_name_H-M_alt    "P 1"
_space_group_IT_number       1

loop_
  _space_group_symop_operation_xyz
  'x, y, z'

loop_
  _atom_site_type_symbol
  _atom_site_label
  _atom_site_symmetry_multiplicity
  _atom_site_fract_x
  _atom_site_fract_y
  _atom_site_fract_z
  _atom_site_occupancy
  Cd  Cd1       1.0  0.35402  0.79500  0.15114  1.0000
  Cd  Cd2       1.0  0.14596  0.20499  0.65114  1.0000
  Cd  Cd3       1.0  0.64597  0.20501  0.84885  1.0000
  Cd  Cd4       1.0  0.85407  0.79501  0.34885  1.0000
  H   H1        1.0  0.10489  0.24128  0.22144  1.0000
  H   H2        1.0  0.39510  0.75872  0.72143  1.0000
  H   H3        1.0  0.89510  0.75873  0.77856  1.0000
  H   H4        1.0  0.60490  0.24127  0.27856  1.0000
  H   H5        1.0  0.31396  0.33209  0.16872  1.0000
  H   H6        1.0  0.18605  0.66789  0.66871  1.0000
  H   H7        1.0  0.68604  0.66791  0.83129  1.0000
  H   H8        1.0  0.81395  0.33210  0.33128  1.0000
  H   H9        1.0  0.96175  0.17688  0.05949  1.0000
  H   H10       1.0  0.53825  0.82314  0.55948  1.0000
  H   H11       1.0  0.03824  0.82313  0.94051  1.0000
  H   H12       1.0  0.46176  0.17686  0.44051  1.0000
  H   H13       1.0  0.05891  0.38606  0.07224  1.0000
  H   H14       1.0  0.44111  0.61395  0.57222  1.0000
  H   H15       1.0  0.94109  0.61395  0.92776  1.0000
  H   H16       1.0  0.55891  0.38605  0.42777  1.0000
  H   H17       1.0  0.12450  0.29009  0.91741  1.0000
  H   H18       1.0  0.37551  0.70991  0.41740  1.0000
  H   H19       1.0  0.87551  0.70991  0.08259  1.0000
  H   H20       1.0  0.62451  0.29009  0.58259  1.0000
  H   H21       1.0  0.22217  0.15326  0.96740  1.0000
  H   H22       1.0  0.27783  0.84674  0.46741  1.0000
  H   H23       1.0  0.77783  0.84674  0.03260  1.0000
  H   H24       1.0  0.72218  0.15326  0.53259  1.0000
  H   H25       1.0  0.31559  0.34931  0.98045  1.0000
  H   H26       1.0  0.18442  0.65069  0.48044  1.0000
  H   H27       1.0  0.68442  0.65069  0.01956  1.0000
  H   H28       1.0  0.81559  0.34930  0.51955  1.0000
  H   H29       1.0  0.71189  0.00663  0.17058  1.0000
  H   H30       1.0  0.78811  0.99337  0.67059  1.0000
  H   H31       1.0  0.28812  0.99337  0.82943  1.0000
  H   H32       1.0  0.21189  0.00662  0.32941  1.0000
  H   H33       1.0  0.63285  0.07052  0.07701  1.0000
  H   H34       1.0  0.86715  0.92947  0.57702  1.0000
  H   H35       1.0  0.36716  0.92948  0.92300  1.0000
  H   H36       1.0  0.13286  0.07052  0.42299  1.0000
  C   C1        1.0  0.23705  0.07701  0.15699  1.0000
  C   C2        1.0  0.26293  0.92297  0.65700  1.0000
  C   C3        1.0  0.76292  0.92298  0.84300  1.0000
  C   C4        1.0  0.73709  0.07704  0.34298  1.0000
  C   C5        1.0  0.18946  0.23733  0.15766  1.0000
  C   C6        1.0  0.31053  0.76266  0.65765  1.0000
  C   C7        1.0  0.81053  0.76267  0.84235  1.0000
  C   C8        1.0  0.68946  0.23733  0.34234  1.0000
  C   C9        1.0  0.08845  0.26798  0.06810  1.0000
  C   C10       1.0  0.41155  0.73202  0.56809  1.0000
  C   C11       1.0  0.91154  0.73202  0.93191  1.0000
  C   C12       1.0  0.58845  0.26798  0.43190  1.0000
  Br  Br1       1.0  0.35653  0.66354  0.97703  1.0000
  Br  Br2       1.0  0.14346  0.33645  0.47704  1.0000
  Br  Br3       1.0  0.64346  0.33646  0.02297  1.0000
  Br  Br4       1.0  0.85655  0.66356  0.52296  1.0000
  Br  Br5       1.0  0.51640  0.63026  0.27477  1.0000
  Br  Br6       1.0  0.98361  0.36980  0.77477  1.0000
  Br  Br7       1.0  0.48359  0.36977  0.72524  1.0000
  Br  Br8       1.0  0.01637  0.63020  0.22521  1.0000
  N   N1        1.0  0.19355  0.26443  0.97753  1.0000
  N   N2        1.0  0.30645  0.73557  0.47752  1.0000
  N   N3        1.0  0.80645  0.73557  0.02248  1.0000
  N   N4        1.0  0.69355  0.26443  0.52247  1.0000
  O   O1        1.0  0.19612  0.98478  0.08464  1.0000
  O   O2        1.0  0.30387  0.01520  0.58464  1.0000
  O   O3        1.0  0.80387  0.01523  0.91537  1.0000
  O   O4        1.0  0.69614  0.98477  0.41537  1.0000
  O   O5        1.0  0.32256  0.03888  0.22991  1.0000
  O   O6        1.0  0.17744  0.96112  0.72991  1.0000
  O   O7        1.0  0.67743  0.96113  0.77010  1.0000
  O   O8        1.0  0.82258  0.03888  0.27009  1.0000
  O   O9        1.0  0.64184  0.97060  0.10949  1.0000
  O   O10       1.0  0.85816  0.02939  0.60950  1.0000
  O   O11       1.0  0.35816  0.02940  0.89051  1.0000
  O   O12       1.0  0.14185  0.97061  0.39050  1.0000
