data_image0
_chemical_formula_structural       Cd4H36C16N4Cl8O8
_chemical_formula_sum              "Cd4 H36 C16 N4 Cl8 O8"
_cell_length_a       8.15113
_cell_length_b       8.15113
_cell_length_c       14.0005
_cell_angle_alpha    76.6286
_cell_angle_beta     76.6286
_cell_angle_gamma    64.4373

_space_group_name_H-M_alt    "P 1"
_space_group_IT_number       1

loop_
  _space_group_symop_operation_xyz
  'x, y, z'

loop_
  _atom_site_type_symbol
  _atom_site_label
  _atom_site_symmetry_multiplicity
  _atom_site_fract_x
  _atom_site_fract_y
  _atom_site_fract_z
  _atom_site_occupancy
  Cd  Cd1       1.0  0.00000  1.00000  0.50000  1.0000
  Cd  Cd2       1.0  0.00000  1.00000  0.00000  1.0000
  Cd  Cd3       1.0  0.97471  0.02529  0.25000  1.0000
  Cd  Cd4       1.0  0.02529  0.97471  0.75000  1.0000
  H   H1        1.0  0.34848  0.38108  0.57609  1.0000
  H   H2        1.0  0.61892  0.65152  0.92391  1.0000
  H   H3        1.0  0.65152  0.61891  0.42391  1.0000
  H   H4        1.0  0.38109  0.34848  0.07609  1.0000
  H   H5        1.0  0.49034  0.19099  0.51614  1.0000
  H   H6        1.0  0.80901  0.50966  0.98387  1.0000
  H   H7        1.0  0.50965  0.80901  0.48387  1.0000
  H   H8        1.0  0.19099  0.49035  0.01614  1.0000
  H   H9        1.0  0.19243  0.54450  0.42613  1.0000
  H   H10       1.0  0.45550  0.80757  0.07387  1.0000
  H   H11       1.0  0.80757  0.45550  0.57387  1.0000
  H   H12       1.0  0.54450  0.19243  0.92613  1.0000
  H   H13       1.0  0.42771  0.49055  0.40631  1.0000
  H   H14       1.0  0.50945  0.57229  0.09369  1.0000
  H   H15       1.0  0.57229  0.50945  0.59369  1.0000
  H   H16       1.0  0.49055  0.42771  0.90631  1.0000
  H   H17       1.0  0.43671  0.18700  0.34453  1.0000
  H   H18       1.0  0.81300  0.56330  0.15547  1.0000
  H   H19       1.0  0.56330  0.81300  0.65547  1.0000
  H   H20       1.0  0.18700  0.43670  0.84453  1.0000
  H   H21       1.0  0.42619  0.39304  0.26465  1.0000
  H   H22       1.0  0.60696  0.57381  0.23535  1.0000
  H   H23       1.0  0.57381  0.60696  0.73535  1.0000
  H   H24       1.0  0.39303  0.42619  0.76465  1.0000
  H   H25       1.0  0.18480  0.29440  0.25019  1.0000
  H   H26       1.0  0.70560  0.81520  0.24981  1.0000
  H   H27       1.0  0.81520  0.70560  0.74981  1.0000
  H   H28       1.0  0.29440  0.18479  0.75019  1.0000
  H   H29       1.0  0.10295  0.31936  0.37154  1.0000
  H   H30       1.0  0.68064  0.89705  0.12846  1.0000
  H   H31       1.0  0.89705  0.68063  0.62846  1.0000
  H   H32       1.0  0.31937  0.10295  0.87154  1.0000
  H   H33       1.0  0.10328  0.50200  0.28297  1.0000
  H   H34       1.0  0.49800  0.89672  0.21703  1.0000
  H   H35       1.0  0.89672  0.49800  0.71703  1.0000
  H   H36       1.0  0.50200  0.10328  0.78297  1.0000
  C   C1        1.0  0.21616  0.21332  0.56286  1.0000
  C   C2        1.0  0.78668  0.78384  0.93714  1.0000
  C   C3        1.0  0.78384  0.78668  0.43714  1.0000
  C   C4        1.0  0.21332  0.21617  0.06286  1.0000
  C   C5        1.0  0.35182  0.30314  0.52072  1.0000
  C   C6        1.0  0.69686  0.64818  0.97928  1.0000
  C   C7        1.0  0.64818  0.69686  0.47928  1.0000
  C   C8        1.0  0.30314  0.35182  0.02072  1.0000
  C   C9        1.0  0.32746  0.42822  0.42075  1.0000
  C   C10       1.0  0.57178  0.67254  0.07925  1.0000
  C   C11       1.0  0.67254  0.57178  0.57925  1.0000
  C   C12       1.0  0.42822  0.32746  0.92075  1.0000
  C   C13       1.0  0.35555  0.33583  0.33120  1.0000
  C   C14       1.0  0.66417  0.64445  0.16880  1.0000
  C   C15       1.0  0.64445  0.66417  0.66880  1.0000
  C   C16       1.0  0.33583  0.35555  0.83120  1.0000
  N   N1        1.0  0.17501  0.36400  0.30707  1.0000
  N   N2        1.0  0.63600  0.82499  0.19293  1.0000
  N   N3        1.0  0.82499  0.63600  0.69293  1.0000
  N   N4        1.0  0.36400  0.17501  0.80707  1.0000
  Cl  Cl1       1.0  0.25803  0.89549  0.34471  1.0000
  Cl  Cl2       1.0  0.10451  0.74197  0.15529  1.0000
  Cl  Cl3       1.0  0.74197  0.10451  0.65529  1.0000
  Cl  Cl4       1.0  0.89549  0.25803  0.84471  1.0000
  Cl  Cl5       1.0  0.19466  0.73711  0.62633  1.0000
  Cl  Cl6       1.0  0.26289  0.80534  0.87367  1.0000
  Cl  Cl7       1.0  0.80534  0.26289  0.37367  1.0000
  Cl  Cl8       1.0  0.73711  0.19466  0.12633  1.0000
  O   O1        1.0  0.11871  0.20937  0.50467  1.0000
  O   O2        1.0  0.79063  0.88129  0.99533  1.0000
  O   O3        1.0  0.88129  0.79062  0.49533  1.0000
  O   O4        1.0  0.20938  0.11871  0.00467  1.0000
  O   O5        1.0  0.79134  0.85587  0.34539  1.0000
  O   O6        1.0  0.14413  0.20866  0.15461  1.0000
  O   O7        1.0  0.20865  0.14414  0.65461  1.0000
  O   O8        1.0  0.85587  0.79135  0.84539  1.0000
