data_image0
_chemical_formula_structural       Cd4H28C16Br8N4O8
_chemical_formula_sum              "Cd4 H28 C16 Br8 N4 O8"
_cell_length_a       6.594
_cell_length_b       11.1269
_cell_length_c       12.9896
_cell_angle_alpha    90.0051
_cell_angle_beta     89.9996
_cell_angle_gamma    105.351

_space_group_name_H-M_alt    "P 1"
_space_group_IT_number       1

loop_
  _space_group_symop_operation_xyz
  'x, y, z'

loop_
  _atom_site_type_symbol
  _atom_site_label
  _atom_site_symmetry_multiplicity
  _atom_site_fract_x
  _atom_site_fract_y
  _atom_site_fract_z
  _atom_site_occupancy
  Cd  Cd1       1.0  0.93208  0.14359  0.55540  1.0000
  Cd  Cd2       1.0  0.06785  0.35639  0.05541  1.0000
  Cd  Cd3       1.0  0.06798  0.85646  0.44461  1.0000
  Cd  Cd4       1.0  0.93208  0.64355  0.94461  1.0000
  H   H1        1.0  0.31548  0.66635  0.69198  1.0000
  H   H2        1.0  0.68457  0.83368  0.19198  1.0000
  H   H3        1.0  0.68469  0.33371  0.30806  1.0000
  H   H4        1.0  0.31527  0.16626  0.80805  1.0000
  H   H5        1.0  0.30601  0.59935  0.56487  1.0000
  H   H6        1.0  0.69401  0.90066  0.06488  1.0000
  H   H7        1.0  0.69410  0.40073  0.43516  1.0000
  H   H8        1.0  0.30590  0.09927  0.93515  1.0000
  H   H9        1.0  0.63377  0.43917  0.61237  1.0000
  H   H10       1.0  0.36619  0.06080  0.11240  1.0000
  H   H11       1.0  0.36631  0.56084  0.38763  1.0000
  H   H12       1.0  0.63373  0.93918  0.88760  1.0000
  H   H13       1.0  0.67687  0.48725  0.74426  1.0000
  H   H14       1.0  0.32314  0.01274  0.24428  1.0000
  H   H15       1.0  0.32326  0.51278  0.25574  1.0000
  H   H16       1.0  0.67674  0.98722  0.75572  1.0000
  H   H17       1.0  0.67895  0.69031  0.69434  1.0000
  H   H18       1.0  0.32110  0.80967  0.19433  1.0000
  H   H19       1.0  0.32124  0.30972  0.30566  1.0000
  H   H20       1.0  0.67873  0.19028  0.80566  1.0000
  H   H21       1.0  0.67832  0.64513  0.56936  1.0000
  H   H22       1.0  0.32172  0.85487  0.06936  1.0000
  H   H23       1.0  0.32181  0.35491  0.43063  1.0000
  H   H24       1.0  0.67815  0.14510  0.93063  1.0000
  H   H25       1.0  0.30262  0.46418  0.77136  1.0000
  H   H26       1.0  0.69741  0.03586  0.27137  1.0000
  H   H27       1.0  0.69750  0.53584  0.22864  1.0000
  H   H28       1.0  0.30249  0.96411  0.72863  1.0000
  C   C1        1.0  0.20844  0.35756  0.63394  1.0000
  C   C2        1.0  0.79151  0.14246  0.13396  1.0000
  C   C3        1.0  0.79168  0.64252  0.36603  1.0000
  C   C4        1.0  0.20832  0.85749  0.86602  1.0000
  C   C5        1.0  0.34571  0.46913  0.68988  1.0000
  C   C6        1.0  0.65430  0.03089  0.18990  1.0000
  C   C7        1.0  0.65441  0.53092  0.31012  1.0000
  C   C8        1.0  0.34559  0.96906  0.81011  1.0000
  C   C9        1.0  0.58600  0.49193  0.67472  1.0000
  C   C10       1.0  0.41400  0.00806  0.17474  1.0000
  C   C11       1.0  0.41411  0.50810  0.32527  1.0000
  C   C12       1.0  0.58589  0.99190  0.82526  1.0000
  C   C13       1.0  0.36686  0.59958  0.64325  1.0000
  C   C14       1.0  0.63317  0.90044  0.14326  1.0000
  C   C15       1.0  0.63328  0.40048  0.35677  1.0000
  C   C16       1.0  0.36670  0.09951  0.85676  1.0000
  Br  Br1       1.0  0.43378  0.82306  0.41206  1.0000
  Br  Br2       1.0  0.56627  0.67694  0.91208  1.0000
  Br  Br3       1.0  0.56627  0.17697  0.58793  1.0000
  Br  Br4       1.0  0.43367  0.32301  0.08793  1.0000
  Br  Br5       1.0  0.93141  0.91266  0.62676  1.0000
  Br  Br6       1.0  0.06866  0.58736  0.12675  1.0000
  Br  Br7       1.0  0.06860  0.08740  0.37324  1.0000
  Br  Br8       1.0  0.93138  0.41256  0.87323  1.0000
  N   N1        1.0  0.60484  0.62460  0.64120  1.0000
  N   N2        1.0  0.39520  0.87540  0.14121  1.0000
  N   N3        1.0  0.39531  0.37544  0.35880  1.0000
  N   N4        1.0  0.60467  0.12456  0.85879  1.0000
  O   O1        1.0  0.13194  0.25874  0.68576  1.0000
  O   O2        1.0  0.86802  0.24129  0.18579  1.0000
  O   O3        1.0  0.86817  0.74132  0.31420  1.0000
  O   O4        1.0  0.13180  0.75867  0.81418  1.0000
  O   O5        1.0  0.17322  0.36542  0.53774  1.0000
  O   O6        1.0  0.82670  0.13459  0.03775  1.0000
  O   O7        1.0  0.82694  0.63468  0.46224  1.0000
  O   O8        1.0  0.17311  0.86533  0.96223  1.0000
