data_image0
_chemical_formula_structural       Cd2H48C42N8O8
_chemical_formula_sum              "Cd2 H48 C42 N8 O8"
_cell_length_a       8.14869
_cell_length_b       10.4746
_cell_length_c       12.0174
_cell_angle_alpha    80.4984
_cell_angle_beta     85.7302
_cell_angle_gamma    83.9216

_space_group_name_H-M_alt    "P 1"
_space_group_IT_number       1

loop_
  _space_group_symop_operation_xyz
  'x, y, z'

loop_
  _atom_site_type_symbol
  _atom_site_label
  _atom_site_symmetry_multiplicity
  _atom_site_fract_x
  _atom_site_fract_y
  _atom_site_fract_z
  _atom_site_occupancy
  Cd  Cd1       1.0  0.99091  0.69510  0.38800  1.0000
  Cd  Cd2       1.0  0.00909  0.30490  0.61200  1.0000
  H   H1        1.0  0.94269  0.16796  0.40423  1.0000
  H   H2        1.0  0.05731  0.83204  0.59577  1.0000
  H   H3        1.0  0.87842  0.46570  0.11394  1.0000
  H   H4        1.0  0.12158  0.53430  0.88606  1.0000
  H   H5        1.0  0.94537  0.06174  0.07374  1.0000
  H   H6        1.0  0.05463  0.93826  0.92626  1.0000
  H   H7        1.0  0.75432  0.30647  0.93718  1.0000
  H   H8        1.0  0.24568  0.69353  0.06282  1.0000
  H   H9        1.0  0.95624  0.23832  0.90356  1.0000
  H   H10       1.0  0.04377  0.76168  0.09644  1.0000
  H   H11       1.0  0.91998  0.40447  0.92084  1.0000
  H   H12       1.0  0.08002  0.59553  0.07916  1.0000
  H   H13       1.0  0.80205  0.91089  0.56205  1.0000
  H   H14       1.0  0.19795  0.08911  0.43795  1.0000
  H   H15       1.0  0.59123  0.61412  0.43669  1.0000
  H   H16       1.0  0.40877  0.38587  0.56331  1.0000
  H   H17       1.0  0.35020  0.74185  0.56468  1.0000
  H   H18       1.0  0.64980  0.25816  0.43532  1.0000
  H   H19       1.0  0.36136  0.97631  0.64165  1.0000
  H   H20       1.0  0.63863  0.02369  0.35835  1.0000
  H   H21       1.0  0.56382  0.01303  0.66054  1.0000
  H   H22       1.0  0.43618  0.98697  0.33946  1.0000
  H   H23       1.0  0.41734  0.92835  0.84247  1.0000
  H   H24       1.0  0.58267  0.07165  0.15753  1.0000
  H   H25       1.0  0.38450  0.78541  0.79231  1.0000
  H   H26       1.0  0.61550  0.21459  0.20769  1.0000
  H   H27       1.0  0.72952  0.86544  0.82025  1.0000
  H   H28       1.0  0.27048  0.13456  0.17975  1.0000
  H   H29       1.0  0.68749  0.72170  0.77606  1.0000
  H   H30       1.0  0.31250  0.27830  0.22394  1.0000
  H   H31       1.0  0.52769  0.66232  0.96784  1.0000
  H   H32       1.0  0.47231  0.33768  0.03216  1.0000
  H   H33       1.0  0.74436  0.66098  0.96836  1.0000
  H   H34       1.0  0.25564  0.33902  0.03164  1.0000
  H   H35       1.0  0.49383  0.88221  0.03111  1.0000
  H   H36       1.0  0.50617  0.11778  0.96889  1.0000
  H   H37       1.0  0.71058  0.88689  0.01766  1.0000
  H   H38       1.0  0.28942  0.11311  0.98234  1.0000
  H   H39       1.0  0.74018  0.68732  0.17016  1.0000
  H   H40       1.0  0.25982  0.31268  0.82984  1.0000
  H   H41       1.0  0.64782  0.83088  0.21350  1.0000
  H   H42       1.0  0.35218  0.16912  0.78650  1.0000
  H   H43       1.0  0.32271  0.84649  0.26147  1.0000
  H   H44       1.0  0.67729  0.15351  0.73853  1.0000
  H   H45       1.0  0.57745  0.48969  0.19821  1.0000
  H   H46       1.0  0.42255  0.51030  0.80179  1.0000
  H   H47       1.0  0.27208  0.44525  0.31212  1.0000
  H   H48       1.0  0.72792  0.55475  0.68787  1.0000
  C   C1        1.0  0.95163  0.10157  0.24302  1.0000
  C   C2        1.0  0.04837  0.89844  0.75698  1.0000
  C   C3        1.0  0.93541  0.19674  0.31316  1.0000
  C   C4        1.0  0.06460  0.80327  0.68684  1.0000
  C   C5        1.0  0.90843  0.32801  0.26622  1.0000
  C   C6        1.0  0.09157  0.67200  0.73378  1.0000
  C   C7        1.0  0.89726  0.36269  0.14905  1.0000
  C   C8        1.0  0.10275  0.63730  0.85095  1.0000
  C   C9        1.0  0.90892  0.26869  0.07771  1.0000
  C   C10       1.0  0.09109  0.73131  0.92229  1.0000
  C   C11       1.0  0.93649  0.13790  0.12649  1.0000
  C   C12       1.0  0.06351  0.86210  0.87351  1.0000
  C   C13       1.0  0.98219  0.96063  0.29265  1.0000
  C   C14       1.0  0.01780  0.03937  0.70735  1.0000
  C   C15       1.0  0.89594  0.43167  0.34042  1.0000
  C   C16       1.0  0.10407  0.56833  0.65958  1.0000
  C   C17       1.0  0.88551  0.30631  0.95360  1.0000
  C   C18       1.0  0.11449  0.69369  0.04640  1.0000
  C   C19       1.0  0.71572  0.84477  0.54499  1.0000
  C   C20       1.0  0.28428  0.15523  0.45501  1.0000
  C   C21       1.0  0.59977  0.69476  0.48143  1.0000
  C   C22       1.0  0.40022  0.30524  0.51857  1.0000
  C   C23       1.0  0.47957  0.75670  0.54541  1.0000
  C   C24       1.0  0.52042  0.24329  0.45459  1.0000
  C   C25       1.0  0.48426  0.93340  0.66725  1.0000
  C   C26       1.0  0.51574  0.06660  0.33275  1.0000
  C   C27       1.0  0.47298  0.85868  0.78787  1.0000
  C   C28       1.0  0.52702  0.14132  0.21213  1.0000
  C   C29       1.0  0.63816  0.79349  0.83013  1.0000
  C   C30       1.0  0.36184  0.20651  0.16986  1.0000
  C   C31       1.0  0.62968  0.72564  0.95339  1.0000
  C   C32       1.0  0.37032  0.27436  0.04661  1.0000
  C   C33       1.0  0.61213  0.82076  0.03836  1.0000
  C   C34       1.0  0.38787  0.17924  0.96164  1.0000
  C   C35       1.0  0.63024  0.75750  0.16125  1.0000
  C   C36       1.0  0.36976  0.24250  0.83875  1.0000
  C   C37       1.0  0.34833  0.74326  0.25939  1.0000
  C   C38       1.0  0.65167  0.25674  0.74060  1.0000
  C   C39       1.0  0.47778  0.55573  0.22681  1.0000
  C   C40       1.0  0.52222  0.44426  0.77319  1.0000
  C   C41       1.0  0.32729  0.53544  0.28347  1.0000
  C   C42       1.0  0.67271  0.46456  0.71652  1.0000
  N   N1        1.0  0.74623  0.75023  0.48195  1.0000
  N   N2        1.0  0.25377  0.24977  0.51805  1.0000
  N   N3        1.0  0.55519  0.85125  0.58510  1.0000
  N   N4        1.0  0.44481  0.14875  0.41490  1.0000
  N   N5        1.0  0.24832  0.65312  0.30330  1.0000
  N   N6        1.0  0.75168  0.34688  0.69670  1.0000
  N   N7        1.0  0.48909  0.68838  0.21200  1.0000
  N   N8        1.0  0.51092  0.31162  0.78800  1.0000
  O   O1        1.0  0.06113  0.92995  0.38245  1.0000
  O   O2        1.0  0.93885  0.07006  0.61756  1.0000
  O   O3        1.0  0.92531  0.87815  0.24204  1.0000
  O   O4        1.0  0.07470  0.12185  0.75796  1.0000
  O   O5        1.0  0.88103  0.39905  0.44676  1.0000
  O   O6        1.0  0.11897  0.60095  0.55324  1.0000
  O   O7        1.0  0.90033  0.54867  0.28968  1.0000
  O   O8        1.0  0.09968  0.45133  0.71032  1.0000
