data_image0
_chemical_formula_structural       MnH20C18N4O8
_chemical_formula_sum              "Mn1 H20 C18 N4 O8"
_cell_length_a       5.2785
_cell_length_b       9.64236
_cell_length_c       10.5089
_cell_angle_alpha    68.6719
_cell_angle_beta     75.7328
_cell_angle_gamma    83.3665

_space_group_name_H-M_alt    "P 1"
_space_group_IT_number       1

loop_
  _space_group_symop_operation_xyz
  'x, y, z'

loop_
  _atom_site_type_symbol
  _atom_site_label
  _atom_site_symmetry_multiplicity
  _atom_site_fract_x
  _atom_site_fract_y
  _atom_site_fract_z
  _atom_site_occupancy
  Mn  Mn1       1.0  0.50000  1.00000  0.50001  1.0000
  H   H1        1.0  0.27078  0.96840  0.32256  1.0000
  H   H2        1.0  0.72922  0.03160  0.67744  1.0000
  H   H3        1.0  0.05963  0.87554  0.46534  1.0000
  H   H4        1.0  0.94037  0.12446  0.53466  1.0000
  H   H5        1.0  0.02857  0.30775  0.13375  1.0000
  H   H6        1.0  0.97144  0.69225  0.86625  1.0000
  H   H7        1.0  0.36933  0.41513  0.91261  1.0000
  H   H8        1.0  0.63068  0.58486  0.08740  1.0000
  H   H9        1.0  0.08193  0.19545  0.70571  1.0000
  H   H10       1.0  0.91806  0.80455  0.29429  1.0000
  H   H11       1.0  0.71510  0.08691  0.91576  1.0000
  H   H12       1.0  0.28490  0.91310  0.08424  1.0000
  H   H13       1.0  0.52530  0.25975  0.65149  1.0000
  H   H14       1.0  0.47471  0.74025  0.34852  1.0000
  H   H15       1.0  0.60745  0.38824  0.72093  1.0000
  H   H16       1.0  0.39255  0.61176  0.27906  1.0000
  H   H17       1.0  0.32718  0.58509  0.59044  1.0000
  H   H18       1.0  0.67282  0.41491  0.40956  1.0000
  H   H19       1.0  0.21408  0.45547  0.53384  1.0000
  H   H20       1.0  0.78591  0.54452  0.46616  1.0000
  C   C1        1.0  0.74337  0.69482  0.65236  1.0000
  C   C2        1.0  0.25662  0.30519  0.34765  1.0000
  C   C3        1.0  0.65289  0.10752  0.17437  1.0000
  C   C4        1.0  0.34711  0.89249  0.82564  1.0000
  C   C5        1.0  0.84432  0.18900  0.04150  1.0000
  C   C6        1.0  0.15568  0.81100  0.95849  1.0000
  C   C7        1.0  0.02689  0.28388  0.04045  1.0000
  C   C8        1.0  0.97311  0.71612  0.95955  1.0000
  C   C9        1.0  0.21801  0.34262  0.92069  1.0000
  C   C10       1.0  0.78200  0.65737  0.07931  1.0000
  C   C11       1.0  0.05336  0.21833  0.80267  1.0000
  C   C12       1.0  0.94664  0.78168  0.19733  1.0000
  C   C13       1.0  0.85491  0.16007  0.91868  1.0000
  C   C14       1.0  0.14509  0.83993  0.08132  1.0000
  C   C15       1.0  0.45414  0.35579  0.68440  1.0000
  C   C16       1.0  0.54586  0.64421  0.31560  1.0000
  C   C17       1.0  0.38265  0.48477  0.56225  1.0000
  C   C18       1.0  0.61735  0.51523  0.43775  1.0000
  N   N1        1.0  0.75000  0.79786  0.54397  1.0000
  N   N2        1.0  0.25000  0.20213  0.45604  1.0000
  N   N3        1.0  0.23297  0.30608  0.80604  1.0000
  N   N4        1.0  0.76703  0.69392  0.19395  1.0000
  O   O1        1.0  0.72551  0.08488  0.28771  1.0000
  O   O2        1.0  0.27448  0.91513  0.71229  1.0000
  O   O3        1.0  0.44609  0.06403  0.16203  1.0000
  O   O4        1.0  0.55391  0.93597  0.83797  1.0000
  O   O5        1.0  0.24744  0.90033  0.42264  1.0000
  O   O6        1.0  0.75256  0.09968  0.57735  1.0000
  O   O7        1.0  0.73720  0.58985  0.76090  1.0000
  O   O8        1.0  0.26279  0.41014  0.23911  1.0000
