data_image0
_chemical_formula_structural       MnH20C18S2N4O6
_chemical_formula_sum              "Mn1 H20 C18 S2 N4 O6"
_cell_length_a       5.327
_cell_length_b       10.2198
_cell_length_c       10.5015
_cell_angle_alpha    107.047
_cell_angle_beta     99.8861
_cell_angle_gamma    103.108

_space_group_name_H-M_alt    "P 1"
_space_group_IT_number       1

loop_
  _space_group_symop_operation_xyz
  'x, y, z'

loop_
  _atom_site_type_symbol
  _atom_site_label
  _atom_site_symmetry_multiplicity
  _atom_site_fract_x
  _atom_site_fract_y
  _atom_site_fract_z
  _atom_site_occupancy
  Mn  Mn1       1.0  0.50000  0.50000  0.00000  1.0000
  H   H1        1.0  0.36608  0.86375  0.27527  1.0000
  H   H2        1.0  0.63392  0.13625  0.72473  1.0000
  H   H3        1.0  0.24938  0.08790  0.38373  1.0000
  H   H4        1.0  0.75062  0.91210  0.61627  1.0000
  H   H5        1.0  0.71752  0.31401  0.19461  1.0000
  H   H6        1.0  0.28249  0.68600  0.80539  1.0000
  H   H7        1.0  0.87142  0.10008  0.08628  1.0000
  H   H8        1.0  0.12858  0.89993  0.91372  1.0000
  H   H9        1.0  0.18190  0.28652  0.35595  1.0000
  H   H10       1.0  0.81810  0.71348  0.64405  1.0000
  H   H11       1.0  0.35853  0.37753  0.26224  1.0000
  H   H12       1.0  0.64147  0.62248  0.73776  1.0000
  H   H13       1.0  0.76072  0.47810  0.46621  1.0000
  H   H14       1.0  0.23928  0.52190  0.53379  1.0000
  H   H15       1.0  0.57733  0.38771  0.55733  1.0000
  H   H16       1.0  0.42268  0.61229  0.44267  1.0000
  H   H17       1.0  0.89582  0.67544  0.96645  1.0000
  H   H18       1.0  0.10417  0.32455  0.03355  1.0000
  H   H19       1.0  0.96253  0.52836  0.88553  1.0000
  H   H20       1.0  0.03747  0.47163  0.11447  1.0000
  C   C1        1.0  0.68100  0.82940  0.09321  1.0000
  C   C2        1.0  0.31900  0.17060  0.90679  1.0000
  C   C3        1.0  0.62784  0.96492  0.17202  1.0000
  C   C4        1.0  0.37216  0.03508  0.82798  1.0000
  C   C5        1.0  0.45426  0.96171  0.25761  1.0000
  C   C6        1.0  0.54574  0.03829  0.74239  1.0000
  C   C7        1.0  0.38459  0.08336  0.31666  1.0000
  C   C8        1.0  0.61541  0.91664  0.68334  1.0000
  C   C9        1.0  0.65343  0.21203  0.21052  1.0000
  C   C10       1.0  0.34658  0.78797  0.78948  1.0000
  C   C11       1.0  0.73475  0.09396  0.15221  1.0000
  C   C12       1.0  0.26525  0.90604  0.84779  1.0000
  C   C13       1.0  0.38001  0.32876  0.34228  1.0000
  C   C14       1.0  0.61999  0.67125  0.65772  1.0000
  C   C15       1.0  0.55921  0.43794  0.47809  1.0000
  C   C16       1.0  0.44079  0.56207  0.52192  1.0000
  C   C17       1.0  0.11478  0.34568  0.70616  1.0000
  C   C18       1.0  0.88523  0.65433  0.29385  1.0000
  S   S1        1.0  0.99832  0.20159  0.57243  1.0000
  S   S2        1.0  0.00168  0.79840  0.42756  1.0000
  N   N1        1.0  0.20016  0.45138  0.80684  1.0000
  N   N2        1.0  0.79982  0.54860  0.19314  1.0000
  N   N3        1.0  0.47747  0.20436  0.28921  1.0000
  N   N4        1.0  0.52254  0.79564  0.71079  1.0000
  O   O1        1.0  0.49342  0.71480  0.06777  1.0000
  O   O2        1.0  0.50659  0.28520  0.93224  1.0000
  O   O3        1.0  0.89405  0.83962  0.05440  1.0000
  O   O4        1.0  0.10594  0.16038  0.94559  1.0000
  O   O5        1.0  0.81911  0.57100  0.90837  1.0000
  O   O6        1.0  0.18089  0.42899  0.09164  1.0000
