data_image0
_chemical_formula_structural       CdH8C12S2N8
_chemical_formula_sum              "Cd1 H8 C12 S2 N8"
_cell_length_a       5.5318
_cell_length_b       7.19195
_cell_length_c       9.51036
_cell_angle_alpha    94.4031
_cell_angle_beta     104.183
_cell_angle_gamma    95.3801

_space_group_name_H-M_alt    "P 1"
_space_group_IT_number       1

loop_
  _space_group_symop_operation_xyz
  'x, y, z'

loop_
  _atom_site_type_symbol
  _atom_site_label
  _atom_site_symmetry_multiplicity
  _atom_site_fract_x
  _atom_site_fract_y
  _atom_site_fract_z
  _atom_site_occupancy
  Cd  Cd1       1.0  1.00000  0.49999  0.50000  1.0000
  H   H1        1.0  0.82411  0.73399  0.95934  1.0000
  H   H2        1.0  0.17589  0.26603  0.04067  1.0000
  H   H3        1.0  0.43962  0.70656  0.32031  1.0000
  H   H4        1.0  0.56037  0.29342  0.67969  1.0000
  H   H5        1.0  0.59644  0.98687  0.26808  1.0000
  H   H6        1.0  0.40357  0.01313  0.73192  1.0000
  H   H7        1.0  0.13779  0.79800  0.83281  1.0000
  H   H8        1.0  0.86221  0.20200  0.16719  1.0000
  C   C1        1.0  0.42997  0.27240  0.40829  1.0000
  C   C2        1.0  0.57001  0.72759  0.59171  1.0000
  C   C3        1.0  0.93477  0.70108  0.06339  1.0000
  C   C4        1.0  0.06522  0.29894  0.93661  1.0000
  C   C5        1.0  0.25098  0.68982  0.24987  1.0000
  C   C6        1.0  0.74902  0.31017  0.75012  1.0000
  C   C7        1.0  0.34699  0.87943  0.05762  1.0000
  C   C8        1.0  0.65301  0.12057  0.94237  1.0000
  C   C9        1.0  0.55325  0.99157  0.15048  1.0000
  C   C10       1.0  0.44676  0.00843  0.84953  1.0000
  C   C11       1.0  0.29422  0.88711  0.90703  1.0000
  C   C12       1.0  0.70579  0.11290  0.09297  1.0000
  S   S1        1.0  0.18214  0.15685  0.43726  1.0000
  S   S2        1.0  0.81786  0.84315  0.56274  1.0000
  N   N1        1.0  0.60958  0.35784  0.38778  1.0000
  N   N2        1.0  0.39042  0.64215  0.61221  1.0000
  N   N3        1.0  0.04985  0.59717  0.27405  1.0000
  N   N4        1.0  0.95014  0.40282  0.72594  1.0000
  N   N5        1.0  0.84811  0.60393  0.15594  1.0000
  N   N6        1.0  0.15188  0.39608  0.84405  1.0000
  N   N7        1.0  0.18770  0.75955  0.11783  1.0000
  N   N8        1.0  0.81230  0.24045  0.88217  1.0000
