data_image0
_chemical_formula_structural       CuH14C12N8O2
_chemical_formula_sum              "Cu1 H14 C12 N8 O2"
_cell_length_a       3.75363
_cell_length_b       8.63981
_cell_length_c       12.1794
_cell_angle_alpha    72.8046
_cell_angle_beta     85.3713
_cell_angle_gamma    81.5118

_space_group_name_H-M_alt    "P 1"
_space_group_IT_number       1

loop_
  _space_group_symop_operation_xyz
  'x, y, z'

loop_
  _atom_site_type_symbol
  _atom_site_label
  _atom_site_symmetry_multiplicity
  _atom_site_fract_x
  _atom_site_fract_y
  _atom_site_fract_z
  _atom_site_occupancy
  Cu  Cu1       1.0  0.50000  0.50000  0.50000  1.0000
  H   H1        1.0  0.23147  0.35479  0.73774  1.0000
  H   H2        1.0  0.76856  0.64520  0.26226  1.0000
  H   H3        1.0  0.11648  0.43780  0.91742  1.0000
  H   H4        1.0  0.88355  0.56219  0.08258  1.0000
  H   H5        1.0  0.55136  0.88731  0.73741  1.0000
  H   H6        1.0  0.44860  0.11270  0.26259  1.0000
  H   H7        1.0  0.64081  0.78550  0.56453  1.0000
  H   H8        1.0  0.35916  0.21451  0.43547  1.0000
  H   H9        1.0  0.65949  0.85363  0.93415  1.0000
  H   H10       1.0  0.34052  0.14638  0.06585  1.0000
  H   H11       1.0  0.29714  0.85724  0.03953  1.0000
  H   H12       1.0  0.70286  0.14275  0.96048  1.0000
  H   H13       1.0  0.22667  0.96197  0.88899  1.0000
  H   H14       1.0  0.77333  0.03803  0.11102  1.0000
  C   C1        1.0  0.29849  0.47142  0.74111  1.0000
  C   C2        1.0  0.70153  0.52858  0.25889  1.0000
  C   C3        1.0  0.23664  0.51702  0.84116  1.0000
  C   C4        1.0  0.76338  0.48297  0.15885  1.0000
  C   C5        1.0  0.32625  0.66850  0.84216  1.0000
  C   C6        1.0  0.67375  0.33150  0.15785  1.0000
  C   C7        1.0  0.47361  0.76897  0.74145  1.0000
  C   C8        1.0  0.52638  0.23102  0.25856  1.0000
  C   C9        1.0  0.52308  0.71334  0.64462  1.0000
  C   C10       1.0  0.47690  0.28667  0.35538  1.0000
  C   C11       1.0  0.36825  0.85554  0.95085  1.0000
  C   C12       1.0  0.63176  0.14446  0.04916  1.0000
  N   N1        1.0  0.90058  0.31491  0.56801  1.0000
  N   N2        1.0  0.09942  0.68510  0.43198  1.0000
  N   N3        1.0  0.84379  0.21488  0.65785  1.0000
  N   N4        1.0  0.15622  0.78514  0.34213  1.0000
  N   N5        1.0  0.79731  0.11635  0.74595  1.0000
  N   N6        1.0  0.20268  0.88366  0.25404  1.0000
  N   N7        1.0  0.43981  0.56736  0.64362  1.0000
  N   N8        1.0  0.56018  0.43264  0.35638  1.0000
  O   O1        1.0  0.25988  0.70596  0.94269  1.0000
  O   O2        1.0  0.74014  0.29403  0.05731  1.0000
