data_image0
_chemical_formula_structural       Cd2H24C40N20
_chemical_formula_sum              "Cd2 H24 C40 N20"
_cell_length_a       7.81682
_cell_length_b       10.5905
_cell_length_c       12.786
_cell_angle_alpha    103.587
_cell_angle_beta     90.5953
_cell_angle_gamma    108.783

_space_group_name_H-M_alt    "P 1"
_space_group_IT_number       1

loop_
  _space_group_symop_operation_xyz
  'x, y, z'

loop_
  _atom_site_type_symbol
  _atom_site_label
  _atom_site_symmetry_multiplicity
  _atom_site_fract_x
  _atom_site_fract_y
  _atom_site_fract_z
  _atom_site_occupancy
  Cd  Cd1       1.0  0.50001  0.00001  0.50000  1.0000
  Cd  Cd2       1.0  0.49999  0.50000  0.00001  1.0000
  H   H1        1.0  0.42536  0.14897  0.31956  1.0000
  H   H2        1.0  0.57465  0.85105  0.68044  1.0000
  H   H3        1.0  0.49526  0.38141  0.27925  1.0000
  H   H4        1.0  0.50475  0.61861  0.72075  1.0000
  H   H5        1.0  0.67194  0.64475  0.35039  1.0000
  H   H6        1.0  0.32808  0.35528  0.64962  1.0000
  H   H7        1.0  0.88396  0.83229  0.49399  1.0000
  H   H8        1.0  0.11606  0.16773  0.50603  1.0000
  H   H9        1.0  0.01319  0.78108  0.65085  1.0000
  H   H10       1.0  0.98681  0.21893  0.34917  1.0000
  H   H11       1.0  0.92174  0.53815  0.66960  1.0000
  H   H12       1.0  0.07825  0.46185  0.33041  1.0000
  H   H13       1.0  0.45579  0.19766  0.87546  1.0000
  H   H14       1.0  0.54419  0.80233  0.12453  1.0000
  H   H15       1.0  0.37298  0.93732  0.79048  1.0000
  H   H16       1.0  0.62701  0.06266  0.20951  1.0000
  H   H17       1.0  0.22082  0.69702  0.80694  1.0000
  H   H18       1.0  0.77919  0.30297  0.19306  1.0000
  H   H19       1.0  0.05622  0.85144  0.11869  1.0000
  H   H20       1.0  0.94377  0.14854  0.88130  1.0000
  H   H21       1.0  0.15469  0.11440  0.19535  1.0000
  H   H22       1.0  0.84530  0.88557  0.80464  1.0000
  H   H23       1.0  0.06229  0.65586  0.96904  1.0000
  H   H24       1.0  0.93771  0.34411  0.03096  1.0000
  C   C1        1.0  0.51814  0.24258  0.37299  1.0000
  C   C2        1.0  0.48187  0.75745  0.62701  1.0000
  C   C3        1.0  0.55726  0.37025  0.35204  1.0000
  C   C4        1.0  0.44275  0.62977  0.64796  1.0000
  C   C5        1.0  0.67623  0.48439  0.42846  1.0000
  C   C6        1.0  0.32377  0.51562  0.57155  1.0000
  C   C7        1.0  0.72755  0.62250  0.41985  1.0000
  C   C8        1.0  0.27246  0.37751  0.58015  1.0000
  C   C9        1.0  0.84576  0.72592  0.49963  1.0000
  C   C10       1.0  0.15423  0.27409  0.50038  1.0000
  C   C11       1.0  0.91782  0.69689  0.59005  1.0000
  C   C12       1.0  0.08220  0.30312  0.40996  1.0000
  C   C13       1.0  0.86880  0.56428  0.60144  1.0000
  C   C14       1.0  0.13121  0.43574  0.39857  1.0000
  C   C15       1.0  0.74632  0.45551  0.52097  1.0000
  C   C16       1.0  0.25369  0.54451  0.47904  1.0000
  C   C17       1.0  0.10494  0.93500  0.34254  1.0000
  C   C18       1.0  0.89510  0.06501  0.65745  1.0000
  C   C19       1.0  0.80815  0.93096  0.33097  1.0000
  C   C20       1.0  0.19190  0.06904  0.66902  1.0000
  C   C21       1.0  0.38676  0.16945  0.94476  1.0000
  C   C22       1.0  0.61321  0.83052  0.05523  1.0000
  C   C23       1.0  0.30488  0.02994  0.94710  1.0000
  C   C24       1.0  0.69510  0.97004  0.05290  1.0000
  C   C25       1.0  0.30623  0.91730  0.86225  1.0000
  C   C26       1.0  0.69376  0.08268  0.13774  1.0000
  C   C27       1.0  0.22072  0.78477  0.87161  1.0000
  C   C28       1.0  0.77926  0.21522  0.12838  1.0000
  C   C29       1.0  0.13131  0.76120  0.96437  1.0000
  C   C30       1.0  0.86868  0.23878  0.03563  1.0000
  C   C31       1.0  0.12828  0.86951  0.04821  1.0000
  C   C32       1.0  0.87171  0.13048  0.95178  1.0000
  C   C33       1.0  0.21627  0.00603  0.04078  1.0000
  C   C34       1.0  0.78372  0.99395  0.95922  1.0000
  C   C35       1.0  0.22213  0.12524  0.12191  1.0000
  C   C36       1.0  0.77784  0.87474  0.87808  1.0000
  C   C37       1.0  0.88600  0.57565  0.16363  1.0000
  C   C38       1.0  0.11397  0.42434  0.83637  1.0000
  C   C39       1.0  0.18454  0.58187  0.16036  1.0000
  C   C40       1.0  0.81542  0.41812  0.83965  1.0000
  N   N1        1.0  0.58843  0.22308  0.46347  1.0000
  N   N2        1.0  0.41157  0.77693  0.53652  1.0000
  N   N3        1.0  0.70008  0.32586  0.53628  1.0000
  N   N4        1.0  0.29992  0.67415  0.46371  1.0000
  N   N5        1.0  0.66329  0.92957  0.35706  1.0000
  N   N6        1.0  0.33675  0.07045  0.64295  1.0000
  N   N7        1.0  0.24592  0.93876  0.37906  1.0000
  N   N8        1.0  0.75413  0.06125  0.62094  1.0000
  N   N9        1.0  0.96006  0.93289  0.29115  1.0000
  N   N10       1.0  0.03998  0.06712  0.70885  1.0000
  N   N11       1.0  0.38572  0.27375  0.02489  1.0000
  N   N12       1.0  0.61426  0.72624  0.97511  1.0000
  N   N13       1.0  0.30372  0.25302  0.11570  1.0000
  N   N14       1.0  0.69627  0.74696  0.88430  1.0000
  N   N15       1.0  0.74067  0.57358  0.13521  1.0000
  N   N16       1.0  0.25930  0.42641  0.86480  1.0000
  N   N17       1.0  0.03657  0.57593  0.20607  1.0000
  N   N18       1.0  0.96341  0.42407  0.79394  1.0000
  N   N19       1.0  0.32559  0.58588  0.12678  1.0000
  N   N20       1.0  0.67438  0.41411  0.87322  1.0000
