data_image0
_chemical_formula_structural       Cd2H24C36S4N12
_chemical_formula_sum              "Cd2 H24 C36 S4 N12"
_cell_length_a       5.8261
_cell_length_b       7.52436
_cell_length_c       20.1377
_cell_angle_alpha    89.9986
_cell_angle_beta     89.9995
_cell_angle_gamma    93.9508

_space_group_name_H-M_alt    "P 1"
_space_group_IT_number       1

loop_
  _space_group_symop_operation_xyz
  'x, y, z'

loop_
  _atom_site_type_symbol
  _atom_site_label
  _atom_site_symmetry_multiplicity
  _atom_site_fract_x
  _atom_site_fract_y
  _atom_site_fract_z
  _atom_site_occupancy
  Cd  Cd1       1.0  0.00000  0.49999  0.50000  1.0000
  Cd  Cd2       1.0  0.00000  0.00001  1.00000  1.0000
  H   H1        1.0  0.28813  0.67301  0.77544  1.0000
  H   H2        1.0  0.71188  0.82699  0.27544  1.0000
  H   H3        1.0  0.71187  0.32699  0.22456  1.0000
  H   H4        1.0  0.28813  0.17300  0.72455  1.0000
  H   H5        1.0  0.56583  0.38385  0.59651  1.0000
  H   H6        1.0  0.43416  0.11615  0.09650  1.0000
  H   H7        1.0  0.43415  0.61613  0.40350  1.0000
  H   H8        1.0  0.56585  0.88387  0.90350  1.0000
  H   H9        1.0  0.20780  0.60981  0.65139  1.0000
  H   H10       1.0  0.79220  0.89019  0.15139  1.0000
  H   H11       1.0  0.79218  0.39018  0.34861  1.0000
  H   H12       1.0  0.20781  0.10983  0.84861  1.0000
  H   H13       1.0  0.50707  0.38136  0.82557  1.0000
  H   H14       1.0  0.49293  0.11867  0.32556  1.0000
  H   H15       1.0  0.49292  0.61865  0.17443  1.0000
  H   H16       1.0  0.50708  0.88133  0.67444  1.0000
  H   H17       1.0  0.15353  0.63532  0.89190  1.0000
  H   H18       1.0  0.84650  0.86470  0.39190  1.0000
  H   H19       1.0  0.84648  0.36468  0.10810  1.0000
  H   H20       1.0  0.15352  0.13528  0.60810  1.0000
  H   H21       1.0  0.77066  0.48760  0.91675  1.0000
  H   H22       1.0  0.22936  0.01245  0.41674  1.0000
  H   H23       1.0  0.22934  0.51243  0.08325  1.0000
  H   H24       1.0  0.77066  0.98754  0.58325  1.0000
  C   C1        1.0  0.97412  0.54294  0.73377  1.0000
  C   C2        1.0  0.02586  0.95707  0.23377  1.0000
  C   C3        1.0  0.02586  0.45705  0.26623  1.0000
  C   C4        1.0  0.97414  0.04294  0.76623  1.0000
  C   C5        1.0  0.74956  0.46280  0.74806  1.0000
  C   C6        1.0  0.25042  0.03721  0.24805  1.0000
  C   C7        1.0  0.25041  0.53720  0.25195  1.0000
  C   C8        1.0  0.74958  0.96279  0.75194  1.0000
  C   C9        1.0  0.12005  0.60582  0.78622  1.0000
  C   C10       1.0  0.87995  0.89419  0.28622  1.0000
  C   C11       1.0  0.87994  0.39418  0.21378  1.0000
  C   C12       1.0  0.12006  0.10581  0.71378  1.0000
  C   C13       1.0  0.68203  0.42645  0.63668  1.0000
  C   C14       1.0  0.31796  0.07355  0.13668  1.0000
  C   C15       1.0  0.31795  0.57353  0.36332  1.0000
  C   C16       1.0  0.68205  0.92646  0.86332  1.0000
  C   C17       1.0  0.03757  0.55331  0.66615  1.0000
  C   C18       1.0  0.96243  0.94670  0.16614  1.0000
  C   C19       1.0  0.96242  0.44668  0.33385  1.0000
  C   C20       1.0  0.03758  0.05332  0.83385  1.0000
  C   C21       1.0  0.67849  0.44186  0.81488  1.0000
  C   C22       1.0  0.32152  0.05817  0.31487  1.0000
  C   C23       1.0  0.32150  0.55815  0.18512  1.0000
  C   C24       1.0  0.67849  0.94183  0.68513  1.0000
  C   C25       1.0  0.04524  0.58509  0.85095  1.0000
  C   C26       1.0  0.95477  0.91492  0.35095  1.0000
  C   C27       1.0  0.95477  0.41491  0.14905  1.0000
  C   C28       1.0  0.04524  0.08507  0.64905  1.0000
  C   C29       1.0  0.82541  0.50134  0.86513  1.0000
  C   C30       1.0  0.17461  0.99870  0.36513  1.0000
  C   C31       1.0  0.17459  0.49868  0.13487  1.0000
  C   C32       1.0  0.82540  0.00129  0.63487  1.0000
  C   C33       1.0  0.53134  0.73152  0.50928  1.0000
  C   C34       1.0  0.46863  0.76848  0.00929  1.0000
  C   C35       1.0  0.46866  0.26844  0.49072  1.0000
  C   C36       1.0  0.53137  0.23154  0.99071  1.0000
  S   S1        1.0  0.28554  0.79959  0.53300  1.0000
  S   S2        1.0  0.71446  0.70041  0.03301  1.0000
  S   S3        1.0  0.71447  0.20039  0.46700  1.0000
  S   S4        1.0  0.28553  0.29961  0.96699  1.0000
  N   N1        1.0  0.89613  0.49485  0.61806  1.0000
  N   N2        1.0  0.10387  0.00516  0.11806  1.0000
  N   N3        1.0  0.10386  0.50514  0.38194  1.0000
  N   N4        1.0  0.89613  0.99487  0.88194  1.0000
  N   N5        1.0  0.70949  0.68491  0.48975  1.0000
  N   N6        1.0  0.29051  0.81508  0.98975  1.0000
  N   N7        1.0  0.29051  0.31505  0.51025  1.0000
  N   N8        1.0  0.70950  0.18494  0.01025  1.0000
  N   N9        1.0  0.60411  0.40763  0.69772  1.0000
  N   N10       1.0  0.39589  0.09238  0.19771  1.0000
  N   N11       1.0  0.39586  0.59237  0.30229  1.0000
  N   N12       1.0  0.60412  0.90763  0.80229  1.0000
