data_image0
_chemical_formula_structural       Cd2H24C40N20
_chemical_formula_sum              "Cd2 H24 C40 N20"
_cell_length_a       7.8236
_cell_length_b       9.36397
_cell_length_c       14.2558
_cell_angle_alpha    98.2034
_cell_angle_beta     105.655
_cell_angle_gamma    102.685

_space_group_name_H-M_alt    "P 1"
_space_group_IT_number       1

loop_
  _space_group_symop_operation_xyz
  'x, y, z'

loop_
  _atom_site_type_symbol
  _atom_site_label
  _atom_site_symmetry_multiplicity
  _atom_site_fract_x
  _atom_site_fract_y
  _atom_site_fract_z
  _atom_site_occupancy
  Cd  Cd1       1.0  0.99908  0.48713  0.23945  1.0000
  Cd  Cd2       1.0  0.00092  0.51288  0.76054  1.0000
  H   H1        1.0  0.72261  0.29171  0.02992  1.0000
  H   H2        1.0  0.27738  0.70828  0.97008  1.0000
  H   H3        1.0  0.82570  0.71998  0.00601  1.0000
  H   H4        1.0  0.17429  0.28002  0.99399  1.0000
  H   H5        1.0  0.06219  0.15197  0.25504  1.0000
  H   H6        1.0  0.93782  0.84803  0.74496  1.0000
  H   H7        1.0  0.04548  0.65962  0.46017  1.0000
  H   H8        1.0  0.95451  0.34037  0.53983  1.0000
  H   H9        1.0  0.54781  0.10617  0.86299  1.0000
  H   H10       1.0  0.45218  0.89383  0.13702  1.0000
  H   H11       1.0  0.40702  0.29672  0.66938  1.0000
  H   H12       1.0  0.59296  0.70329  0.33061  1.0000
  H   H13       1.0  0.11153  0.83352  0.62757  1.0000
  H   H14       1.0  0.88845  0.16649  0.37244  1.0000
  H   H15       1.0  0.18648  0.83788  0.23218  1.0000
  H   H16       1.0  0.81352  0.16212  0.76782  1.0000
  H   H17       1.0  0.62328  0.66170  0.82997  1.0000
  H   H18       1.0  0.37673  0.33830  0.17003  1.0000
  H   H19       1.0  0.24838  0.09217  0.73457  1.0000
  H   H20       1.0  0.75162  0.90784  0.26543  1.0000
  H   H21       1.0  0.42022  0.25177  0.49561  1.0000
  H   H22       1.0  0.57975  0.74824  0.50438  1.0000
  H   H23       1.0  0.48295  0.85203  0.75865  1.0000
  H   H24       1.0  0.51705  0.14796  0.24135  1.0000
  C   C1        1.0  0.61847  0.58066  0.12880  1.0000
  C   C2        1.0  0.38153  0.41933  0.87119  1.0000
  C   C3        1.0  0.70019  0.42873  0.37508  1.0000
  C   C4        1.0  0.29985  0.57127  0.62492  1.0000
  C   C5        1.0  0.80608  0.94810  0.03417  1.0000
  C   C6        1.0  0.19393  0.05190  0.96583  1.0000
  C   C7        1.0  0.40108  0.42503  0.36904  1.0000
  C   C8        1.0  0.59893  0.57497  0.63094  1.0000
  C   C9        1.0  0.32796  0.59444  0.13192  1.0000
  C   C10       1.0  0.67205  0.40558  0.86808  1.0000
  C   C11       1.0  0.26922  0.01813  0.46165  1.0000
  C   C12       1.0  0.73076  0.98188  0.53835  1.0000
  C   C13       1.0  0.72797  0.05826  0.99235  1.0000
  C   C14       1.0  0.27202  0.94174  0.00766  1.0000
  C   C15       1.0  0.18438  0.89901  0.50071  1.0000
  C   C16       1.0  0.81564  0.10098  0.49930  1.0000
  C   C17       1.0  0.77866  0.20176  0.05488  1.0000
  C   C18       1.0  0.22135  0.79824  0.94512  1.0000
  C   C19       1.0  0.76416  0.80309  0.97436  1.0000
  C   C20       1.0  0.23582  0.19690  0.02564  1.0000
  C   C21       1.0  0.96361  0.12139  0.17993  1.0000
  C   C22       1.0  0.03643  0.87861  0.82007  1.0000
  C   C23       1.0  0.10917  0.75704  0.43528  1.0000
  C   C24       1.0  0.89082  0.24296  0.56472  1.0000
  C   C25       1.0  0.60890  0.02165  0.89277  1.0000
  C   C26       1.0  0.39112  0.97835  0.10723  1.0000
  C   C27       1.0  0.34384  0.18566  0.62101  1.0000
  C   C28       1.0  0.65615  0.81435  0.37898  1.0000
  C   C29       1.0  0.17780  0.92630  0.59986  1.0000
  C   C30       1.0  0.82218  0.07370  0.40013  1.0000
  C   C31       1.0  0.19108  0.85782  0.31023  1.0000
  C   C32       1.0  0.80889  0.14218  0.68976  1.0000
  C   C33       1.0  0.65053  0.77175  0.87696  1.0000
  C   C34       1.0  0.34948  0.22826  0.12304  1.0000
  C   C35       1.0  0.25543  0.06865  0.65880  1.0000
  C   C36       1.0  0.74456  0.93135  0.34120  1.0000
  C   C37       1.0  0.35170  0.16217  0.52463  1.0000
  C   C38       1.0  0.64830  0.83783  0.47536  1.0000
  C   C39       1.0  0.57182  0.88019  0.83575  1.0000
  C   C40       1.0  0.42820  0.11981  0.16425  1.0000
  N   N1        1.0  0.11199  0.73582  0.34177  1.0000
  N   N2        1.0  0.88801  0.26418  0.65824  1.0000
  N   N3        1.0  0.89605  0.23404  0.14647  1.0000
  N   N4        1.0  0.10394  0.76596  0.85353  1.0000
  N   N5        1.0  0.92242  0.98242  0.13002  1.0000
  N   N6        1.0  0.07758  0.01758  0.86999  1.0000
  N   N7        1.0  0.74656  0.53231  0.13178  1.0000
  N   N8        1.0  0.25345  0.46768  0.86822  1.0000
  N   N9        1.0  0.24333  0.41801  0.33670  1.0000
  N   N10       1.0  0.75670  0.58200  0.66329  1.0000
  N   N11       1.0  0.17730  0.56235  0.13787  1.0000
  N   N12       1.0  0.82270  0.43767  0.86213  1.0000
  N   N13       1.0  0.83068  0.42610  0.34894  1.0000
  N   N14       1.0  0.16935  0.57389  0.65107  1.0000
  N   N15       1.0  0.57046  0.43200  0.41428  1.0000
  N   N16       1.0  0.42955  0.56800  0.58570  1.0000
  N   N17       1.0  0.48894  0.64682  0.12335  1.0000
  N   N18       1.0  0.51106  0.35318  0.87666  1.0000
  N   N19       1.0  0.26957  0.99442  0.36472  1.0000
  N   N20       1.0  0.73043  0.00557  0.63528  1.0000
