data_image0
_chemical_formula_structural       Cd8H32C48N32O16
_chemical_formula_sum              "Cd8 H32 C48 N32 O16"
_cell_length_a       6.61475
_cell_length_b       9.86402
_cell_length_c       24.2819
_cell_angle_alpha    89.9999
_cell_angle_beta     89.9999
_cell_angle_gamma    90

_space_group_name_H-M_alt    "P 1"
_space_group_IT_number       1

loop_
  _space_group_symop_operation_xyz
  'x, y, z'

loop_
  _atom_site_type_symbol
  _atom_site_label
  _atom_site_symmetry_multiplicity
  _atom_site_fract_x
  _atom_site_fract_y
  _atom_site_fract_z
  _atom_site_occupancy
  Cd  Cd1       1.0  0.86068  0.86493  0.96046  1.0000
  Cd  Cd2       1.0  0.13933  0.63507  0.46046  1.0000
  Cd  Cd3       1.0  0.63932  0.36493  0.03954  1.0000
  Cd  Cd4       1.0  0.36067  0.13508  0.53954  1.0000
  Cd  Cd5       1.0  0.13932  0.13507  0.03954  1.0000
  Cd  Cd6       1.0  0.86068  0.36493  0.53954  1.0000
  Cd  Cd7       1.0  0.36068  0.63507  0.96046  1.0000
  Cd  Cd8       1.0  0.63932  0.86492  0.46046  1.0000
  H   H1        1.0  0.75262  0.32343  0.85175  1.0000
  H   H2        1.0  0.24738  0.17657  0.35175  1.0000
  H   H3        1.0  0.74738  0.82343  0.14825  1.0000
  H   H4        1.0  0.25262  0.67657  0.64825  1.0000
  H   H5        1.0  0.24738  0.67657  0.14825  1.0000
  H   H6        1.0  0.75262  0.82343  0.64825  1.0000
  H   H7        1.0  0.25262  0.17657  0.85175  1.0000
  H   H8        1.0  0.74738  0.32343  0.35175  1.0000
  H   H9        1.0  0.80867  0.23558  0.75512  1.0000
  H   H10       1.0  0.19133  0.26442  0.25512  1.0000
  H   H11       1.0  0.69133  0.73558  0.24488  1.0000
  H   H12       1.0  0.30867  0.76442  0.74488  1.0000
  H   H13       1.0  0.19133  0.76442  0.24488  1.0000
  H   H14       1.0  0.80867  0.73558  0.74488  1.0000
  H   H15       1.0  0.30867  0.26442  0.75512  1.0000
  H   H16       1.0  0.69133  0.23558  0.25512  1.0000
  H   H17       1.0  0.92892  0.99828  0.74259  1.0000
  H   H18       1.0  0.07108  0.50172  0.24259  1.0000
  H   H19       1.0  0.57108  0.49828  0.25741  1.0000
  H   H20       1.0  0.42892  0.00172  0.75741  1.0000
  H   H21       1.0  0.07108  0.00172  0.25741  1.0000
  H   H22       1.0  0.92892  0.49828  0.75741  1.0000
  H   H23       1.0  0.42892  0.50172  0.74259  1.0000
  H   H24       1.0  0.57108  0.99828  0.24259  1.0000
  H   H25       1.0  0.98130  0.85302  0.82716  1.0000
  H   H26       1.0  0.01870  0.64698  0.32716  1.0000
  H   H27       1.0  0.51870  0.35302  0.17284  1.0000
  H   H28       1.0  0.48130  0.14698  0.67284  1.0000
  H   H29       1.0  0.01870  0.14698  0.17284  1.0000
  H   H30       1.0  0.98130  0.35302  0.67284  1.0000
  H   H31       1.0  0.48130  0.64698  0.82716  1.0000
  H   H32       1.0  0.51870  0.85302  0.32716  1.0000
  C   C1        1.0  0.79065  0.17707  0.94681  1.0000
  C   C2        1.0  0.20935  0.32293  0.44681  1.0000
  C   C3        1.0  0.70935  0.67707  0.05319  1.0000
  C   C4        1.0  0.29065  0.82293  0.55319  1.0000
  C   C5        1.0  0.20935  0.82293  0.05319  1.0000
  C   C6        1.0  0.79065  0.67707  0.55319  1.0000
  C   C7        1.0  0.29065  0.32293  0.94681  1.0000
  C   C8        1.0  0.70935  0.17707  0.44681  1.0000
  C   C9        1.0  0.82644  0.13115  0.88822  1.0000
  C   C10       1.0  0.17357  0.36885  0.38822  1.0000
  C   C11       1.0  0.67356  0.63115  0.11178  1.0000
  C   C12       1.0  0.32644  0.86885  0.61178  1.0000
  C   C13       1.0  0.17356  0.86885  0.11178  1.0000
  C   C14       1.0  0.82644  0.63115  0.61178  1.0000
  C   C15       1.0  0.32644  0.36885  0.88822  1.0000
  C   C16       1.0  0.67357  0.13115  0.38822  1.0000
  C   C17       1.0  0.79766  0.21918  0.84388  1.0000
  C   C18       1.0  0.20234  0.28082  0.34388  1.0000
  C   C19       1.0  0.70234  0.71919  0.15612  1.0000
  C   C20       1.0  0.29766  0.78081  0.65613  1.0000
  C   C21       1.0  0.20234  0.78082  0.15613  1.0000
  C   C22       1.0  0.79766  0.71919  0.65613  1.0000
  C   C23       1.0  0.29766  0.28081  0.84387  1.0000
  C   C24       1.0  0.70234  0.21918  0.34388  1.0000
  C   C25       1.0  0.83244  0.17044  0.79083  1.0000
  C   C26       1.0  0.16756  0.32956  0.29083  1.0000
  C   C27       1.0  0.66756  0.67044  0.20917  1.0000
  C   C28       1.0  0.33244  0.82956  0.70917  1.0000
  C   C29       1.0  0.16756  0.82956  0.20917  1.0000
  C   C30       1.0  0.83244  0.67044  0.70917  1.0000
  C   C31       1.0  0.33244  0.32956  0.79083  1.0000
  C   C32       1.0  0.66757  0.17044  0.29083  1.0000
  C   C33       1.0  0.89888  0.03748  0.78371  1.0000
  C   C34       1.0  0.10112  0.46252  0.28371  1.0000
  C   C35       1.0  0.60112  0.53748  0.21629  1.0000
  C   C36       1.0  0.39888  0.96252  0.71629  1.0000
  C   C37       1.0  0.10112  0.96253  0.21629  1.0000
  C   C38       1.0  0.89888  0.53748  0.71629  1.0000
  C   C39       1.0  0.39888  0.46252  0.78371  1.0000
  C   C40       1.0  0.60112  0.03748  0.28371  1.0000
  C   C41       1.0  0.92694  0.95708  0.83033  1.0000
  C   C42       1.0  0.07306  0.54292  0.33033  1.0000
  C   C43       1.0  0.57306  0.45709  0.16967  1.0000
  C   C44       1.0  0.42694  0.04292  0.66967  1.0000
  C   C45       1.0  0.07306  0.04292  0.16967  1.0000
  C   C46       1.0  0.92694  0.45708  0.66967  1.0000
  C   C47       1.0  0.42694  0.54292  0.83033  1.0000
  C   C48       1.0  0.57306  0.95708  0.33033  1.0000
  N   N1        1.0  0.04076  0.68972  0.92370  1.0000
  N   N2        1.0  0.95924  0.81028  0.42370  1.0000
  N   N3        1.0  0.45924  0.18972  0.07630  1.0000
  N   N4        1.0  0.54076  0.31028  0.57630  1.0000
  N   N5        1.0  0.95924  0.31028  0.07630  1.0000
  N   N6        1.0  0.04076  0.18972  0.57630  1.0000
  N   N7        1.0  0.54076  0.81028  0.92371  1.0000
  N   N8        1.0  0.45924  0.68972  0.42370  1.0000
  N   N9        1.0  0.96709  0.62518  0.88647  1.0000
  N   N10       1.0  0.03291  0.87483  0.38647  1.0000
  N   N11       1.0  0.53291  0.12518  0.11353  1.0000
  N   N12       1.0  0.46709  0.37483  0.61353  1.0000
  N   N13       1.0  0.03291  0.37482  0.11353  1.0000
  N   N14       1.0  0.96709  0.12518  0.61353  1.0000
  N   N15       1.0  0.46709  0.87482  0.88647  1.0000
  N   N16       1.0  0.53291  0.62518  0.38647  1.0000
  N   N17       1.0  0.89863  0.56355  0.85006  1.0000
  N   N18       1.0  0.10137  0.93645  0.35006  1.0000
  N   N19       1.0  0.60137  0.06355  0.14994  1.0000
  N   N20       1.0  0.39863  0.43645  0.64994  1.0000
  N   N21       1.0  0.10137  0.43645  0.14994  1.0000
  N   N22       1.0  0.89863  0.06355  0.64994  1.0000
  N   N23       1.0  0.39863  0.93645  0.85006  1.0000
  N   N24       1.0  0.60138  0.56355  0.35006  1.0000
  N   N25       1.0  0.88990  0.00278  0.88125  1.0000
  N   N26       1.0  0.11009  0.49722  0.38125  1.0000
  N   N27       1.0  0.61010  0.50278  0.11875  1.0000
  N   N28       1.0  0.38990  0.99722  0.61875  1.0000
  N   N29       1.0  0.11010  0.99722  0.11875  1.0000
  N   N30       1.0  0.88990  0.50278  0.61875  1.0000
  N   N31       1.0  0.38990  0.49722  0.88125  1.0000
  N   N32       1.0  0.61010  0.00278  0.38125  1.0000
  O   O1        1.0  0.82164  0.09299  0.98607  1.0000
  O   O2        1.0  0.17836  0.40701  0.48607  1.0000
  O   O3        1.0  0.67836  0.59299  0.01393  1.0000
  O   O4        1.0  0.32164  0.90701  0.51393  1.0000
  O   O5        1.0  0.17836  0.90701  0.01393  1.0000
  O   O6        1.0  0.82164  0.59299  0.51393  1.0000
  O   O7        1.0  0.32164  0.40701  0.98607  1.0000
  O   O8        1.0  0.67836  0.09299  0.48607  1.0000
  O   O9        1.0  0.76697  0.79840  0.04684  1.0000
  O   O10       1.0  0.23302  0.70160  0.54684  1.0000
  O   O11       1.0  0.73303  0.29840  0.95316  1.0000
  O   O12       1.0  0.26697  0.20160  0.45316  1.0000
  O   O13       1.0  0.23303  0.20160  0.95316  1.0000
  O   O14       1.0  0.76698  0.29840  0.45316  1.0000
  O   O15       1.0  0.26697  0.70160  0.04684  1.0000
  O   O16       1.0  0.73303  0.79840  0.54684  1.0000
