data_image0
_chemical_formula_structural       Cd4H16C28S4N8O8
_chemical_formula_sum              "Cd4 H16 C28 S4 N8 O8"
_cell_length_a       5.72436
_cell_length_b       10.1634
_cell_length_c       15.3984
_cell_angle_alpha    83.681
_cell_angle_beta     79.3292
_cell_angle_gamma    73.6425

_space_group_name_H-M_alt    "P 1"
_space_group_IT_number       1

loop_
  _space_group_symop_operation_xyz
  'x, y, z'

loop_
  _atom_site_type_symbol
  _atom_site_label
  _atom_site_symmetry_multiplicity
  _atom_site_fract_x
  _atom_site_fract_y
  _atom_site_fract_z
  _atom_site_occupancy
  Cd  Cd1       1.0  0.88818  0.65925  0.67300  1.0000
  Cd  Cd2       1.0  0.21993  0.84157  0.82709  1.0000
  Cd  Cd3       1.0  0.11185  0.34074  0.32700  1.0000
  Cd  Cd4       1.0  0.78007  0.15845  0.17291  1.0000
  H   H1        1.0  0.44069  0.94050  0.46182  1.0000
  H   H2        1.0  0.84279  0.55960  0.03811  1.0000
  H   H3        1.0  0.55932  0.05949  0.53818  1.0000
  H   H4        1.0  0.15719  0.44042  0.96189  1.0000
  H   H5        1.0  0.28929  0.93016  0.32277  1.0000
  H   H6        1.0  0.54256  0.56976  0.17716  1.0000
  H   H7        1.0  0.71072  0.06982  0.67723  1.0000
  H   H8        1.0  0.45741  0.43025  0.82285  1.0000
  H   H9        1.0  0.95762  0.80752  0.32727  1.0000
  H   H10       1.0  0.09271  0.69222  0.17266  1.0000
  H   H11       1.0  0.04239  0.19245  0.67274  1.0000
  H   H12       1.0  0.90727  0.30780  0.82733  1.0000
  H   H13       1.0  0.80922  0.69417  0.47138  1.0000
  H   H14       1.0  0.97438  0.80572  0.02859  1.0000
  H   H15       1.0  0.19078  0.30581  0.52863  1.0000
  H   H16       1.0  0.02560  0.19430  0.97140  1.0000
  C   C1        1.0  0.48274  0.49936  0.64371  1.0000
  C   C2        1.0  0.62531  0.00120  0.85630  1.0000
  C   C3        1.0  0.51728  0.50063  0.35629  1.0000
  C   C4        1.0  0.37467  0.99881  0.14369  1.0000
  C   C5        1.0  0.27719  0.83604  0.62766  1.0000
  C   C6        1.0  0.74040  0.66425  0.87231  1.0000
  C   C7        1.0  0.72280  0.16396  0.37235  1.0000
  C   C8        1.0  0.25961  0.33576  0.12769  1.0000
  C   C9        1.0  0.20128  0.82588  0.54028  1.0000
  C   C10       1.0  0.56714  0.67428  0.95969  1.0000
  C   C11       1.0  0.79874  0.17411  0.45972  1.0000
  C   C12       1.0  0.43284  0.32573  0.04031  1.0000
  C   C13       1.0  0.30174  0.88637  0.46203  1.0000
  C   C14       1.0  0.64995  0.61362  0.03791  1.0000
  C   C15       1.0  0.69828  0.11361  0.53797  1.0000
  C   C16       1.0  0.35002  0.38640  0.96209  1.0000
  C   C17       1.0  0.21484  0.88104  0.38395  1.0000
  C   C18       1.0  0.47984  0.61894  0.11598  1.0000
  C   C19       1.0  0.78517  0.11894  0.61605  1.0000
  C   C20       1.0  0.52015  0.38109  0.88402  1.0000
  C   C21       1.0  0.03356  0.81307  0.38620  1.0000
  C   C22       1.0  0.23279  0.68673  0.11371  1.0000
  C   C23       1.0  0.96645  0.18691  0.61380  1.0000
  C   C24       1.0  0.76720  0.31327  0.88628  1.0000
  C   C25       1.0  0.94632  0.75164  0.46645  1.0000
  C   C26       1.0  0.16412  0.74825  0.03345  1.0000
  C   C27       1.0  0.05368  0.24834  0.53356  1.0000
  C   C28       1.0  0.83586  0.25177  0.96654  1.0000
  S   S1        1.0  0.25564  0.42831  0.67305  1.0000
  S   S2        1.0  0.35652  0.07234  0.82689  1.0000
  S   S3        1.0  0.74438  0.57167  0.32695  1.0000
  S   S4        1.0  0.64347  0.92768  0.17311  1.0000
  N   N1        1.0  0.65024  0.54886  0.62124  1.0000
  N   N2        1.0  0.82003  0.95163  0.87869  1.0000
  N   N3        1.0  0.34979  0.45112  0.37876  1.0000
  N   N4        1.0  0.17999  0.04839  0.12130  1.0000
  N   N5        1.0  0.02717  0.75940  0.54141  1.0000
  N   N6        1.0  0.32749  0.74073  0.95854  1.0000
  N   N7        1.0  0.97284  0.24059  0.45860  1.0000
  N   N8        1.0  0.67249  0.25929  0.04146  1.0000
  O   O1        1.0  0.13641  0.80096  0.69777  1.0000
  O   O2        1.0  0.63438  0.69965  0.80220  1.0000
  O   O3        1.0  0.86360  0.19903  0.30223  1.0000
  O   O4        1.0  0.36560  0.30036  0.19780  1.0000
  O   O5        1.0  0.46107  0.87775  0.62927  1.0000
  O   O6        1.0  0.96751  0.62228  0.87069  1.0000
  O   O7        1.0  0.53893  0.12225  0.37074  1.0000
  O   O8        1.0  0.03250  0.37772  0.12930  1.0000
