data_image0
_chemical_formula_structural       Cd4H28C12S4N12Cl8
_chemical_formula_sum              "Cd4 H28 C12 S4 N12 Cl8"
_cell_length_a       7.05343
_cell_length_b       10.4257
_cell_length_c       12.2818
_cell_angle_alpha    90.0007
_cell_angle_beta     103.701
_cell_angle_gamma    89.9991

_space_group_name_H-M_alt    "P 1"
_space_group_IT_number       1

loop_
  _space_group_symop_operation_xyz
  'x, y, z'

loop_
  _atom_site_type_symbol
  _atom_site_label
  _atom_site_symmetry_multiplicity
  _atom_site_fract_x
  _atom_site_fract_y
  _atom_site_fract_z
  _atom_site_occupancy
  Cd  Cd1       1.0  0.88474  0.82193  0.66875  1.0000
  Cd  Cd2       1.0  0.61527  0.32193  0.33124  1.0000
  Cd  Cd3       1.0  0.11527  0.17807  0.33124  1.0000
  Cd  Cd4       1.0  0.38474  0.67807  0.66876  1.0000
  H   H1        1.0  0.75691  0.05853  0.53029  1.0000
  H   H2        1.0  0.74310  0.55853  0.46971  1.0000
  H   H3        1.0  0.24309  0.94147  0.46970  1.0000
  H   H4        1.0  0.25691  0.44147  0.53029  1.0000
  H   H5        1.0  0.99827  0.07178  0.56142  1.0000
  H   H6        1.0  0.50173  0.57178  0.43857  1.0000
  H   H7        1.0  0.00174  0.92821  0.43857  1.0000
  H   H8        1.0  0.49827  0.42822  0.56143  1.0000
  H   H9        1.0  0.64589  0.86243  0.89343  1.0000
  H   H10       1.0  0.85408  0.36243  0.10657  1.0000
  H   H11       1.0  0.35411  0.13757  0.10656  1.0000
  H   H12       1.0  0.14590  0.63757  0.89343  1.0000
  H   H13       1.0  0.88717  0.91168  0.95901  1.0000
  H   H14       1.0  0.61283  0.41168  0.04100  1.0000
  H   H15       1.0  0.11282  0.08833  0.04099  1.0000
  H   H16       1.0  0.38715  0.58832  0.95901  1.0000
  H   H17       1.0  0.51013  0.07099  0.90273  1.0000
  H   H18       1.0  0.98988  0.57098  0.09729  1.0000
  H   H19       1.0  0.48986  0.92901  0.09727  1.0000
  H   H20       1.0  0.01012  0.42901  0.90271  1.0000
  H   H21       1.0  0.70435  0.07889  0.02711  1.0000
  H   H22       1.0  0.79567  0.57889  0.97289  1.0000
  H   H23       1.0  0.29566  0.92111  0.97288  1.0000
  H   H24       1.0  0.20432  0.42111  0.02711  1.0000
  H   H25       1.0  0.85573  0.22255  0.65860  1.0000
  H   H26       1.0  0.64428  0.72256  0.34141  1.0000
  H   H27       1.0  0.14428  0.77744  0.34139  1.0000
  H   H28       1.0  0.35574  0.27744  0.65860  1.0000
  C   C1        1.0  0.81765  0.08350  0.77057  1.0000
  C   C2        1.0  0.68235  0.58349  0.22942  1.0000
  C   C3        1.0  0.18234  0.91651  0.22942  1.0000
  C   C4        1.0  0.31765  0.41651  0.77059  1.0000
  C   C5        1.0  0.75149  0.94096  0.89902  1.0000
  C   C6        1.0  0.74850  0.44096  0.10098  1.0000
  C   C7        1.0  0.24851  0.05904  0.10098  1.0000
  C   C8        1.0  0.25148  0.55904  0.89901  1.0000
  C   C9        1.0  0.66856  0.06510  0.93599  1.0000
  C   C10       1.0  0.83144  0.56508  0.06402  1.0000
  C   C11       1.0  0.33144  0.93491  0.06401  1.0000
  C   C12       1.0  0.16854  0.43491  0.93599  1.0000
  S   S1        1.0  0.78092  0.19366  0.87260  1.0000
  S   S2        1.0  0.71908  0.69368  0.12740  1.0000
  S   S3        1.0  0.21907  0.80634  0.12739  1.0000
  S   S4        1.0  0.28092  0.30633  0.87261  1.0000
  N   N1        1.0  0.88245  0.04321  0.59229  1.0000
  N   N2        1.0  0.61756  0.54320  0.40770  1.0000
  N   N3        1.0  0.11756  0.95679  0.40770  1.0000
  N   N4        1.0  0.38245  0.45679  0.59230  1.0000
  N   N5        1.0  0.87741  0.12855  0.68078  1.0000
  N   N6        1.0  0.62261  0.62857  0.31923  1.0000
  N   N7        1.0  0.12260  0.87144  0.31922  1.0000
  N   N8        1.0  0.37741  0.37144  0.68077  1.0000
  N   N9        1.0  0.79105  0.96323  0.78906  1.0000
  N   N10       1.0  0.70895  0.46322  0.21095  1.0000
  N   N11       1.0  0.20895  0.03678  0.21093  1.0000
  N   N12       1.0  0.29104  0.53678  0.78906  1.0000
  Cl  Cl1       1.0  0.52100  0.80891  0.52078  1.0000
  Cl  Cl2       1.0  0.97900  0.30891  0.47923  1.0000
  Cl  Cl3       1.0  0.47900  0.19109  0.47923  1.0000
  Cl  Cl4       1.0  0.02100  0.69109  0.52078  1.0000
  Cl  Cl5       1.0  0.26072  0.87392  0.76162  1.0000
  Cl  Cl6       1.0  0.23928  0.37392  0.23838  1.0000
  Cl  Cl7       1.0  0.73928  0.12608  0.23839  1.0000
  Cl  Cl8       1.0  0.76072  0.62608  0.76162  1.0000
