data_image0
_chemical_formula_structural       Cd4H36C60N12O16
_chemical_formula_sum              "Cd4 H36 C60 N12 O16"
_cell_length_a       9.06497
_cell_length_b       11.357
_cell_length_c       13.6185
_cell_angle_alpha    95.8043
_cell_angle_beta     90
_cell_angle_gamma    89.9999

_space_group_name_H-M_alt    "P 1"
_space_group_IT_number       1

loop_
  _space_group_symop_operation_xyz
  'x, y, z'

loop_
  _atom_site_type_symbol
  _atom_site_label
  _atom_site_symmetry_multiplicity
  _atom_site_fract_x
  _atom_site_fract_y
  _atom_site_fract_z
  _atom_site_occupancy
  Cd  Cd1       1.0  0.05141  0.40481  0.60836  1.0000
  Cd  Cd2       1.0  0.55141  0.09519  0.89164  1.0000
  Cd  Cd3       1.0  0.94859  0.59519  0.39164  1.0000
  Cd  Cd4       1.0  0.44859  0.90481  0.10836  1.0000
  H   H1        1.0  0.46816  0.32713  0.40784  1.0000
  H   H2        1.0  0.96816  0.17287  0.09216  1.0000
  H   H3        1.0  0.53184  0.67287  0.59216  1.0000
  H   H4        1.0  0.03184  0.82713  0.90784  1.0000
  H   H5        1.0  0.27232  0.66253  0.36051  1.0000
  H   H6        1.0  0.77232  0.83747  0.13949  1.0000
  H   H7        1.0  0.72768  0.33746  0.63949  1.0000
  H   H8        1.0  0.22768  0.16254  0.86051  1.0000
  H   H9        1.0  0.64369  0.53523  0.18624  1.0000
  H   H10       1.0  0.14369  0.96477  0.31376  1.0000
  H   H11       1.0  0.35632  0.46477  0.81376  1.0000
  H   H12       1.0  0.85632  0.03523  0.68624  1.0000
  H   H13       1.0  0.72765  0.33520  0.19084  1.0000
  H   H14       1.0  0.22765  0.16480  0.30916  1.0000
  H   H15       1.0  0.27235  0.66480  0.80916  1.0000
  H   H16       1.0  0.77235  0.83520  0.69084  1.0000
  H   H17       1.0  0.78452  0.34474  0.31601  1.0000
  H   H18       1.0  0.28452  0.15526  0.18399  1.0000
  H   H19       1.0  0.21548  0.65526  0.68399  1.0000
  H   H20       1.0  0.71548  0.84474  0.81601  1.0000
  H   H21       1.0  0.55517  0.84983  0.35077  1.0000
  H   H22       1.0  0.05517  0.65018  0.14924  1.0000
  H   H23       1.0  0.44483  0.15017  0.64924  1.0000
  H   H24       1.0  0.94483  0.34983  0.85077  1.0000
  H   H25       1.0  0.72092  0.87019  0.49681  1.0000
  H   H26       1.0  0.22092  0.62981  0.00319  1.0000
  H   H27       1.0  0.27908  0.12980  0.50319  1.0000
  H   H28       1.0  0.77908  0.37019  0.99681  1.0000
  H   H29       1.0  0.85347  0.06069  0.54600  1.0000
  H   H30       1.0  0.35347  0.43931  0.95400  1.0000
  H   H31       1.0  0.14653  0.93930  0.45400  1.0000
  H   H32       1.0  0.64653  0.56069  0.04600  1.0000
  H   H33       1.0  0.82400  0.23361  0.45304  1.0000
  H   H34       1.0  0.32400  0.26639  0.04696  1.0000
  H   H35       1.0  0.17600  0.76639  0.54696  1.0000
  H   H36       1.0  0.67600  0.73361  0.95304  1.0000
  C   C1        1.0  0.56933  0.41963  0.29310  1.0000
  C   C2        1.0  0.06933  0.08037  0.20690  1.0000
  C   C3        1.0  0.43067  0.58037  0.70690  1.0000
  C   C4        1.0  0.93067  0.91963  0.79310  1.0000
  C   C5        1.0  0.46703  0.40527  0.36746  1.0000
  C   C6        1.0  0.96702  0.09473  0.13254  1.0000
  C   C7        1.0  0.53297  0.59473  0.63254  1.0000
  C   C8        1.0  0.03297  0.90527  0.86746  1.0000
  C   C9        1.0  0.35977  0.49224  0.39238  1.0000
  C   C10       1.0  0.85977  0.00776  0.10761  1.0000
  C   C11       1.0  0.64023  0.50776  0.60762  1.0000
  C   C12       1.0  0.14023  0.99224  0.89238  1.0000
  C   C13       1.0  0.35478  0.59387  0.34239  1.0000
  C   C14       1.0  0.85478  0.90613  0.15761  1.0000
  C   C15       1.0  0.64522  0.40613  0.65761  1.0000
  C   C16       1.0  0.14522  0.09387  0.84239  1.0000
  C   C17       1.0  0.45554  0.60754  0.26665  1.0000
  C   C18       1.0  0.95554  0.89246  0.23335  1.0000
  C   C19       1.0  0.54446  0.39246  0.73335  1.0000
  C   C20       1.0  0.04446  0.10754  0.76665  1.0000
  C   C21       1.0  0.56325  0.52111  0.24324  1.0000
  C   C22       1.0  0.06325  0.97889  0.25676  1.0000
  C   C23       1.0  0.43675  0.47888  0.75676  1.0000
  C   C24       1.0  0.93675  0.02112  0.74323  1.0000
  C   C25       1.0  0.68921  0.32940  0.26664  1.0000
  C   C26       1.0  0.18921  0.17060  0.23336  1.0000
  C   C27       1.0  0.31079  0.67060  0.73336  1.0000
  C   C28       1.0  0.81079  0.82940  0.76664  1.0000
  C   C29       1.0  0.67765  0.13609  0.34587  1.0000
  C   C30       1.0  0.17765  0.36391  0.15413  1.0000
  C   C31       1.0  0.32235  0.86391  0.65413  1.0000
  C   C32       1.0  0.82235  0.63609  0.84587  1.0000
  C   C33       1.0  0.60271  0.02909  0.31644  1.0000
  C   C34       1.0  0.10271  0.47091  0.18356  1.0000
  C   C35       1.0  0.39729  0.97091  0.68356  1.0000
  C   C36       1.0  0.89729  0.52909  0.81644  1.0000
  C   C37       1.0  0.61452  0.93153  0.37178  1.0000
  C   C38       1.0  0.11452  0.56847  0.12822  1.0000
  C   C39       1.0  0.38548  0.06847  0.62822  1.0000
  C   C40       1.0  0.88548  0.43154  0.87179  1.0000
  C   C41       1.0  0.70582  0.94521  0.45372  1.0000
  C   C42       1.0  0.20582  0.55479  0.04628  1.0000
  C   C43       1.0  0.29418  0.05479  0.54628  1.0000
  C   C44       1.0  0.79418  0.44521  0.95372  1.0000
  C   C45       1.0  0.78130  0.05256  0.48186  1.0000
  C   C46       1.0  0.28130  0.44744  0.01814  1.0000
  C   C47       1.0  0.21870  0.94744  0.51814  1.0000
  C   C48       1.0  0.71869  0.55256  0.98186  1.0000
  C   C49       1.0  0.76770  0.15077  0.42978  1.0000
  C   C50       1.0  0.26770  0.34923  0.07022  1.0000
  C   C51       1.0  0.23230  0.84922  0.57022  1.0000
  C   C52       1.0  0.73230  0.65077  0.92978  1.0000
  C   C53       1.0  0.24995  0.47303  0.47051  1.0000
  C   C54       1.0  0.74995  0.02697  0.02949  1.0000
  C   C55       1.0  0.75005  0.52697  0.52949  1.0000
  C   C56       1.0  0.25005  0.97303  0.97051  1.0000
  C   C57       1.0  0.44525  0.71368  0.21018  1.0000
  C   C58       1.0  0.94525  0.78632  0.28982  1.0000
  C   C59       1.0  0.55475  0.28632  0.78982  1.0000
  C   C60       1.0  0.05475  0.21368  0.71018  1.0000
  N   N1        1.0  0.53060  0.04483  0.22946  1.0000
  N   N2        1.0  0.03060  0.45517  0.27054  1.0000
  N   N3        1.0  0.46940  0.95517  0.77054  1.0000
  N   N4        1.0  0.96940  0.54483  0.72946  1.0000
  N   N5        1.0  0.55587  0.15212  0.20483  1.0000
  N   N6        1.0  0.05587  0.34788  0.29517  1.0000
  N   N7        1.0  0.44414  0.84788  0.79517  1.0000
  N   N8        1.0  0.94414  0.65212  0.70483  1.0000
  N   N9        1.0  0.64320  0.20806  0.27418  1.0000
  N   N10       1.0  0.14320  0.29194  0.22582  1.0000
  N   N11       1.0  0.35680  0.79194  0.72582  1.0000
  N   N12       1.0  0.85680  0.70806  0.77418  1.0000
  O   O1        1.0  0.15097  0.55223  0.49519  1.0000
  O   O2        1.0  0.65096  0.94777  0.00480  1.0000
  O   O3        1.0  0.84904  0.44777  0.50480  1.0000
  O   O4        1.0  0.34903  0.05223  0.99520  1.0000
  O   O5        1.0  0.25584  0.37728  0.51166  1.0000
  O   O6        1.0  0.75584  0.12272  0.98834  1.0000
  O   O7        1.0  0.74416  0.62272  0.48834  1.0000
  O   O8        1.0  0.24416  0.87728  0.01166  1.0000
  O   O9        1.0  0.35600  0.79609  0.23952  1.0000
  O   O10       1.0  0.85600  0.70391  0.26048  1.0000
  O   O11       1.0  0.64400  0.20391  0.76048  1.0000
  O   O12       1.0  0.14400  0.29609  0.73952  1.0000
  O   O13       1.0  0.52852  0.71856  0.13429  1.0000
  O   O14       1.0  0.02851  0.78145  0.36571  1.0000
  O   O15       1.0  0.47149  0.28144  0.86571  1.0000
  O   O16       1.0  0.97149  0.21856  0.63429  1.0000
