data_image0
_chemical_formula_structural       Cd4H36C60N12O16
_chemical_formula_sum              "Cd4 H36 C60 N12 O16"
_cell_length_a       8.46318
_cell_length_b       11.3695
_cell_length_c       15.1162
_cell_angle_alpha    90
_cell_angle_beta     90.4331
_cell_angle_gamma    90

_space_group_name_H-M_alt    "P 1"
_space_group_IT_number       1

loop_
  _space_group_symop_operation_xyz
  'x, y, z'

loop_
  _atom_site_type_symbol
  _atom_site_label
  _atom_site_symmetry_multiplicity
  _atom_site_fract_x
  _atom_site_fract_y
  _atom_site_fract_z
  _atom_site_occupancy
  Cd  Cd1       1.0  0.90561  0.85100  0.48222  1.0000
  Cd  Cd2       1.0  0.59439  0.35100  0.01778  1.0000
  Cd  Cd3       1.0  0.09439  0.14900  0.51778  1.0000
  Cd  Cd4       1.0  0.40561  0.64900  0.98222  1.0000
  H   H1        1.0  0.18431  0.58457  0.67410  1.0000
  H   H2        1.0  0.31569  0.08457  0.82590  1.0000
  H   H3        1.0  0.81569  0.41543  0.32590  1.0000
  H   H4        1.0  0.68431  0.91543  0.17410  1.0000
  H   H5        1.0  0.72887  0.69608  0.76417  1.0000
  H   H6        1.0  0.77113  0.19608  0.73583  1.0000
  H   H7        1.0  0.27113  0.30392  0.23583  1.0000
  H   H8        1.0  0.22887  0.80391  0.26417  1.0000
  H   H9        1.0  0.99516  0.44358  0.91650  1.0000
  H   H10       1.0  0.50484  0.94358  0.58350  1.0000
  H   H11       1.0  0.00484  0.55642  0.08350  1.0000
  H   H12       1.0  0.49516  0.05642  0.41650  1.0000
  H   H13       1.0  0.35654  0.47996  0.82477  1.0000
  H   H14       1.0  0.14346  0.97996  0.67523  1.0000
  H   H15       1.0  0.64345  0.52004  0.17523  1.0000
  H   H16       1.0  0.85654  0.02004  0.32477  1.0000
  H   H17       1.0  0.23649  0.36067  0.85722  1.0000
  H   H18       1.0  0.26351  0.86067  0.64278  1.0000
  H   H19       1.0  0.76351  0.63933  0.14278  1.0000
  H   H20       1.0  0.73649  0.13933  0.35722  1.0000
  H   H21       1.0  0.58264  0.50666  0.73544  1.0000
  H   H22       1.0  0.91736  0.00666  0.76456  1.0000
  H   H23       1.0  0.41736  0.49334  0.26456  1.0000
  H   H24       1.0  0.08264  0.99334  0.23544  1.0000
  H   H25       1.0  0.77677  0.48744  0.61303  1.0000
  H   H26       1.0  0.72323  0.98744  0.88697  1.0000
  H   H27       1.0  0.22324  0.51256  0.38697  1.0000
  H   H28       1.0  0.27677  0.01256  0.11303  1.0000
  H   H29       1.0  0.72351  0.36266  0.48261  1.0000
  H   H30       1.0  0.77649  0.86266  0.01739  1.0000
  H   H31       1.0  0.27649  0.63734  0.51739  1.0000
  H   H32       1.0  0.22351  0.13734  0.98261  1.0000
  H   H33       1.0  0.46758  0.25300  0.46669  1.0000
  H   H34       1.0  0.03242  0.75300  0.03331  1.0000
  H   H35       1.0  0.53242  0.74700  0.53331  1.0000
  H   H36       1.0  0.96758  0.24700  0.96669  1.0000
  C   C1        1.0  0.10675  0.50504  0.79679  1.0000
  C   C2        1.0  0.39325  0.00504  0.70321  1.0000
  C   C3        1.0  0.89325  0.49496  0.20321  1.0000
  C   C4        1.0  0.60675  0.99496  0.29679  1.0000
  C   C5        1.0  0.09176  0.57979  0.72377  1.0000
  C   C6        1.0  0.40824  0.07979  0.77624  1.0000
  C   C7        1.0  0.90824  0.42021  0.27624  1.0000
  C   C8        1.0  0.59176  0.92021  0.22376  1.0000
  C   C9        1.0  0.95650  0.64873  0.71193  1.0000
  C   C10       1.0  0.54350  0.14873  0.78807  1.0000
  C   C11       1.0  0.04350  0.35127  0.28808  1.0000
  C   C12       1.0  0.45650  0.85127  0.21193  1.0000
  C   C13       1.0  0.83469  0.64306  0.77372  1.0000
  C   C14       1.0  0.66531  0.14306  0.72628  1.0000
  C   C15       1.0  0.16531  0.35694  0.22628  1.0000
  C   C16       1.0  0.33469  0.85694  0.27372  1.0000
  C   C17       1.0  0.84922  0.56903  0.84709  1.0000
  C   C18       1.0  0.65078  0.06903  0.65291  1.0000
  C   C19       1.0  0.15078  0.43097  0.15291  1.0000
  C   C20       1.0  0.34922  0.93097  0.34709  1.0000
  C   C21       1.0  0.98569  0.50072  0.85889  1.0000
  C   C22       1.0  0.51431  0.00072  0.64111  1.0000
  C   C23       1.0  0.01431  0.49928  0.14111  1.0000
  C   C24       1.0  0.48569  0.99928  0.35889  1.0000
  C   C25       1.0  0.25161  0.42826  0.80631  1.0000
  C   C26       1.0  0.24839  0.92826  0.69369  1.0000
  C   C27       1.0  0.74839  0.57174  0.19369  1.0000
  C   C28       1.0  0.75161  0.07174  0.30631  1.0000
  C   C29       1.0  0.38671  0.31514  0.59474  1.0000
  C   C30       1.0  0.11329  0.81514  0.90526  1.0000
  C   C31       1.0  0.61330  0.68486  0.40526  1.0000
  C   C32       1.0  0.88671  0.18486  0.09474  1.0000
  C   C33       1.0  0.41868  0.38650  0.66930  1.0000
  C   C34       1.0  0.08132  0.88650  0.83070  1.0000
  C   C35       1.0  0.58132  0.61350  0.33070  1.0000
  C   C36       1.0  0.91868  0.11350  0.16930  1.0000
  C   C37       1.0  0.55851  0.45172  0.67788  1.0000
  C   C38       1.0  0.94149  0.95172  0.82212  1.0000
  C   C39       1.0  0.44149  0.54828  0.32212  1.0000
  C   C40       1.0  0.05851  0.04828  0.17788  1.0000
  C   C41       1.0  0.66477  0.44039  0.60895  1.0000
  C   C42       1.0  0.83522  0.94038  0.89105  1.0000
  C   C43       1.0  0.33523  0.55962  0.39105  1.0000
  C   C44       1.0  0.16477  0.05961  0.10895  1.0000
  C   C45       1.0  0.63374  0.36930  0.53372  1.0000
  C   C46       1.0  0.86626  0.86930  0.96628  1.0000
  C   C47       1.0  0.36627  0.63070  0.46628  1.0000
  C   C48       1.0  0.13374  0.13070  0.03372  1.0000
  C   C49       1.0  0.49418  0.30637  0.52477  1.0000
  C   C50       1.0  0.00581  0.80637  0.97523  1.0000
  C   C51       1.0  0.50582  0.69363  0.47523  1.0000
  C   C52       1.0  0.99419  0.19363  0.02477  1.0000
  C   C53       1.0  0.93904  0.72492  0.63199  1.0000
  C   C54       1.0  0.56096  0.22492  0.86801  1.0000
  C   C55       1.0  0.06096  0.27508  0.36801  1.0000
  C   C56       1.0  0.43904  0.77508  0.13199  1.0000
  C   C57       1.0  0.71464  0.55835  0.90979  1.0000
  C   C58       1.0  0.78536  0.05835  0.59021  1.0000
  C   C59       1.0  0.28536  0.44165  0.09021  1.0000
  C   C60       1.0  0.21464  0.94165  0.40979  1.0000
  N   N1        1.0  0.28966  0.37086  0.72251  1.0000
  N   N2        1.0  0.21034  0.87086  0.77749  1.0000
  N   N3        1.0  0.71034  0.62914  0.27749  1.0000
  N   N4        1.0  0.78966  0.12914  0.22251  1.0000
  N   N5        1.0  0.18512  0.29674  0.68536  1.0000
  N   N6        1.0  0.31488  0.79674  0.81464  1.0000
  N   N7        1.0  0.81488  0.70326  0.31464  1.0000
  N   N8        1.0  0.68512  0.20326  0.18536  1.0000
  N   N9        1.0  0.24238  0.26283  0.60889  1.0000
  N   N10       1.0  0.25762  0.76283  0.89111  1.0000
  N   N11       1.0  0.75763  0.73717  0.39111  1.0000
  N   N12       1.0  0.74237  0.23717  0.10889  1.0000
  O   O1        1.0  0.05322  0.72983  0.57658  1.0000
  O   O2        1.0  0.44678  0.22983  0.92342  1.0000
  O   O3        1.0  0.94678  0.27017  0.42342  1.0000
  O   O4        1.0  0.55322  0.77017  0.07658  1.0000
  O   O5        1.0  0.81092  0.78179  0.62021  1.0000
  O   O6        1.0  0.68908  0.28179  0.87979  1.0000
  O   O7        1.0  0.18908  0.21821  0.37979  1.0000
  O   O8        1.0  0.31092  0.71821  0.12021  1.0000
  O   O9        1.0  0.57986  0.59437  0.88143  1.0000
  O   O10       1.0  0.92014  0.09437  0.61857  1.0000
  O   O11       1.0  0.42014  0.40563  0.11857  1.0000
  O   O12       1.0  0.07986  0.90563  0.38143  1.0000
  O   O13       1.0  0.73868  0.51357  0.98604  1.0000
  O   O14       1.0  0.76132  0.01357  0.51396  1.0000
  O   O15       1.0  0.26132  0.48643  0.01396  1.0000
  O   O16       1.0  0.23868  0.98643  0.48604  1.0000
