data_image0
_chemical_formula_structural       Cd2H36C36N8O12
_chemical_formula_sum              "Cd2 H36 C36 N8 O12"
_cell_length_a       9.82068
_cell_length_b       10.5719
_cell_length_c       11.1811
_cell_angle_alpha    73.2176
_cell_angle_beta     65.6911
_cell_angle_gamma    63.7526

_space_group_name_H-M_alt    "P 1"
_space_group_IT_number       1

loop_
  _space_group_symop_operation_xyz
  'x, y, z'

loop_
  _atom_site_type_symbol
  _atom_site_label
  _atom_site_symmetry_multiplicity
  _atom_site_fract_x
  _atom_site_fract_y
  _atom_site_fract_z
  _atom_site_occupancy
  Cd  Cd1       1.0  0.46867  0.17886  0.22069  1.0000
  Cd  Cd2       1.0  0.53133  0.82114  0.77931  1.0000
  H   H1        1.0  0.55574  0.12262  0.95440  1.0000
  H   H2        1.0  0.44425  0.87738  0.04559  1.0000
  H   H3        1.0  0.59531  0.99321  0.06416  1.0000
  H   H4        1.0  0.40469  0.00679  0.93584  1.0000
  H   H5        1.0  0.26070  0.44753  0.58541  1.0000
  H   H6        1.0  0.73931  0.55246  0.41459  1.0000
  H   H7        1.0  0.48566  0.63634  0.20271  1.0000
  H   H8        1.0  0.51434  0.36366  0.79730  1.0000
  H   H9        1.0  0.28967  0.85576  0.54063  1.0000
  H   H10       1.0  0.71033  0.14424  0.45937  1.0000
  H   H11       1.0  0.26165  0.57898  0.78204  1.0000
  H   H12       1.0  0.73835  0.42102  0.21796  1.0000
  H   H13       1.0  0.15578  0.76244  0.75181  1.0000
  H   H14       1.0  0.84423  0.23756  0.24819  1.0000
  H   H15       1.0  0.24008  0.34006  0.84860  1.0000
  H   H16       1.0  0.75991  0.65994  0.15139  1.0000
  H   H17       1.0  0.11486  0.16079  0.95950  1.0000
  H   H18       1.0  0.88513  0.83922  0.04050  1.0000
  H   H19       1.0  0.82232  0.22372  0.01581  1.0000
  H   H20       1.0  0.17767  0.77630  0.98419  1.0000
  H   H21       1.0  0.64463  0.46971  0.95513  1.0000
  H   H22       1.0  0.35537  0.53031  0.04487  1.0000
  H   H23       1.0  0.68647  0.89594  0.38485  1.0000
  H   H24       1.0  0.31353  0.10406  0.61515  1.0000
  H   H25       1.0  0.00468  0.01910  0.15900  1.0000
  H   H26       1.0  0.99532  0.98090  0.84100  1.0000
  H   H27       1.0  0.15474  0.85284  0.19202  1.0000
  H   H28       1.0  0.84525  0.14716  0.80798  1.0000
  H   H29       1.0  0.07253  0.98870  0.29432  1.0000
  H   H30       1.0  0.92747  0.01130  0.70569  1.0000
  H   H31       1.0  0.85985  0.72110  0.46514  1.0000
  H   H32       1.0  0.14015  0.27890  0.53486  1.0000
  H   H33       1.0  0.00837  0.76590  0.47790  1.0000
  H   H34       1.0  0.99162  0.23410  0.52210  1.0000
  H   H35       1.0  0.06149  0.66696  0.34981  1.0000
  H   H36       1.0  0.93850  0.33304  0.65019  1.0000
  C   C1        1.0  0.26308  0.65380  0.58031  1.0000
  C   C2        1.0  0.73693  0.34620  0.41970  1.0000
  C   C3        1.0  0.29528  0.53670  0.52467  1.0000
  C   C4        1.0  0.70472  0.46330  0.47533  1.0000
  C   C5        1.0  0.37501  0.53045  0.38901  1.0000
  C   C6        1.0  0.62499  0.46954  0.61099  1.0000
  C   C7        1.0  0.42341  0.64199  0.30836  1.0000
  C   C8        1.0  0.57660  0.35800  0.69164  1.0000
  C   C9        1.0  0.39260  0.75902  0.36311  1.0000
  C   C10       1.0  0.60740  0.24098  0.63689  1.0000
  C   C11       1.0  0.31149  0.76461  0.49911  1.0000
  C   C12       1.0  0.68852  0.23538  0.50089  1.0000
  C   C13       1.0  0.18239  0.65906  0.72740  1.0000
  C   C14       1.0  0.81762  0.34093  0.27260  1.0000
  C   C15       1.0  0.84369  0.54416  0.86634  1.0000
  C   C16       1.0  0.15632  0.45585  0.13366  1.0000
  C   C17       1.0  0.00979  0.50781  0.83795  1.0000
  C   C18       1.0  0.99021  0.49219  0.16204  1.0000
  C   C19       1.0  0.11191  0.36970  0.87009  1.0000
  C   C20       1.0  0.88808  0.63030  0.12991  1.0000
  C   C21       1.0  0.04013  0.26979  0.93266  1.0000
  C   C22       1.0  0.95986  0.73021  0.06733  1.0000
  C   C23       1.0  0.87325  0.30546  0.96367  1.0000
  C   C24       1.0  0.12674  0.69455  0.03633  1.0000
  C   C25       1.0  0.77259  0.44217  0.93137  1.0000
  C   C26       1.0  0.22741  0.55785  0.06863  1.0000
  C   C27       1.0  0.76960  0.95026  0.31839  1.0000
  C   C28       1.0  0.23040  0.04973  0.68161  1.0000
  C   C29       1.0  0.04502  0.93943  0.23723  1.0000
  C   C30       1.0  0.95498  0.06058  0.76277  1.0000
  C   C31       1.0  0.96466  0.75149  0.40863  1.0000
  C   C32       1.0  0.03534  0.24851  0.59137  1.0000
  C   C33       1.0  0.41128  0.40343  0.33107  1.0000
  C   C34       1.0  0.58872  0.59656  0.66893  1.0000
  C   C35       1.0  0.44858  0.87704  0.27824  1.0000
  C   C36       1.0  0.55142  0.12295  0.72175  1.0000
  N   N1        1.0  0.91988  0.88331  0.32129  1.0000
  N   N2        1.0  0.08011  0.11669  0.67872  1.0000
  N   N3        1.0  0.03330  0.63282  0.77921  1.0000
  N   N4        1.0  0.96671  0.36718  0.22079  1.0000
  N   N5        1.0  0.89481  0.73871  0.76975  1.0000
  N   N6        1.0  0.10519  0.26129  0.23024  1.0000
  N   N7        1.0  0.78029  0.68702  0.82183  1.0000
  N   N8        1.0  0.21972  0.31299  0.17817  1.0000
  O   O1        1.0  0.36047  0.30585  0.40607  1.0000
  O   O2        1.0  0.63953  0.69414  0.59393  1.0000
  O   O3        1.0  0.49251  0.39702  0.20804  1.0000
  O   O4        1.0  0.50750  0.60297  0.79197  1.0000
  O   O5        1.0  0.41129  0.98236  0.33413  1.0000
  O   O6        1.0  0.58871  0.01763  0.66586  1.0000
  O   O7        1.0  0.53229  0.86265  0.15645  1.0000
  O   O8        1.0  0.46772  0.13734  0.84355  1.0000
  O   O9        1.0  0.72480  0.06642  0.24677  1.0000
  O   O10       1.0  0.27520  0.93358  0.75323  1.0000
  O   O11       1.0  0.61107  0.08603  0.02159  1.0000
  O   O12       1.0  0.38893  0.91397  0.97841  1.0000
