data_image0
_chemical_formula_structural       Cd2H40C46Br6N8O12
_chemical_formula_sum              "Cd2 H40 C46 Br6 N8 O12"
_cell_length_a       10.0842
_cell_length_b       11.6556
_cell_length_c       13.695
_cell_angle_alpha    68.5804
_cell_angle_beta     70.4323
_cell_angle_gamma    70.3739

_space_group_name_H-M_alt    "P 1"
_space_group_IT_number       1

loop_
  _space_group_symop_operation_xyz
  'x, y, z'

loop_
  _atom_site_type_symbol
  _atom_site_label
  _atom_site_symmetry_multiplicity
  _atom_site_fract_x
  _atom_site_fract_y
  _atom_site_fract_z
  _atom_site_occupancy
  Cd  Cd1       1.0  0.41182  0.69206  0.57332  1.0000
  Cd  Cd2       1.0  0.58818  0.30794  0.42668  1.0000
  H   H1        1.0  0.78079  0.39181  0.13457  1.0000
  H   H2        1.0  0.21921  0.60819  0.86543  1.0000
  H   H3        1.0  0.33760  0.59268  0.42086  1.0000
  H   H4        1.0  0.66240  0.40732  0.57914  1.0000
  H   H5        1.0  0.76037  0.15185  0.24612  1.0000
  H   H6        1.0  0.23963  0.84815  0.75388  1.0000
  H   H7        1.0  0.13323  0.52793  0.67991  1.0000
  H   H8        1.0  0.86676  0.47208  0.32009  1.0000
  H   H9        1.0  0.50915  0.36393  0.89290  1.0000
  H   H10       1.0  0.49085  0.63606  0.10711  1.0000
  H   H11       1.0  0.77579  0.74027  0.58476  1.0000
  H   H12       1.0  0.22421  0.25973  0.41524  1.0000
  H   H13       1.0  0.81306  0.70030  0.46515  1.0000
  H   H14       1.0  0.18695  0.29970  0.53485  1.0000
  H   H15       1.0  0.06264  0.79866  0.69088  1.0000
  H   H16       1.0  0.93736  0.20134  0.30912  1.0000
  H   H17       1.0  0.89128  0.83031  0.66523  1.0000
  H   H18       1.0  0.10872  0.16968  0.33478  1.0000
  H   H19       1.0  0.00802  0.93346  0.58566  1.0000
  H   H20       1.0  0.99198  0.06654  0.41435  1.0000
  H   H21       1.0  0.59143  0.89592  0.65007  1.0000
  H   H22       1.0  0.40857  0.10408  0.34993  1.0000
  H   H23       1.0  0.68533  0.00385  0.64378  1.0000
  H   H24       1.0  0.31466  0.99614  0.35622  1.0000
  H   H25       1.0  0.51374  0.06210  0.61209  1.0000
  H   H26       1.0  0.48626  0.93790  0.38791  1.0000
  H   H27       1.0  0.20653  0.16205  0.00254  1.0000
  H   H28       1.0  0.79347  0.83795  0.99745  1.0000
  H   H29       1.0  0.12413  0.64531  0.27246  1.0000
  H   H30       1.0  0.87587  0.35469  0.72754  1.0000
  H   H31       1.0  0.99330  0.56985  0.37540  1.0000
  H   H32       1.0  0.00670  0.43015  0.62460  1.0000
  H   H33       1.0  0.18179  0.49468  0.36026  1.0000
  H   H34       1.0  0.81821  0.50532  0.63975  1.0000
  H   H35       1.0  0.02701  0.87940  0.23980  1.0000
  H   H36       1.0  0.97299  0.12060  0.76020  1.0000
  H   H37       1.0  0.88458  0.81858  0.24508  1.0000
  H   H38       1.0  0.11542  0.18142  0.75493  1.0000
  H   H39       1.0  0.89871  0.97490  0.16178  1.0000
  H   H40       1.0  0.10129  0.02509  0.83823  1.0000
  C   C1        1.0  0.48219  0.62975  0.95399  1.0000
  C   C2        1.0  0.51781  0.37024  0.04602  1.0000
  C   C3        1.0  0.68809  0.99498  0.48917  1.0000
  C   C4        1.0  0.31191  0.00502  0.51083  1.0000
  C   C5        1.0  0.47027  0.60990  0.77778  1.0000
  C   C6        1.0  0.52973  0.39010  0.22223  1.0000
  C   C7        1.0  0.28364  0.35800  0.74568  1.0000
  C   C8        1.0  0.71636  0.64201  0.25431  1.0000
  C   C9        1.0  0.48808  0.55490  0.89199  1.0000
  C   C10       1.0  0.51191  0.44510  0.10801  1.0000
  C   C11       1.0  0.78270  0.89763  0.44272  1.0000
  C   C12       1.0  0.21730  0.10237  0.55728  1.0000
  C   C13       1.0  0.15005  0.44717  0.75035  1.0000
  C   C14       1.0  0.84995  0.55284  0.24965  1.0000
  C   C15       1.0  0.99703  0.72285  0.49395  1.0000
  C   C16       1.0  0.00297  0.27714  0.50606  1.0000
  C   C17       1.0  0.03845  0.43534  0.84426  1.0000
  C   C18       1.0  0.96155  0.56467  0.15574  1.0000
  C   C19       1.0  0.40120  0.37443  0.64224  1.0000
  C   C20       1.0  0.59879  0.62558  0.35775  1.0000
  C   C21       1.0  0.50577  0.42382  0.93936  1.0000
  C   C22       1.0  0.49422  0.57617  0.06065  1.0000
  C   C23       1.0  0.06888  0.75499  0.54951  1.0000
  C   C24       1.0  0.93112  0.24501  0.45050  1.0000
  C   C25       1.0  0.81851  0.95642  0.33130  1.0000
  C   C26       1.0  0.18150  0.04358  0.66870  1.0000
  C   C27       1.0  0.10614  0.64750  0.43248  1.0000
  C   C28       1.0  0.89386  0.35250  0.56752  1.0000
  C   C29       1.0  0.05729  0.33150  0.93616  1.0000
  C   C30       1.0  0.94271  0.66850  0.06384  1.0000
  C   C31       1.0  0.83728  0.76047  0.49974  1.0000
  C   C32       1.0  0.16273  0.23953  0.50026  1.0000
  C   C33       1.0  0.00490  0.83337  0.62667  1.0000
  C   C34       1.0  0.99510  0.16662  0.37333  1.0000
  C   C35       1.0  0.61590  0.98866  0.60469  1.0000
  C   C36       1.0  0.38410  0.01134  0.39531  1.0000
  C   C37       1.0  0.19184  0.24221  0.93120  1.0000
  C   C38       1.0  0.80816  0.75780  0.06880  1.0000
  C   C39       1.0  0.30354  0.25642  0.83815  1.0000
  C   C40       1.0  0.69646  0.74358  0.16184  1.0000
  C   C41       1.0  0.94562  0.30786  0.04104  1.0000
  C   C42       1.0  0.05438  0.69214  0.95895  1.0000
  C   C43       1.0  0.10119  0.58584  0.35669  1.0000
  C   C44       1.0  0.89881  0.41415  0.64332  1.0000
  C   C45       1.0  0.91181  0.90486  0.23935  1.0000
  C   C46       1.0  0.08819  0.09514  0.76066  1.0000
  Br  Br1       1.0  0.86265  0.56324  0.83611  1.0000
  Br  Br2       1.0  0.13735  0.43676  0.16389  1.0000
  Br  Br3       1.0  0.45960  0.80859  0.89315  1.0000
  Br  Br4       1.0  0.54041  0.19140  0.10685  1.0000
  Br  Br5       1.0  0.48701  0.13651  0.83882  1.0000
  Br  Br6       1.0  0.51300  0.86350  0.16116  1.0000
  N   N1        1.0  0.66797  0.10611  0.41103  1.0000
  N   N2        1.0  0.33203  0.89389  0.58897  1.0000
  N   N3        1.0  0.21271  0.70154  0.52356  1.0000
  N   N4        1.0  0.78729  0.29846  0.47644  1.0000
  N   N5        1.0  0.23225  0.63695  0.45323  1.0000
  N   N6        1.0  0.76776  0.36305  0.54677  1.0000
  N   N7        1.0  0.74757  0.08027  0.31659  1.0000
  N   N8        1.0  0.25243  0.91973  0.68341  1.0000
  O   O1        1.0  0.34043  0.63464  0.76648  1.0000
  O   O2        1.0  0.65957  0.36535  0.23352  1.0000
  O   O3        1.0  0.41305  0.30982  0.58097  1.0000
  O   O4        1.0  0.58695  0.69018  0.41903  1.0000
  O   O5        1.0  0.57647  0.62717  0.69858  1.0000
  O   O6        1.0  0.42352  0.37283  0.30142  1.0000
  O   O7        1.0  0.47711  0.45037  0.62487  1.0000
  O   O8        1.0  0.52289  0.54964  0.37512  1.0000
  O   O9        1.0  0.86021  0.41316  0.06452  1.0000
  O   O10       1.0  0.13979  0.58683  0.93548  1.0000
  O   O11       1.0  0.93843  0.19923  0.09945  1.0000
  O   O12       1.0  0.06158  0.80077  0.90054  1.0000
