data_image0
_chemical_formula_structural       Cd2H16C8Br4N16
_chemical_formula_sum              "Cd2 H16 C8 Br4 N16"
_cell_length_a       3.94505
_cell_length_b       8.38534
_cell_length_c       17.078
_cell_angle_alpha    90.0001
_cell_angle_beta     92.3816
_cell_angle_gamma    90.0004

_space_group_name_H-M_alt    "P 1"
_space_group_IT_number       1

loop_
  _space_group_symop_operation_xyz
  'x, y, z'

loop_
  _atom_site_type_symbol
  _atom_site_label
  _atom_site_symmetry_multiplicity
  _atom_site_fract_x
  _atom_site_fract_y
  _atom_site_fract_z
  _atom_site_occupancy
  Cd  Cd1       1.0  0.50001  0.00000  1.00000  1.0000
  Cd  Cd2       1.0  0.00000  0.50000  0.50000  1.0000
  H   H1        1.0  0.23495  0.79413  0.34928  1.0000
  H   H2        1.0  0.26508  0.29413  0.15072  1.0000
  H   H3        1.0  0.76505  0.20587  0.65072  1.0000
  H   H4        1.0  0.73494  0.70587  0.84928  1.0000
  H   H5        1.0  0.96616  0.76553  0.26662  1.0000
  H   H6        1.0  0.53384  0.26553  0.23338  1.0000
  H   H7        1.0  0.03385  0.23447  0.73339  1.0000
  H   H8        1.0  0.46615  0.73447  0.76662  1.0000
  H   H9        1.0  0.26378  0.04335  0.41024  1.0000
  H   H10       1.0  0.23624  0.54336  0.08976  1.0000
  H   H11       1.0  0.73622  0.95665  0.58976  1.0000
  H   H12       1.0  0.76377  0.45664  0.91024  1.0000
  H   H13       1.0  0.05388  0.20660  0.36668  1.0000
  H   H14       1.0  0.44611  0.70658  0.13332  1.0000
  H   H15       1.0  0.94612  0.79341  0.63331  1.0000
  H   H16       1.0  0.55387  0.29340  0.86668  1.0000
  C   C1        1.0  0.67482  0.98829  0.19051  1.0000
  C   C2        1.0  0.82518  0.48830  0.30949  1.0000
  C   C3        1.0  0.32517  0.01171  0.80949  1.0000
  C   C4        1.0  0.17483  0.51171  0.69051  1.0000
  C   C5        1.0  0.99923  0.99507  0.30704  1.0000
  C   C6        1.0  0.50075  0.49507  0.19295  1.0000
  C   C7        1.0  0.00077  0.00493  0.69296  1.0000
  C   C8        1.0  0.49924  0.50493  0.80704  1.0000
  Br  Br1       1.0  0.00770  0.23254  0.02645  1.0000
  Br  Br2       1.0  0.49230  0.73254  0.47354  1.0000
  Br  Br3       1.0  0.99230  0.76747  0.97354  1.0000
  Br  Br4       1.0  0.50771  0.26747  0.52646  1.0000
  N   N1        1.0  0.54229  0.93435  0.13274  1.0000
  N   N2        1.0  0.95771  0.43434  0.36726  1.0000
  N   N3        1.0  0.45772  0.06565  0.86726  1.0000
  N   N4        1.0  0.04229  0.56566  0.63274  1.0000
  N   N5        1.0  0.78902  0.06281  0.25185  1.0000
  N   N6        1.0  0.71095  0.56278  0.24815  1.0000
  N   N7        1.0  0.21097  0.93719  0.74815  1.0000
  N   N8        1.0  0.28903  0.43720  0.75185  1.0000
  N   N9        1.0  0.09843  0.84290  0.30286  1.0000
  N   N10       1.0  0.40159  0.34290  0.19714  1.0000
  N   N11       1.0  0.90157  0.15710  0.69714  1.0000
  N   N12       1.0  0.59842  0.65710  0.80286  1.0000
  N   N13       1.0  0.10914  0.08714  0.36640  1.0000
  N   N14       1.0  0.39087  0.58714  0.13361  1.0000
  N   N15       1.0  0.89086  0.91287  0.63360  1.0000
  N   N16       1.0  0.60912  0.41286  0.86640  1.0000
