data_image0
_chemical_formula_structural       Cu4H36C20N20O12
_chemical_formula_sum              "Cu4 H36 C20 N20 O12"
_cell_length_a       7.3997
_cell_length_b       9.75111
_cell_length_c       12.7649
_cell_angle_alpha    81.1807
_cell_angle_beta     73.1771
_cell_angle_gamma    67.7018

_space_group_name_H-M_alt    "P 1"
_space_group_IT_number       1

loop_
  _space_group_symop_operation_xyz
  'x, y, z'

loop_
  _atom_site_type_symbol
  _atom_site_label
  _atom_site_symmetry_multiplicity
  _atom_site_fract_x
  _atom_site_fract_y
  _atom_site_fract_z
  _atom_site_occupancy
  Cu  Cu1       1.0  0.49276  0.57554  0.84857  1.0000
  Cu  Cu2       1.0  0.91717  0.92434  0.65141  1.0000
  Cu  Cu3       1.0  0.50724  0.42447  0.15143  1.0000
  Cu  Cu4       1.0  0.08282  0.07566  0.34859  1.0000
  H   H1        1.0  0.45671  0.34005  0.77371  1.0000
  H   H2        1.0  0.57094  0.15929  0.72632  1.0000
  H   H3        1.0  0.54327  0.65998  0.22630  1.0000
  H   H4        1.0  0.42905  0.84074  0.27369  1.0000
  H   H5        1.0  0.30851  0.32322  0.88565  1.0000
  H   H6        1.0  0.51680  0.17690  0.61453  1.0000
  H   H7        1.0  0.69149  0.67677  0.11435  1.0000
  H   H8        1.0  0.48321  0.82309  0.38547  1.0000
  H   H9        1.0  0.68713  0.66811  0.68093  1.0000
  H   H10       1.0  0.03642  0.83184  0.81906  1.0000
  H   H11       1.0  0.31287  0.33190  0.31906  1.0000
  H   H12       1.0  0.96358  0.16816  0.18094  1.0000
  H   H13       1.0  0.15589  0.38422  0.70808  1.0000
  H   H14       1.0  0.24841  0.11566  0.79200  1.0000
  H   H15       1.0  0.84411  0.61578  0.29192  1.0000
  H   H16       1.0  0.75159  0.88434  0.20800  1.0000
  H   H17       1.0  0.00815  0.57351  0.72475  1.0000
  H   H18       1.0  0.30666  0.92632  0.77534  1.0000
  H   H19       1.0  0.99185  0.42649  0.27525  1.0000
  H   H20       1.0  0.69333  0.07368  0.22466  1.0000
  H   H21       1.0  0.95252  0.46305  0.57800  1.0000
  H   H22       1.0  0.99391  0.03685  0.92213  1.0000
  H   H23       1.0  0.04748  0.53695  0.42200  1.0000
  H   H24       1.0  0.00609  0.96315  0.07787  1.0000
  H   H25       1.0  0.85804  0.34107  0.67562  1.0000
  H   H26       1.0  0.87521  0.15885  0.82444  1.0000
  H   H27       1.0  0.14197  0.65893  0.32438  1.0000
  H   H28       1.0  0.12479  0.84115  0.17556  1.0000
  H   H29       1.0  0.57338  0.44759  0.60531  1.0000
  H   H30       1.0  0.62662  0.05245  0.89457  1.0000
  H   H31       1.0  0.42663  0.55240  0.39469  1.0000
  H   H32       1.0  0.37338  0.94755  0.10543  1.0000
  H   H33       1.0  0.60772  0.60953  0.53225  1.0000
  H   H34       1.0  0.74992  0.89066  0.96776  1.0000
  H   H35       1.0  0.39228  0.39047  0.46775  1.0000
  H   H36       1.0  0.25008  0.10933  0.03224  1.0000
  C   C1        1.0  0.92417  0.42577  0.85422  1.0000
  C   C2        1.0  0.20417  0.07417  0.64589  1.0000
  C   C3        1.0  0.07583  0.57422  0.14578  1.0000
  C   C4        1.0  0.79584  0.92583  0.35410  1.0000
  C   C5        1.0  0.00057  0.46154  0.73628  1.0000
  C   C6        1.0  0.19860  0.03829  0.76383  1.0000
  C   C7        1.0  0.99944  0.53846  0.26372  1.0000
  C   C8        1.0  0.80139  0.96171  0.23617  1.0000
  C   C9        1.0  0.87498  0.45001  0.66474  1.0000
  C   C10       1.0  0.99009  0.04985  0.83535  1.0000
  C   C11       1.0  0.12503  0.54999  0.33526  1.0000
  C   C12       1.0  0.00990  0.95015  0.16465  1.0000
  C   C13       1.0  0.55469  0.56326  0.61439  1.0000
  C   C14       1.0  0.73266  0.93678  0.88561  1.0000
  C   C15       1.0  0.44531  0.43674  0.38561  1.0000
  C   C16       1.0  0.26734  0.06322  0.11439  1.0000
  C   C17       1.0  0.33384  0.65107  0.66154  1.0000
  C   C18       1.0  0.64689  0.84884  0.83846  1.0000
  C   C19       1.0  0.66615  0.34893  0.33846  1.0000
  C   C20       1.0  0.35310  0.15116  0.16155  1.0000
  N   N1        1.0  0.73289  0.40444  0.01316  1.0000
  N   N2        1.0  0.15062  0.09534  0.48689  1.0000
  N   N3        1.0  0.26711  0.59555  0.98684  1.0000
  N   N4        1.0  0.84938  0.90466  0.51311  1.0000
  N   N5        1.0  0.92073  0.33444  0.01892  1.0000
  N   N6        1.0  0.27415  0.16538  0.48119  1.0000
  N   N7        1.0  0.07927  0.66556  0.98108  1.0000
  N   N8        1.0  0.72584  0.83462  0.51881  1.0000
  N   N9        1.0  0.04346  0.34617  0.92041  1.0000
  N   N10       1.0  0.31002  0.15375  0.57974  1.0000
  N   N11       1.0  0.95654  0.65383  0.07959  1.0000
  N   N12       1.0  0.68998  0.84625  0.42026  1.0000
  N   N13       1.0  0.67261  0.56480  0.68896  1.0000
  N   N14       1.0  0.92663  0.93517  0.81106  1.0000
  N   N15       1.0  0.32739  0.43520  0.31104  1.0000
  N   N16       1.0  0.07337  0.06483  0.18894  1.0000
  N   N17       1.0  0.72929  0.46332  0.91056  1.0000
  N   N18       1.0  0.10323  0.03660  0.58950  1.0000
  N   N19       1.0  0.27071  0.53668  0.08944  1.0000
  N   N20       1.0  0.89677  0.96340  0.41050  1.0000
  O   O1        1.0  0.21137  0.69580  0.60340  1.0000
  O   O2        1.0  0.51115  0.80400  0.89651  1.0000
  O   O3        1.0  0.78864  0.30420  0.39660  1.0000
  O   O4        1.0  0.48886  0.19599  0.10349  1.0000
  O   O5        1.0  0.28315  0.67291  0.76577  1.0000
  O   O6        1.0  0.72218  0.82704  0.73422  1.0000
  O   O7        1.0  0.71685  0.32709  0.23423  1.0000
  O   O8        1.0  0.27781  0.17296  0.26578  1.0000
  O   O9        1.0  0.45285  0.31128  0.85083  1.0000
  O   O10       1.0  0.61443  0.18895  0.64933  1.0000
  O   O11       1.0  0.54715  0.68871  0.14917  1.0000
  O   O12       1.0  0.38558  0.81104  0.35067  1.0000
