data_image0
_chemical_formula_structural       Cd4H36C20N20O12
_chemical_formula_sum              "Cd4 H36 C20 N20 O12"
_cell_length_a       7.53217
_cell_length_b       9.95035
_cell_length_c       13.1714
_cell_angle_alpha    74.579
_cell_angle_beta     73.3984
_cell_angle_gamma    67.7648

_space_group_name_H-M_alt    "P 1"
_space_group_IT_number       1

loop_
  _space_group_symop_operation_xyz
  'x, y, z'

loop_
  _atom_site_type_symbol
  _atom_site_label
  _atom_site_symmetry_multiplicity
  _atom_site_fract_x
  _atom_site_fract_y
  _atom_site_fract_z
  _atom_site_occupancy
  Cd  Cd1       1.0  0.46082  0.58074  0.85199  1.0000
  Cd  Cd2       1.0  0.89362  0.91920  0.64793  1.0000
  Cd  Cd3       1.0  0.53918  0.41926  0.14801  1.0000
  Cd  Cd4       1.0  0.10638  0.08080  0.35207  1.0000
  H   H1        1.0  0.12098  0.38998  0.68118  1.0000
  H   H2        1.0  0.19199  0.10996  0.81908  1.0000
  H   H3        1.0  0.87902  0.61002  0.31882  1.0000
  H   H4        1.0  0.80800  0.89004  0.18092  1.0000
  H   H5        1.0  0.98009  0.57563  0.68794  1.0000
  H   H6        1.0  0.24380  0.92430  0.81227  1.0000
  H   H7        1.0  0.01991  0.42437  0.31206  1.0000
  H   H8        1.0  0.75620  0.07570  0.18773  1.0000
  H   H9        1.0  0.89387  0.45189  0.57147  1.0000
  H   H10       1.0  0.91743  0.04766  0.92871  1.0000
  H   H11       1.0  0.10613  0.54811  0.42853  1.0000
  H   H12       1.0  0.08257  0.95234  0.07129  1.0000
  H   H13       1.0  0.80052  0.34323  0.68935  1.0000
  H   H14       1.0  0.83321  0.15657  0.81087  1.0000
  H   H15       1.0  0.19948  0.65677  0.31064  1.0000
  H   H16       1.0  0.16679  0.84343  0.18913  1.0000
  H   H17       1.0  0.49774  0.45232  0.62940  1.0000
  H   H18       1.0  0.57960  0.04777  0.87048  1.0000
  H   H19       1.0  0.50225  0.54768  0.37060  1.0000
  H   H20       1.0  0.42040  0.95223  0.12952  1.0000
  H   H21       1.0  0.55671  0.59378  0.52490  1.0000
  H   H22       1.0  0.67539  0.90625  0.97502  1.0000
  H   H23       1.0  0.44329  0.40622  0.47510  1.0000
  H   H24       1.0  0.32461  0.09375  0.02498  1.0000
  H   H25       1.0  0.48576  0.28397  0.94184  1.0000
  H   H26       1.0  0.71179  0.21599  0.55819  1.0000
  H   H27       1.0  0.51424  0.71603  0.05816  1.0000
  H   H28       1.0  0.28821  0.78401  0.44181  1.0000
  H   H29       1.0  0.32658  0.33310  0.87064  1.0000
  H   H30       1.0  0.53062  0.16687  0.62951  1.0000
  H   H31       1.0  0.67342  0.66690  0.12936  1.0000
  H   H32       1.0  0.46938  0.83313  0.37049  1.0000
  H   H33       1.0  0.66018  0.66799  0.64643  1.0000
  H   H34       1.0  0.97453  0.83183  0.85355  1.0000
  H   H35       1.0  0.33982  0.33201  0.35357  1.0000
  H   H36       1.0  0.02547  0.16817  0.14644  1.0000
  C   C1        1.0  0.93725  0.42309  0.83233  1.0000
  C   C2        1.0  0.19278  0.07684  0.66785  1.0000
  C   C3        1.0  0.06275  0.57691  0.16767  1.0000
  C   C4        1.0  0.80722  0.92316  0.33215  1.0000
  C   C5        1.0  0.97420  0.46241  0.71250  1.0000
  C   C6        1.0  0.14915  0.03748  0.78770  1.0000
  C   C7        1.0  0.02580  0.53759  0.28749  1.0000
  C   C8        1.0  0.85085  0.96252  0.21230  1.0000
  C   C9        1.0  0.82794  0.44914  0.65824  1.0000
  C   C10       1.0  0.93545  0.05061  0.84190  1.0000
  C   C11       1.0  0.17206  0.55086  0.34176  1.0000
  C   C12       1.0  0.06455  0.94939  0.15810  1.0000
  C   C13       1.0  0.50444  0.56517  0.61225  1.0000
  C   C14       1.0  0.68186  0.93488  0.88766  1.0000
  C   C15       1.0  0.49556  0.43483  0.38775  1.0000
  C   C16       1.0  0.31814  0.06512  0.11234  1.0000
  C   C17       1.0  0.29610  0.66858  0.64484  1.0000
  C   C18       1.0  0.60956  0.83148  0.85504  1.0000
  C   C19       1.0  0.70390  0.33142  0.35516  1.0000
  C   C20       1.0  0.39045  0.16852  0.14496  1.0000
  N   N1        1.0  0.76146  0.45797  0.89939  1.0000
  N   N2        1.0  0.11894  0.04200  0.60075  1.0000
  N   N3        1.0  0.23854  0.54203  0.10061  1.0000
  N   N4        1.0  0.88106  0.95800  0.39925  1.0000
  N   N5        1.0  0.79600  0.40087  0.99914  1.0000
  N   N6        1.0  0.19610  0.09915  0.50101  1.0000
  N   N7        1.0  0.20400  0.59913  0.00085  1.0000
  N   N8        1.0  0.80390  0.90085  0.49899  1.0000
  N   N9        1.0  0.98477  0.33403  0.99441  1.0000
  N   N10       1.0  0.31325  0.16602  0.50582  1.0000
  N   N11       1.0  0.01523  0.66597  0.00559  1.0000
  N   N12       1.0  0.68675  0.83398  0.49418  1.0000
  N   N13       1.0  0.07740  0.34606  0.89032  1.0000
  N   N14       1.0  0.31384  0.15394  0.60993  1.0000
  N   N15       1.0  0.92260  0.65394  0.10968  1.0000
  N   N16       1.0  0.68616  0.84606  0.39007  1.0000
  N   N17       1.0  0.63737  0.56774  0.67337  1.0000
  N   N18       1.0  0.87853  0.93215  0.82660  1.0000
  N   N19       1.0  0.36263  0.43226  0.32663  1.0000
  N   N20       1.0  0.12146  0.06785  0.17340  1.0000
  O   O1        1.0  0.23457  0.69512  0.74014  1.0000
  O   O2        1.0  0.66988  0.80488  0.75976  1.0000
  O   O3        1.0  0.76543  0.30488  0.25986  1.0000
  O   O4        1.0  0.33012  0.19512  0.24025  1.0000
  O   O5        1.0  0.18877  0.72093  0.57483  1.0000
  O   O6        1.0  0.48468  0.77906  0.92505  1.0000
  O   O7        1.0  0.81123  0.27907  0.42517  1.0000
  O   O8        1.0  0.51532  0.22094  0.07495  1.0000
  O   O9        1.0  0.46113  0.33210  0.86829  1.0000
  O   O10       1.0  0.66190  0.16779  0.63175  1.0000
  O   O11       1.0  0.53887  0.66790  0.13171  1.0000
  O   O12       1.0  0.33810  0.83221  0.36825  1.0000
