data_image0
_chemical_formula_structural       Zn2H38C50S2N10O4
_chemical_formula_sum              "Zn2 H38 C50 S2 N10 O4"
_cell_length_a       8.69036
_cell_length_b       9.03145
_cell_length_c       16.1413
_cell_angle_alpha    77.531
_cell_angle_beta     88.834
_cell_angle_gamma    64.4987

_space_group_name_H-M_alt    "P 1"
_space_group_IT_number       1

loop_
  _space_group_symop_operation_xyz
  'x, y, z'

loop_
  _atom_site_type_symbol
  _atom_site_label
  _atom_site_symmetry_multiplicity
  _atom_site_fract_x
  _atom_site_fract_y
  _atom_site_fract_z
  _atom_site_occupancy
  Zn  Zn1       1.0  0.96914  0.09865  0.08932  1.0000
  Zn  Zn2       1.0  0.03086  0.90135  0.91069  1.0000
  H   H1        1.0  0.62865  0.77139  0.03507  1.0000
  H   H2        1.0  0.37137  0.22861  0.96494  1.0000
  H   H3        1.0  0.53849  0.92518  0.09880  1.0000
  H   H4        1.0  0.46152  0.07481  0.90121  1.0000
  H   H5        1.0  0.72019  0.73363  0.14041  1.0000
  H   H6        1.0  0.27983  0.26636  0.85960  1.0000
  H   H7        1.0  0.98377  0.75449  0.19455  1.0000
  H   H8        1.0  0.01623  0.24552  0.80545  1.0000
  H   H9        1.0  0.16980  0.51645  0.31187  1.0000
  H   H10       1.0  0.83020  0.48355  0.68812  1.0000
  H   H11       1.0  0.52238  0.74125  0.29048  1.0000
  H   H12       1.0  0.47761  0.25875  0.70952  1.0000
  H   H13       1.0  0.31518  0.97766  0.17836  1.0000
  H   H14       1.0  0.68482  0.02234  0.82164  1.0000
  H   H15       1.0  0.58570  0.48673  0.40510  1.0000
  H   H16       1.0  0.41430  0.51327  0.59490  1.0000
  H   H17       1.0  0.18367  0.35213  0.49732  1.0000
  H   H18       1.0  0.81633  0.64787  0.50268  1.0000
  H   H19       1.0  0.03464  0.24834  0.61230  1.0000
  H   H20       1.0  0.96536  0.75166  0.38770  1.0000
  H   H21       1.0  0.20291  0.01104  0.73414  1.0000
  H   H22       1.0  0.79709  0.98896  0.26586  1.0000
  H   H23       1.0  0.78947  0.84550  0.67381  1.0000
  H   H24       1.0  0.21053  0.15450  0.32619  1.0000
  H   H25       1.0  0.93701  0.95800  0.56348  1.0000
  H   H26       1.0  0.06299  0.04200  0.43652  1.0000
  H   H27       1.0  0.76911  0.20282  0.44358  1.0000
  H   H28       1.0  0.23089  0.79719  0.55642  1.0000
  H   H29       1.0  0.37760  0.72766  0.76537  1.0000
  H   H30       1.0  0.62240  0.27233  0.23463  1.0000
  H   H31       1.0  0.42456  0.47314  0.86921  1.0000
  H   H32       1.0  0.57545  0.52685  0.13079  1.0000
  H   H33       1.0  0.61384  0.22701  0.98392  1.0000
  H   H34       1.0  0.38617  0.77299  0.01608  1.0000
  H   H35       1.0  0.96968  0.41444  0.98587  1.0000
  H   H36       1.0  0.03032  0.58557  0.01413  1.0000
  H   H37       1.0  0.79496  0.67285  0.87295  1.0000
  H   H38       1.0  0.20504  0.32715  0.12706  1.0000
  C   C1        1.0  0.90637  0.33329  0.21953  1.0000
  C   C2        1.0  0.09362  0.66673  0.78048  1.0000
  C   C3        1.0  0.65682  0.83012  0.08159  1.0000
  C   C4        1.0  0.34319  0.16988  0.91842  1.0000
  C   C5        1.0  0.77234  0.91023  0.04677  1.0000
  C   C6        1.0  0.22767  0.08977  0.95324  1.0000
  C   C7        1.0  0.10358  0.74780  0.21799  1.0000
  C   C8        1.0  0.89641  0.25220  0.78200  1.0000
  C   C9        1.0  0.20716  0.61570  0.28338  1.0000
  C   C10       1.0  0.79283  0.38430  0.71661  1.0000
  C   C11       1.0  0.36041  0.61155  0.31247  1.0000
  C   C12       1.0  0.63959  0.38845  0.68753  1.0000
  C   C13       1.0  0.40295  0.74093  0.27192  1.0000
  C   C14       1.0  0.59705  0.25907  0.72807  1.0000
  C   C15       1.0  0.28969  0.87105  0.20820  1.0000
  C   C16       1.0  0.71031  0.12896  0.79180  1.0000
  C   C17       1.0  0.46951  0.47947  0.38440  1.0000
  C   C18       1.0  0.53049  0.52053  0.61560  1.0000
  C   C19       1.0  0.52553  0.23364  0.48885  1.0000
  C   C20       1.0  0.47447  0.76636  0.51114  1.0000
  C   C21       1.0  0.43688  0.17071  0.55258  1.0000
  C   C22       1.0  0.56313  0.82928  0.44742  1.0000
  C   C23       1.0  0.25599  0.24718  0.55042  1.0000
  C   C24       1.0  0.74401  0.75281  0.44958  1.0000
  C   C25       1.0  0.17390  0.18853  0.61421  1.0000
  C   C26       1.0  0.82611  0.81147  0.38579  1.0000
  C   C27       1.0  0.26814  0.05197  0.68219  1.0000
  C   C28       1.0  0.73186  0.94802  0.31781  1.0000
  C   C29       1.0  0.44613  0.97163  0.68592  1.0000
  C   C30       1.0  0.55387  0.02837  0.31408  1.0000
  C   C31       1.0  0.53502  0.03025  0.62068  1.0000
  C   C32       1.0  0.46498  0.96974  0.37932  1.0000
  C   C33       1.0  0.71579  0.95435  0.62277  1.0000
  C   C34       1.0  0.28421  0.04565  0.37723  1.0000
  C   C35       1.0  0.79763  0.01778  0.56077  1.0000
  C   C36       1.0  0.20237  0.98222  0.43923  1.0000
  C   C37       1.0  0.70368  0.15700  0.49388  1.0000
  C   C38       1.0  0.29632  0.84300  0.50612  1.0000
  C   C39       1.0  0.49422  0.72992  0.78944  1.0000
  C   C40       1.0  0.50579  0.27008  0.21056  1.0000
  C   C41       1.0  0.59534  0.59279  0.86123  1.0000
  C   C42       1.0  0.40467  0.40721  0.13877  1.0000
  C   C43       1.0  0.54375  0.46596  0.89415  1.0000
  C   C44       1.0  0.45626  0.53403  0.10585  1.0000
  C   C45       1.0  0.64863  0.32861  0.95743  1.0000
  C   C46       1.0  0.35138  0.67138  0.04257  1.0000
  C   C47       1.0  0.84645  0.43520  0.95879  1.0000
  C   C48       1.0  0.15355  0.56480  0.04121  1.0000
  C   C49       1.0  0.74983  0.57729  0.89630  1.0000
  C   C50       1.0  0.25018  0.42271  0.10370  1.0000
  S   S1        1.0  0.86777  0.45251  0.28621  1.0000
  S   S2        1.0  0.13222  0.54750  0.71380  1.0000
  N   N1        1.0  0.93371  0.24618  0.17015  1.0000
  N   N2        1.0  0.06629  0.75382  0.82985  1.0000
  N   N3        1.0  0.14212  0.87529  0.18098  1.0000
  N   N4        1.0  0.85788  0.12471  0.81902  1.0000
  N   N5        1.0  0.42500  0.36474  0.42173  1.0000
  N   N6        1.0  0.57499  0.63526  0.57827  1.0000
  N   N7        1.0  0.54491  0.84127  0.75413  1.0000
  N   N8        1.0  0.45510  0.15872  0.24587  1.0000
  N   N9        1.0  0.79900  0.31089  0.98881  1.0000
  N   N10       1.0  0.20101  0.68910  0.01119  1.0000
  O   O1        1.0  0.82790  0.89061  0.97446  1.0000
  O   O2        1.0  0.17211  0.10940  0.02554  1.0000
  O   O3        1.0  0.80522  0.99216  0.09334  1.0000
  O   O4        1.0  0.19478  0.00785  0.90667  1.0000
