data_image0
_chemical_formula_structural       Zn2H16C20N12O8
_chemical_formula_sum              "Zn2 H16 C20 N12 O8"
_cell_length_a       7.91523
_cell_length_b       7.91521
_cell_length_c       10.5994
_cell_angle_alpha    89.116
_cell_angle_beta     89.1166
_cell_angle_gamma    73.9483

_space_group_name_H-M_alt    "P 1"
_space_group_IT_number       1

loop_
  _space_group_symop_operation_xyz
  'x, y, z'

loop_
  _atom_site_type_symbol
  _atom_site_label
  _atom_site_symmetry_multiplicity
  _atom_site_fract_x
  _atom_site_fract_y
  _atom_site_fract_z
  _atom_site_occupancy
  Zn  Zn1       1.0  0.38431  0.61569  0.25000  1.0000
  Zn  Zn2       1.0  0.61569  0.38431  0.75000  1.0000
  H   H1        1.0  0.26407  0.81866  0.62571  1.0000
  H   H2        1.0  0.18134  0.73593  0.87429  1.0000
  H   H3        1.0  0.73592  0.18135  0.37429  1.0000
  H   H4        1.0  0.81866  0.26407  0.12571  1.0000
  H   H5        1.0  0.39759  0.73513  0.49681  1.0000
  H   H6        1.0  0.26487  0.60241  0.00319  1.0000
  H   H7        1.0  0.60241  0.26486  0.50319  1.0000
  H   H8        1.0  0.73514  0.39759  0.99681  1.0000
  H   H9        1.0  0.72112  0.77967  0.54481  1.0000
  H   H10       1.0  0.22033  0.27888  0.95519  1.0000
  H   H11       1.0  0.27887  0.22035  0.45519  1.0000
  H   H12       1.0  0.77968  0.72112  0.04481  1.0000
  H   H13       1.0  0.04000  0.57226  0.21957  1.0000
  H   H14       1.0  0.42774  0.95998  0.28043  1.0000
  H   H15       1.0  0.95999  0.42774  0.78043  1.0000
  H   H16       1.0  0.57226  0.04001  0.71957  1.0000
  C   C1        1.0  0.71052  0.62198  0.30992  1.0000
  C   C2        1.0  0.37803  0.28947  0.19007  1.0000
  C   C3        1.0  0.28947  0.37803  0.69008  1.0000
  C   C4        1.0  0.62197  0.71052  0.80993  1.0000
  C   C5        1.0  0.85719  0.66813  0.37266  1.0000
  C   C6        1.0  0.33188  0.14280  0.12734  1.0000
  C   C7        1.0  0.14280  0.33187  0.62734  1.0000
  C   C8        1.0  0.66812  0.85720  0.87267  1.0000
  C   C9        1.0  0.84507  0.74804  0.49147  1.0000
  C   C10       1.0  0.25196  0.15493  0.00852  1.0000
  C   C11       1.0  0.15492  0.25196  0.50852  1.0000
  C   C12       1.0  0.74805  0.84507  0.99148  1.0000
  C   C13       1.0  0.13595  0.74401  0.48129  1.0000
  C   C14       1.0  0.25599  0.86404  0.01870  1.0000
  C   C15       1.0  0.86404  0.25599  0.51870  1.0000
  C   C16       1.0  0.74402  0.13595  0.98130  1.0000
  C   C17       1.0  0.02027  0.63302  0.31236  1.0000
  C   C18       1.0  0.36698  0.97972  0.18764  1.0000
  C   C19       1.0  0.97973  0.36698  0.68764  1.0000
  C   C20       1.0  0.63302  0.02027  0.81236  1.0000
  N   N1        1.0  0.15914  0.66970  0.36367  1.0000
  N   N2        1.0  0.33030  0.84085  0.13633  1.0000
  N   N3        1.0  0.84085  0.33030  0.63633  1.0000
  N   N4        1.0  0.66970  0.15914  0.86367  1.0000
  N   N5        1.0  0.98054  0.78520  0.54569  1.0000
  N   N6        1.0  0.21480  0.01946  0.95430  1.0000
  N   N7        1.0  0.01945  0.21481  0.45430  1.0000
  N   N8        1.0  0.78521  0.98054  0.04569  1.0000
  N   N9        1.0  0.27400  0.77753  0.53528  1.0000
  N   N10       1.0  0.22247  0.72600  0.96471  1.0000
  N   N11       1.0  0.72599  0.22247  0.46472  1.0000
  N   N12       1.0  0.77754  0.27400  0.03528  1.0000
  O   O1        1.0  0.55828  0.66364  0.36795  1.0000
  O   O2        1.0  0.33636  0.44172  0.13205  1.0000
  O   O3        1.0  0.44171  0.33636  0.63205  1.0000
  O   O4        1.0  0.66364  0.55828  0.86795  1.0000
  O   O5        1.0  0.73291  0.54862  0.20466  1.0000
  O   O6        1.0  0.45139  0.26708  0.29534  1.0000
  O   O7        1.0  0.26708  0.45138  0.79534  1.0000
  O   O8        1.0  0.54862  0.73292  0.70466  1.0000
