data_image0
_chemical_formula_structural       Cu2Mo8H32C40N8O30
_chemical_formula_sum              "Cu2 Mo8 H32 C40 N8 O30"
_cell_length_a       9.95775
_cell_length_b       10.1485
_cell_length_c       13.729
_cell_angle_alpha    100.469
_cell_angle_beta     107.064
_cell_angle_gamma    102.921

_space_group_name_H-M_alt    "P 1"
_space_group_IT_number       1

loop_
  _space_group_symop_operation_xyz
  'x, y, z'

loop_
  _atom_site_type_symbol
  _atom_site_label
  _atom_site_symmetry_multiplicity
  _atom_site_fract_x
  _atom_site_fract_y
  _atom_site_fract_z
  _atom_site_occupancy
  Cu  Cu1       1.0  0.42549  0.13924  0.03199  1.0000
  Cu  Cu2       1.0  0.57451  0.86076  0.96801  1.0000
  Mo  Mo1       1.0  0.43060  0.40296  0.27460  1.0000
  Mo  Mo2       1.0  0.56940  0.59704  0.72540  1.0000
  Mo  Mo3       1.0  0.31112  0.46688  0.50053  1.0000
  Mo  Mo4       1.0  0.68888  0.53312  0.49947  1.0000
  Mo  Mo5       1.0  0.41832  0.19357  0.45392  1.0000
  Mo  Mo6       1.0  0.58168  0.80643  0.54608  1.0000
  Mo  Mo7       1.0  0.30447  0.67308  0.31785  1.0000
  Mo  Mo8       1.0  0.69553  0.32692  0.68215  1.0000
  H   H1        1.0  0.14393  0.25856  0.62496  1.0000
  H   H2        1.0  0.85607  0.74144  0.37504  1.0000
  H   H3        1.0  0.73438  0.03841  0.44218  1.0000
  H   H4        1.0  0.26562  0.96159  0.55782  1.0000
  H   H5        1.0  0.31967  0.94654  0.13415  1.0000
  H   H6        1.0  0.68033  0.05346  0.86585  1.0000
  H   H7        1.0  0.09123  0.77226  0.11736  1.0000
  H   H8        1.0  0.90877  0.22775  0.88264  1.0000
  H   H9        1.0  0.86667  0.71841  0.95053  1.0000
  H   H10       1.0  0.13333  0.28159  0.04947  1.0000
  H   H11       1.0  0.88599  0.84594  0.81728  1.0000
  H   H12       1.0  0.11402  0.15406  0.18272  1.0000
  H   H13       1.0  0.30658  0.35767  0.79405  1.0000
  H   H14       1.0  0.69342  0.64233  0.20595  1.0000
  H   H15       1.0  0.93998  0.89650  0.69432  1.0000
  H   H16       1.0  0.06003  0.10351  0.30569  1.0000
  H   H17       1.0  0.95319  0.03934  0.56733  1.0000
  H   H18       1.0  0.04682  0.96066  0.43268  1.0000
  H   H19       1.0  0.52309  0.32701  0.92229  1.0000
  H   H20       1.0  0.47691  0.67299  0.07772  1.0000
  H   H21       1.0  0.74634  0.50325  0.93324  1.0000
  H   H22       1.0  0.25366  0.49674  0.06676  1.0000
  H   H23       1.0  0.97671  0.56035  0.09572  1.0000
  H   H24       1.0  0.02329  0.43965  0.90427  1.0000
  H   H25       1.0  0.96818  0.43392  0.23133  1.0000
  H   H26       1.0  0.03181  0.56608  0.76867  1.0000
  H   H27       1.0  0.56735  0.92988  0.27635  1.0000
  H   H28       1.0  0.43265  0.07012  0.72364  1.0000
  H   H29       1.0  0.91513  0.39777  0.35909  1.0000
  H   H30       1.0  0.08486  0.60222  0.64091  1.0000
  H   H31       1.0  0.90854  0.26743  0.49504  1.0000
  H   H32       1.0  0.09146  0.73256  0.50496  1.0000
  C   C1        1.0  0.22163  0.92072  0.06455  1.0000
  C   C2        1.0  0.77837  0.07929  0.93544  1.0000
  C   C3        1.0  0.09311  0.82140  0.05331  1.0000
  C   C4        1.0  0.90689  0.17860  0.94668  1.0000
  C   C5        1.0  0.97129  0.79238  0.96217  1.0000
  C   C6        1.0  0.02871  0.20762  0.03783  1.0000
  C   C7        1.0  0.98231  0.86417  0.88657  1.0000
  C   C8        1.0  0.01770  0.13584  0.11343  1.0000
  C   C9        1.0  0.11382  0.96550  0.90293  1.0000
  C   C10       1.0  0.88618  0.03451  0.09707  1.0000
  C   C11       1.0  0.12135  0.04816  0.82607  1.0000
  C   C12       1.0  0.87865  0.95183  0.17393  1.0000
  C   C13       1.0  0.22568  0.18450  0.85704  1.0000
  C   C14       1.0  0.77431  0.81549  0.14295  1.0000
  C   C15       1.0  0.22632  0.25660  0.77800  1.0000
  C   C16       1.0  0.77367  0.74340  0.22200  1.0000
  C   C17       1.0  0.02238  0.99857  0.72140  1.0000
  C   C18       1.0  0.97763  0.00143  0.27860  1.0000
  C   C19       1.0  0.02819  0.07553  0.64859  1.0000
  C   C20       1.0  0.97182  0.92447  0.35141  1.0000
  C   C21       1.0  0.62353  0.35327  0.98978  1.0000
  C   C22       1.0  0.37647  0.64673  0.01022  1.0000
  C   C23       1.0  0.74926  0.45342  0.99727  1.0000
  C   C24       1.0  0.25074  0.54658  0.00273  1.0000
  C   C25       1.0  0.87461  0.48388  0.08585  1.0000
  C   C26       1.0  0.12539  0.51612  0.91415  1.0000
  C   C27       1.0  0.86964  0.41341  0.16307  1.0000
  C   C28       1.0  0.13035  0.58658  0.83693  1.0000
  C   C29       1.0  0.73968  0.31287  0.15131  1.0000
  C   C30       1.0  0.26032  0.68713  0.84869  1.0000
  C   C31       1.0  0.73603  0.23648  0.23212  1.0000
  C   C32       1.0  0.26397  0.76353  0.76788  1.0000
  C   C33       1.0  0.63308  0.10125  0.20760  1.0000
  C   C34       1.0  0.36693  0.89876  0.79240  1.0000
  C   C35       1.0  0.64174  0.03347  0.28959  1.0000
  C   C36       1.0  0.35827  0.96653  0.71041  1.0000
  C   C37       1.0  0.83719  0.29381  0.33604  1.0000
  C   C38       1.0  0.16281  0.70620  0.66396  1.0000
  C   C39       1.0  0.83726  0.22342  0.41306  1.0000
  C   C40       1.0  0.16274  0.77658  0.58693  1.0000
  N   N1        1.0  0.23248  0.99144  0.99195  1.0000
  N   N2        1.0  0.76752  0.00858  0.00806  1.0000
  N   N3        1.0  0.13176  0.20095  0.67897  1.0000
  N   N4        1.0  0.86824  0.79905  0.32103  1.0000
  N   N5        1.0  0.61770  0.28421  0.06394  1.0000
  N   N6        1.0  0.38230  0.71578  0.93606  1.0000
  N   N7        1.0  0.73945  0.09515  0.38668  1.0000
  N   N8        1.0  0.26055  0.90485  0.61333  1.0000
  O   O1        1.0  0.53374  0.03391  0.11500  1.0000
  O   O2        1.0  0.46627  0.96609  0.88500  1.0000
  O   O3        1.0  0.31891  0.24695  0.95209  1.0000
  O   O4        1.0  0.68109  0.75306  0.04791  1.0000
  O   O5        1.0  0.54699  0.49270  0.22275  1.0000
  O   O6        1.0  0.45301  0.50729  0.77725  1.0000
  O   O7        1.0  0.30273  0.31085  0.38984  1.0000
  O   O8        1.0  0.69727  0.68915  0.61016  1.0000
  O   O9        1.0  0.35620  0.23834  0.18815  1.0000
  O   O10       1.0  0.64380  0.76166  0.81186  1.0000
  O   O11       1.0  0.27112  0.48095  0.24181  1.0000
  O   O12       1.0  0.72888  0.51905  0.75819  1.0000
  O   O13       1.0  0.57405  0.36121  0.39029  1.0000
  O   O14       1.0  0.42595  0.63879  0.60971  1.0000
  O   O15       1.0  0.39289  0.07057  0.34235  1.0000
  O   O16       1.0  0.60711  0.92943  0.65765  1.0000
  O   O17       1.0  0.19272  0.38278  0.55515  1.0000
  O   O18       1.0  0.80728  0.61722  0.44485  1.0000
  O   O19       1.0  0.20620  0.54535  0.41454  1.0000
  O   O20       1.0  0.79380  0.45465  0.58546  1.0000
  O   O21       1.0  0.30087  0.11234  0.51137  1.0000
  O   O22       1.0  0.69913  0.88766  0.48863  1.0000
  O   O23       1.0  0.60535  0.19710  0.54320  1.0000
  O   O24       1.0  0.39465  0.80289  0.45680  1.0000
  O   O25       1.0  0.41729  0.75038  0.25751  1.0000
  O   O26       1.0  0.58271  0.24962  0.74249  1.0000
  O   O27       1.0  0.49483  0.58203  0.42761  1.0000
  O   O28       1.0  0.50517  0.41797  0.57239  1.0000
  O   O29       1.0  0.14078  0.70726  0.26661  1.0000
  O   O30       1.0  0.85922  0.29274  0.73339  1.0000
