data_image0
_chemical_formula_structural       Ca2H20C6N4Cl4O8
_chemical_formula_sum              "Ca2 H20 C6 N4 Cl4 O8"
_cell_length_a       5.73268
_cell_length_b       7.96562
_cell_length_c       11.4678
_cell_angle_alpha    71.4891
_cell_angle_beta     80.3421
_cell_angle_gamma    86.6951

_space_group_name_H-M_alt    "P 1"
_space_group_IT_number       1

loop_
  _space_group_symop_operation_xyz
  'x, y, z'

loop_
  _atom_site_type_symbol
  _atom_site_label
  _atom_site_symmetry_multiplicity
  _atom_site_fract_x
  _atom_site_fract_y
  _atom_site_fract_z
  _atom_site_occupancy
  Ca  Ca1       1.0  0.50000  0.00000  0.50000  1.0000
  Ca  Ca2       1.0  1.00000  0.50000  1.00000  1.0000
  H   H1        1.0  0.35953  0.96191  0.91072  1.0000
  H   H2        1.0  0.64047  0.03809  0.08928  1.0000
  H   H3        1.0  0.15902  0.13295  0.92826  1.0000
  H   H4        1.0  0.84098  0.86705  0.07174  1.0000
  H   H5        1.0  0.55544  0.45193  0.77505  1.0000
  H   H6        1.0  0.44457  0.54807  0.22494  1.0000
  H   H7        1.0  0.66012  0.38174  0.64417  1.0000
  H   H8        1.0  0.33987  0.61826  0.35583  1.0000
  H   H9        1.0  0.04141  0.19361  0.41320  1.0000
  H   H10       1.0  0.95859  0.80639  0.58680  1.0000
  H   H11       1.0  0.20827  0.15586  0.30008  1.0000
  H   H12       1.0  0.79174  0.84414  0.69992  1.0000
  H   H13       1.0  0.17214  0.34941  0.63871  1.0000
  H   H14       1.0  0.82786  0.65059  0.36129  1.0000
  H   H15       1.0  0.96571  0.19736  0.63499  1.0000
  H   H16       1.0  0.03429  0.80264  0.36501  1.0000
  H   H17       1.0  0.29677  0.66139  0.74995  1.0000
  H   H18       1.0  0.70323  0.33861  0.25005  1.0000
  H   H19       1.0  0.44510  0.67687  0.85120  1.0000
  H   H20       1.0  0.55491  0.32313  0.14880  1.0000
  C   C1        1.0  0.87370  0.32164  0.77817  1.0000
  C   C2        1.0  0.12631  0.67835  0.22184  1.0000
  C   C3        1.0  0.21050  0.09056  0.75874  1.0000
  C   C4        1.0  0.78950  0.90944  0.24126  1.0000
  C   C5        1.0  0.05262  0.24047  0.69888  1.0000
  C   C6        1.0  0.94738  0.75953  0.30111  1.0000
  N   N1        1.0  0.67899  0.38509  0.73051  1.0000
  N   N2        1.0  0.32100  0.61491  0.26948  1.0000
  N   N3        1.0  0.23890  0.05640  0.87648  1.0000
  N   N4        1.0  0.76110  0.94360  0.12352  1.0000
  Cl  Cl1       1.0  0.28982  0.67560  0.55342  1.0000
  Cl  Cl2       1.0  0.71018  0.32440  0.44658  1.0000
  Cl  Cl3       1.0  0.27573  0.21490  0.10460  1.0000
  Cl  Cl4       1.0  0.72428  0.78510  0.89540  1.0000
  O   O1        1.0  0.91018  0.33320  0.88104  1.0000
  O   O2        1.0  0.08981  0.66679  0.11896  1.0000
  O   O3        1.0  0.19051  0.13404  0.39103  1.0000
  O   O4        1.0  0.80949  0.86596  0.60897  1.0000
  O   O5        1.0  0.31787  0.00345  0.69157  1.0000
  O   O6        1.0  0.68213  0.99655  0.30843  1.0000
  O   O7        1.0  0.32360  0.60420  0.83681  1.0000
  O   O8        1.0  0.67640  0.39580  0.16318  1.0000
