data_image0
_chemical_formula_structural       Zn2H38C34N6O8
_chemical_formula_sum              "Zn2 H38 C34 N6 O8"
_cell_length_a       9.30223
_cell_length_b       9.30224
_cell_length_c       11.1514
_cell_angle_alpha    82.3963
_cell_angle_beta     82.3964
_cell_angle_gamma    65.99

_space_group_name_H-M_alt    "P 1"
_space_group_IT_number       1

loop_
  _space_group_symop_operation_xyz
  'x, y, z'

loop_
  _atom_site_type_symbol
  _atom_site_label
  _atom_site_symmetry_multiplicity
  _atom_site_fract_x
  _atom_site_fract_y
  _atom_site_fract_z
  _atom_site_occupancy
  Zn  Zn1       1.0  0.78306  0.83594  0.74712  1.0000
  Zn  Zn2       1.0  0.16406  0.21694  0.25288  1.0000
  H   H1        1.0  0.50629  0.23270  0.22527  1.0000
  H   H2        1.0  0.76730  0.49371  0.77473  1.0000
  H   H3        1.0  0.96882  0.86061  0.51417  1.0000
  H   H4        1.0  0.13939  0.03118  0.48583  1.0000
  H   H5        1.0  0.92276  0.97343  0.30551  1.0000
  H   H6        1.0  0.02657  0.07724  0.69449  1.0000
  H   H7        1.0  0.42367  0.19391  0.42414  1.0000
  H   H8        1.0  0.80609  0.57633  0.57586  1.0000
  H   H9        1.0  0.49338  0.06643  0.63211  1.0000
  H   H10       1.0  0.93358  0.50662  0.36789  1.0000
  H   H11       1.0  0.93993  0.76172  0.97840  1.0000
  H   H12       1.0  0.23828  0.06007  0.02160  1.0000
  H   H13       1.0  0.88242  0.86431  0.17599  1.0000
  H   H14       1.0  0.13569  0.11758  0.82401  1.0000
  H   H15       1.0  0.50318  0.27698  0.02439  1.0000
  H   H16       1.0  0.72302  0.49682  0.97561  1.0000
  H   H17       1.0  0.57785  0.15196  0.82952  1.0000
  H   H18       1.0  0.84804  0.42215  0.17048  1.0000
  H   H19       1.0  0.42545  0.62836  0.91079  1.0000
  H   H20       1.0  0.37164  0.57455  0.08921  1.0000
  H   H21       1.0  0.26846  0.79849  0.85170  1.0000
  H   H22       1.0  0.20151  0.73154  0.14830  1.0000
  H   H23       1.0  0.51072  0.52521  0.71134  1.0000
  H   H24       1.0  0.47479  0.48928  0.28866  1.0000
  H   H25       1.0  0.37953  0.70305  0.63939  1.0000
  H   H26       1.0  0.29695  0.62047  0.36061  1.0000
  H   H27       1.0  0.38500  0.35942  0.86364  1.0000
  H   H28       1.0  0.64058  0.61500  0.13635  1.0000
  H   H29       1.0  0.18166  0.40132  0.86027  1.0000
  H   H30       1.0  0.59868  0.81834  0.13973  1.0000
  H   H31       1.0  0.23834  0.52455  0.93400  1.0000
  H   H32       1.0  0.47544  0.76166  0.06600  1.0000
  H   H33       1.0  0.28818  0.52295  0.54109  1.0000
  H   H34       1.0  0.47705  0.71182  0.45891  1.0000
  H   H35       1.0  0.21201  0.39671  0.63732  1.0000
  H   H36       1.0  0.60329  0.78799  0.36268  1.0000
  H   H37       1.0  0.41706  0.35922  0.62903  1.0000
  H   H38       1.0  0.64078  0.58294  0.37097  1.0000
  C   C1        1.0  0.84885  0.93121  0.49001  1.0000
  C   C2        1.0  0.06879  0.15115  0.50999  1.0000
  C   C3        1.0  0.82093  0.99405  0.37148  1.0000
  C   C4        1.0  0.00595  0.17907  0.62852  1.0000
  C   C5        1.0  0.66496  0.08679  0.34347  1.0000
  C   C6        1.0  0.91321  0.33504  0.65653  1.0000
  C   C7        1.0  0.54580  0.11928  0.44062  1.0000
  C   C8        1.0  0.88072  0.45420  0.55938  1.0000
  C   C9        1.0  0.58360  0.05046  0.55604  1.0000
  C   C10       1.0  0.94954  0.41640  0.44396  1.0000
  C   C11       1.0  0.84601  0.87799  0.99056  1.0000
  C   C12       1.0  0.12201  0.15399  0.00944  1.0000
  C   C13       1.0  0.81319  0.93824  0.10299  1.0000
  C   C14       1.0  0.06176  0.18681  0.89701  1.0000
  C   C15       1.0  0.68422  0.08375  0.11952  1.0000
  C   C16       1.0  0.91625  0.31578  0.88048  1.0000
  C   C17       1.0  0.60366  0.16438  0.01620  1.0000
  C   C18       1.0  0.83562  0.39634  0.98380  1.0000
  C   C19       1.0  0.64427  0.09516  0.90816  1.0000
  C   C20       1.0  0.90484  0.35573  0.09184  1.0000
  C   C21       1.0  0.49869  0.79776  0.80419  1.0000
  C   C22       1.0  0.20224  0.50131  0.19581  1.0000
  C   C23       1.0  0.38869  0.71215  0.83018  1.0000
  C   C24       1.0  0.28785  0.61131  0.16982  1.0000
  C   C25       1.0  0.39385  0.62273  0.72275  1.0000
  C   C26       1.0  0.37726  0.60615  0.27725  1.0000
  C   C27       1.0  0.26666  0.55495  0.73482  1.0000
  C   C28       1.0  0.44505  0.73334  0.26518  1.0000
  C   C29       1.0  0.10213  0.68862  0.72524  1.0000
  C   C30       1.0  0.31138  0.89787  0.27476  1.0000
  C   C31       1.0  0.26772  0.45463  0.85555  1.0000
  C   C32       1.0  0.54537  0.73228  0.14445  1.0000
  C   C33       1.0  0.29715  0.45235  0.62907  1.0000
  C   C34       1.0  0.54765  0.70285  0.37093  1.0000
  N   N1        1.0  0.73307  0.95469  0.58169  1.0000
  N   N2        1.0  0.04531  0.26693  0.41831  1.0000
  N   N3        1.0  0.62182  0.15008  0.22801  1.0000
  N   N4        1.0  0.84992  0.37818  0.77199  1.0000
  N   N5        1.0  0.76243  0.95176  0.89417  1.0000
  N   N6        1.0  0.04824  0.23756  0.10583  1.0000
  O   O1        1.0  0.64775  0.70832  0.77907  1.0000
  O   O2        1.0  0.29169  0.35225  0.22093  1.0000
  O   O3        1.0  0.44830  0.94425  0.80605  1.0000
  O   O4        1.0  0.05575  0.55170  0.19395  1.0000
  O   O5        1.0  0.08532  0.82795  0.69101  1.0000
  O   O6        1.0  0.17205  0.91468  0.30899  1.0000
  O   O7        1.0  0.98428  0.64614  0.75265  1.0000
  O   O8        1.0  0.35386  0.01572  0.24734  1.0000
