data_image0
_chemical_formula_structural       Cu2H28C44N8O10
_chemical_formula_sum              "Cu2 H28 C44 N8 O10"
_cell_length_a       8.69935
_cell_length_b       10.8498
_cell_length_c       11.6068
_cell_angle_alpha    102.536
_cell_angle_beta     105.329
_cell_angle_gamma    108.068

_space_group_name_H-M_alt    "P 1"
_space_group_IT_number       1

loop_
  _space_group_symop_operation_xyz
  'x, y, z'

loop_
  _atom_site_type_symbol
  _atom_site_label
  _atom_site_symmetry_multiplicity
  _atom_site_fract_x
  _atom_site_fract_y
  _atom_site_fract_z
  _atom_site_occupancy
  Cu  Cu1       1.0  0.79348  0.04974  0.24040  1.0000
  Cu  Cu2       1.0  0.20652  0.95026  0.75960  1.0000
  H   H1        1.0  0.93228  0.85229  0.10485  1.0000
  H   H2        1.0  0.06771  0.14771  0.89514  1.0000
  H   H3        1.0  0.19333  0.79659  0.17234  1.0000
  H   H4        1.0  0.80667  0.20340  0.82765  1.0000
  H   H5        1.0  0.39647  0.90588  0.39485  1.0000
  H   H6        1.0  0.60352  0.09411  0.60515  1.0000
  H   H7        1.0  0.34317  0.08245  0.54496  1.0000
  H   H8        1.0  0.65683  0.91755  0.45504  1.0000
  H   H9        1.0  0.29313  0.25253  0.64834  1.0000
  H   H10       1.0  0.70687  0.74747  0.35167  1.0000
  H   H11       1.0  0.90794  0.42976  0.62431  1.0000
  H   H12       1.0  0.09206  0.57024  0.37569  1.0000
  H   H13       1.0  0.63197  0.38421  0.50284  1.0000
  H   H14       1.0  0.36803  0.61579  0.49716  1.0000
  H   H15       1.0  0.33576  0.32475  0.34449  1.0000
  H   H16       1.0  0.66424  0.67525  0.65551  1.0000
  H   H17       1.0  0.23574  0.14347  0.13502  1.0000
  H   H18       1.0  0.76426  0.85653  0.86498  1.0000
  H   H19       1.0  0.42877  0.02675  0.09039  1.0000
  H   H20       1.0  0.57123  0.97325  0.90961  1.0000
  H   H21       1.0  0.46291  0.47262  0.75358  1.0000
  H   H22       1.0  0.53709  0.52737  0.24642  1.0000
  H   H23       1.0  0.64024  0.66108  0.95312  1.0000
  H   H24       1.0  0.35976  0.33892  0.04688  1.0000
  H   H25       1.0  0.18254  0.63302  0.04214  1.0000
  H   H26       1.0  0.81746  0.36698  0.95786  1.0000
  H   H27       1.0  0.00179  0.45433  0.83625  1.0000
  H   H28       1.0  0.99821  0.54567  0.16375  1.0000
  C   C1        1.0  0.02695  0.90206  0.20077  1.0000
  C   C2        1.0  0.97305  0.09794  0.79923  1.0000
  C   C3        1.0  0.17132  0.86991  0.23937  1.0000
  C   C4        1.0  0.82867  0.13008  0.76062  1.0000
  C   C5        1.0  0.28571  0.93313  0.36409  1.0000
  C   C6        1.0  0.71428  0.06686  0.63591  1.0000
  C   C7        1.0  0.25771  0.03121  0.44621  1.0000
  C   C8        1.0  0.74229  0.96878  0.55379  1.0000
  C   C9        1.0  0.11415  0.06239  0.40022  1.0000
  C   C10       1.0  0.88585  0.93761  0.59978  1.0000
  C   C11       1.0  0.07200  0.16727  0.47408  1.0000
  C   C12       1.0  0.92801  0.83272  0.52592  1.0000
  C   C13       1.0  0.17251  0.25782  0.59561  1.0000
  C   C14       1.0  0.82749  0.74218  0.40439  1.0000
  C   C15       1.0  0.11312  0.35347  0.65152  1.0000
  C   C16       1.0  0.88688  0.64653  0.34848  1.0000
  C   C17       1.0  0.95306  0.35378  0.58315  1.0000
  C   C18       1.0  0.04694  0.64622  0.41685  1.0000
  C   C19       1.0  0.85752  0.25836  0.46253  1.0000
  C   C20       1.0  0.14248  0.74164  0.53747  1.0000
  C   C21       1.0  0.68472  0.23709  0.37858  1.0000
  C   C22       1.0  0.31529  0.76291  0.62142  1.0000
  C   C23       1.0  0.58297  0.30597  0.41061  1.0000
  C   C24       1.0  0.41703  0.69403  0.58939  1.0000
  C   C25       1.0  0.41888  0.27257  0.32332  1.0000
  C   C26       1.0  0.58113  0.72743  0.67668  1.0000
  C   C27       1.0  0.36145  0.17172  0.20665  1.0000
  C   C28       1.0  0.63855  0.82828  0.79335  1.0000
  C   C29       1.0  0.46900  0.10618  0.18045  1.0000
  C   C30       1.0  0.53100  0.89383  0.81955  1.0000
  C   C31       1.0  0.21887  0.45308  0.77828  1.0000
  C   C32       1.0  0.78113  0.54692  0.22172  1.0000
  C   C33       1.0  0.40019  0.50877  0.81559  1.0000
  C   C34       1.0  0.59981  0.49123  0.18441  1.0000
  C   C35       1.0  0.50061  0.61520  0.92831  1.0000
  C   C36       1.0  0.49939  0.38479  0.07169  1.0000
  C   C37       1.0  0.42264  0.66351  0.00923  1.0000
  C   C38       1.0  0.57737  0.33649  0.99077  1.0000
  C   C39       1.0  0.24368  0.59975  0.97789  1.0000
  C   C40       1.0  0.75632  0.40025  0.02211  1.0000
  C   C41       1.0  0.14189  0.49811  0.86201  1.0000
  C   C42       1.0  0.85811  0.50189  0.13799  1.0000
  C   C43       1.0  0.52925  0.78785  0.12424  1.0000
  C   C44       1.0  0.47075  0.21215  0.87576  1.0000
  N   N1        1.0  0.01213  0.26751  0.15191  1.0000
  N   N2        1.0  0.98787  0.73249  0.84808  1.0000
  N   N3        1.0  0.99938  0.99545  0.27991  1.0000
  N   N4        1.0  0.00061  0.00455  0.72009  1.0000
  N   N5        1.0  0.91984  0.17004  0.41206  1.0000
  N   N6        1.0  0.08016  0.82996  0.58794  1.0000
  N   N7        1.0  0.62578  0.13801  0.26427  1.0000
  N   N8        1.0  0.37422  0.86200  0.73574  1.0000
  O   O1        1.0  0.88060  0.15194  0.10477  1.0000
  O   O2        1.0  0.11940  0.84807  0.89523  1.0000
  O   O3        1.0  0.08689  0.31077  0.08085  1.0000
  O   O4        1.0  0.91310  0.68923  0.91914  1.0000
  O   O5        1.0  0.06416  0.33531  0.26800  1.0000
  O   O6        1.0  0.93585  0.66469  0.73200  1.0000
  O   O7        1.0  0.50661  0.79648  0.22744  1.0000
  O   O8        1.0  0.49340  0.20352  0.77256  1.0000
  O   O9        1.0  0.64086  0.88248  0.10188  1.0000
  O   O10       1.0  0.35913  0.11752  0.89812  1.0000
