data_image0
_chemical_formula_structural       Ag2H12C8S2N6O6
_chemical_formula_sum              "Ag2 H12 C8 S2 N6 O6"
_cell_length_a       6.83839
_cell_length_b       7.80012
_cell_length_c       8.67785
_cell_angle_alpha    99.63
_cell_angle_beta     98.7098
_cell_angle_gamma    116.638

_space_group_name_H-M_alt    "P 1"
_space_group_IT_number       1

loop_
  _space_group_symop_operation_xyz
  'x, y, z'

loop_
  _atom_site_type_symbol
  _atom_site_label
  _atom_site_symmetry_multiplicity
  _atom_site_fract_x
  _atom_site_fract_y
  _atom_site_fract_z
  _atom_site_occupancy
  Ag  Ag1       1.0  0.52398  0.52098  0.81535  1.0000
  Ag  Ag2       1.0  0.47603  0.47902  0.18465  1.0000
  H   H1        1.0  0.75704  0.12597  0.61657  1.0000
  H   H2        1.0  0.24295  0.87403  0.38343  1.0000
  H   H3        1.0  0.02611  0.33388  0.71213  1.0000
  H   H4        1.0  0.97388  0.66612  0.28787  1.0000
  H   H5        1.0  0.79137  0.37219  0.64615  1.0000
  H   H6        1.0  0.20863  0.62781  0.35385  1.0000
  H   H7        1.0  0.88695  0.28669  0.36929  1.0000
  H   H8        1.0  0.11305  0.71331  0.63071  1.0000
  H   H9        1.0  0.71839  0.02943  0.27281  1.0000
  H   H10       1.0  0.28161  0.97057  0.72719  1.0000
  H   H11       1.0  0.58615  0.17856  0.31616  1.0000
  H   H12       1.0  0.41384  0.82143  0.68385  1.0000
  C   C1        1.0  0.73662  0.22245  0.11987  1.0000
  C   C2        1.0  0.26338  0.77755  0.88013  1.0000
  C   C3        1.0  0.84396  0.27660  0.69933  1.0000
  C   C4        1.0  0.15604  0.72339  0.30067  1.0000
  C   C5        1.0  0.78906  0.26980  0.85714  1.0000
  C   C6        1.0  0.21093  0.73020  0.14286  1.0000
  C   C7        1.0  0.73026  0.17517  0.27791  1.0000
  C   C8        1.0  0.26975  0.82483  0.72209  1.0000
  S   S1        1.0  0.86598  0.15180  0.98602  1.0000
  S   S2        1.0  0.13402  0.84819  0.01397  1.0000
  N   N1        1.0  0.27577  0.26615  0.46014  1.0000
  N   N2        1.0  0.72423  0.73386  0.53986  1.0000
  N   N3        1.0  0.64463  0.32424  0.06520  1.0000
  N   N4        1.0  0.35538  0.67575  0.93480  1.0000
  N   N5        1.0  0.67614  0.35265  0.91669  1.0000
  N   N6        1.0  0.32385  0.64735  0.08331  1.0000
  O   O1        1.0  0.27174  0.42189  0.52968  1.0000
  O   O2        1.0  0.72826  0.57812  0.47032  1.0000
  O   O3        1.0  0.22730  0.21145  0.30598  1.0000
  O   O4        1.0  0.77271  0.78856  0.69402  1.0000
  O   O5        1.0  0.32859  0.16855  0.54331  1.0000
  O   O6        1.0  0.67141  0.83146  0.45669  1.0000
