data_image0
_chemical_formula_structural       H40Pb6C32O18
_chemical_formula_sum              "H40 Pb6 C32 O18"
_cell_length_a       9.52752
_cell_length_b       10.9485
_cell_length_c       11.0988
_cell_angle_alpha    64.659
_cell_angle_beta     79.1228
_cell_angle_gamma    84.648

_space_group_name_H-M_alt    "P 1"
_space_group_IT_number       1

loop_
  _space_group_symop_operation_xyz
  'x, y, z'

loop_
  _atom_site_type_symbol
  _atom_site_label
  _atom_site_symmetry_multiplicity
  _atom_site_fract_x
  _atom_site_fract_y
  _atom_site_fract_z
  _atom_site_occupancy
  H   H1        1.0  0.14418  0.47769  0.85445  1.0000
  H   H2        1.0  0.85584  0.52221  0.14552  1.0000
  H   H3        1.0  0.89562  0.42178  0.85607  1.0000
  H   H4        1.0  0.10440  0.57817  0.14393  1.0000
  H   H5        1.0  0.86024  0.35815  0.03315  1.0000
  H   H6        1.0  0.13977  0.64184  0.96683  1.0000
  H   H7        1.0  0.23316  0.40386  0.07497  1.0000
  H   H8        1.0  0.76687  0.59611  0.92496  1.0000
  H   H9        1.0  0.06006  0.34814  0.16324  1.0000
  H   H10       1.0  0.94001  0.65180  0.83674  1.0000
  H   H11       1.0  0.03788  0.37325  0.68559  1.0000
  H   H12       1.0  0.96222  0.62685  0.31439  1.0000
  H   H13       1.0  0.78760  0.49149  0.52914  1.0000
  H   H14       1.0  0.21252  0.50860  0.47080  1.0000
  H   H15       1.0  0.80053  0.50027  0.68165  1.0000
  H   H16       1.0  0.19953  0.49983  0.31831  1.0000
  H   H17       1.0  0.12317  0.28331  0.51626  1.0000
  H   H18       1.0  0.87693  0.71676  0.48370  1.0000
  H   H19       1.0  0.97756  0.36230  0.42946  1.0000
  H   H20       1.0  0.02252  0.63779  0.57052  1.0000
  H   H21       1.0  0.32471  0.78838  0.72621  1.0000
  H   H22       1.0  0.67525  0.21154  0.27385  1.0000
  H   H23       1.0  0.54941  0.92373  0.59729  1.0000
  H   H24       1.0  0.45057  0.07622  0.40275  1.0000
  H   H25       1.0  0.64810  0.77131  0.63396  1.0000
  H   H26       1.0  0.35185  0.22861  0.36600  1.0000
  H   H27       1.0  0.53694  0.55009  0.79470  1.0000
  H   H28       1.0  0.46311  0.44987  0.20531  1.0000
  H   H29       1.0  0.35448  0.54039  0.86898  1.0000
  H   H30       1.0  0.64558  0.45951  0.13106  1.0000
  H   H31       1.0  0.38942  0.47057  0.67714  1.0000
  H   H32       1.0  0.61064  0.52938  0.32286  1.0000
  H   H33       1.0  0.28014  0.61627  0.64404  1.0000
  H   H34       1.0  0.71987  0.38363  0.35600  1.0000
  H   H35       1.0  0.45259  0.64872  0.44000  1.0000
  H   H36       1.0  0.54741  0.35125  0.56002  1.0000
  H   H37       1.0  0.59883  0.61002  0.52977  1.0000
  H   H38       1.0  0.40120  0.39007  0.47021  1.0000
  H   H39       1.0  0.39166  0.84989  0.48307  1.0000
  H   H40       1.0  0.60816  0.15002  0.51708  1.0000
  Pb  Pb1       1.0  0.19135  0.00947  0.89218  1.0000
  Pb  Pb2       1.0  0.80869  0.99069  0.10768  1.0000
  Pb  Pb3       1.0  0.50594  0.18745  0.89426  1.0000
  Pb  Pb4       1.0  0.49409  0.81257  0.10584  1.0000
  Pb  Pb5       1.0  0.76729  0.97571  0.77623  1.0000
  Pb  Pb6       1.0  0.23273  0.02423  0.22382  1.0000
  C   C1        1.0  0.12154  0.26531  0.95537  1.0000
  C   C2        1.0  0.87835  0.73464  0.04466  1.0000
  C   C3        1.0  0.08262  0.40529  0.94868  1.0000
  C   C4        1.0  0.91737  0.59467  0.05132  1.0000
  C   C5        1.0  0.92247  0.43403  0.94218  1.0000
  C   C6        1.0  0.07753  0.56592  0.05781  1.0000
  C   C7        1.0  0.11889  0.42379  0.06902  1.0000
  C   C8        1.0  0.88112  0.57620  0.93094  1.0000
  C   C9        1.0  0.87991  0.24189  0.69772  1.0000
  C   C10       1.0  0.12017  0.75813  0.30231  1.0000
  C   C11       1.0  0.96176  0.37262  0.62248  1.0000
  C   C12       1.0  0.03832  0.62742  0.37753  1.0000
  C   C13       1.0  0.86429  0.49819  0.58879  1.0000
  C   C14       1.0  0.13579  0.50187  0.41120  1.0000
  C   C15       1.0  0.05085  0.37177  0.49106  1.0000
  C   C16       1.0  0.94925  0.62831  0.50894  1.0000
  C   C17       1.0  0.45892  0.76496  0.86593  1.0000
  C   C18       1.0  0.54108  0.23508  0.13408  1.0000
  C   C19       1.0  0.43202  0.74543  0.74507  1.0000
  C   C20       1.0  0.56796  0.25451  0.25499  1.0000
  C   C21       1.0  0.54146  0.81693  0.61819  1.0000
  C   C22       1.0  0.45852  0.18303  0.38181  1.0000
  C   C23       1.0  0.42990  0.59429  0.77610  1.0000
  C   C24       1.0  0.57009  0.40566  0.22393  1.0000
  C   C25       1.0  0.39032  0.57817  0.65635  1.0000
  C   C26       1.0  0.60969  0.42177  0.34368  1.0000
  C   C27       1.0  0.49086  0.65539  0.52424  1.0000
  C   C28       1.0  0.50913  0.34461  0.47575  1.0000
  C   C29       1.0  0.49928  0.80509  0.49750  1.0000
  C   C30       1.0  0.50062  0.19489  0.50253  1.0000
  C   C31       1.0  0.60018  0.88056  0.36685  1.0000
  C   C32       1.0  0.39964  0.11948  0.63312  1.0000
  O   O1        1.0  0.20141  0.25420  0.85426  1.0000
  O   O2        1.0  0.79840  0.74575  0.14573  1.0000
  O   O3        1.0  0.06967  0.16257  0.06210  1.0000
  O   O4        1.0  0.93024  0.83742  0.93795  1.0000
  O   O5        1.0  0.75500  0.23620  0.67404  1.0000
  O   O6        1.0  0.24509  0.76382  0.32600  1.0000
  O   O7        1.0  0.94000  0.13613  0.77844  1.0000
  O   O8        1.0  0.06008  0.86388  0.22159  1.0000
  O   O9        1.0  0.35049  0.78114  0.94617  1.0000
  O   O10       1.0  0.64953  0.21895  0.05381  1.0000
  O   O11       1.0  0.58664  0.76236  0.88664  1.0000
  O   O12       1.0  0.41336  0.23774  0.11331  1.0000
  O   O13       1.0  0.72961  0.89531  0.36844  1.0000
  O   O14       1.0  0.27026  0.10456  0.63141  1.0000
  O   O15       1.0  0.54976  0.92723  0.25466  1.0000
  O   O16       1.0  0.44990  0.07299  0.74534  1.0000
  O   O17       1.0  0.35124  0.00746  0.03989  1.0000
  O   O18       1.0  0.64884  0.99257  0.96014  1.0000
