data_image0
_chemical_formula_structural       Cu2P4H48C56O16
_chemical_formula_sum              "Cu2 P4 H48 C56 O16"
_cell_length_a       8.8496
_cell_length_b       10.5575
_cell_length_c       16.3318
_cell_angle_alpha    103.214
_cell_angle_beta     96.6403
_cell_angle_gamma    113.669

_space_group_name_H-M_alt    "P 1"
_space_group_IT_number       1

loop_
  _space_group_symop_operation_xyz
  'x, y, z'

loop_
  _atom_site_type_symbol
  _atom_site_label
  _atom_site_symmetry_multiplicity
  _atom_site_fract_x
  _atom_site_fract_y
  _atom_site_fract_z
  _atom_site_occupancy
  Cu  Cu1       1.0  0.12225  0.95216  0.95404  1.0000
  Cu  Cu2       1.0  0.87776  0.04790  0.04598  1.0000
  P   P1        1.0  0.05284  0.05346  0.23225  1.0000
  P   P2        1.0  0.94717  0.94654  0.76776  1.0000
  P   P3        1.0  0.52896  0.82202  0.07292  1.0000
  P   P4        1.0  0.47104  0.17799  0.92708  1.0000
  H   H1        1.0  0.55904  0.59780  0.05837  1.0000
  H   H2        1.0  0.44097  0.40221  0.94162  1.0000
  H   H3        1.0  0.62554  0.70984  0.16736  1.0000
  H   H4        1.0  0.37448  0.29015  0.83263  1.0000
  H   H5        1.0  0.89569  0.63166  0.97276  1.0000
  H   H6        1.0  0.10430  0.36837  0.02722  1.0000
  H   H7        1.0  0.39774  0.97272  0.13364  1.0000
  H   H8        1.0  0.60230  0.02730  0.86637  1.0000
  H   H9        1.0  0.14933  0.76111  0.80360  1.0000
  H   H10       1.0  0.85062  0.23893  0.19643  1.0000
  H   H11       1.0  0.88215  0.46405  0.05971  1.0000
  H   H12       1.0  0.11791  0.53598  0.94025  1.0000
  H   H13       1.0  0.25594  0.78543  0.11125  1.0000
  H   H14       1.0  0.74406  0.21459  0.88878  1.0000
  H   H15       1.0  0.31490  0.67990  0.70941  1.0000
  H   H16       1.0  0.68498  0.32007  0.29060  1.0000
  H   H17       1.0  0.93706  0.55343  0.22018  1.0000
  H   H18       1.0  0.06301  0.44657  0.77978  1.0000
  H   H19       1.0  0.56444  0.64974  0.77419  1.0000
  H   H20       1.0  0.43541  0.35018  0.22580  1.0000
  H   H21       1.0  0.00888  0.80994  0.29292  1.0000
  H   H22       1.0  0.99118  0.19005  0.70706  1.0000
  H   H23       1.0  0.65344  0.71080  0.93253  1.0000
  H   H24       1.0  0.34650  0.28918  0.06746  1.0000
  H   H25       1.0  0.31298  0.23795  0.33322  1.0000
  H   H26       1.0  0.68705  0.76202  0.66679  1.0000
  H   H27       1.0  0.33458  0.07621  0.28853  1.0000
  H   H28       1.0  0.66542  0.92376  0.71148  1.0000
  H   H29       1.0  0.78257  0.02721  0.26185  1.0000
  H   H30       1.0  0.21742  0.97275  0.73815  1.0000
  H   H31       1.0  0.88244  0.96468  0.33457  1.0000
  H   H32       1.0  0.11756  0.03529  0.66543  1.0000
  H   H33       1.0  0.96863  0.35940  0.50026  1.0000
  H   H34       1.0  0.03137  0.64058  0.49975  1.0000
  H   H35       1.0  0.38210  0.89387  0.37109  1.0000
  H   H36       1.0  0.61793  0.10611  0.62892  1.0000
  H   H37       1.0  0.14614  0.42982  0.64870  1.0000
  H   H38       1.0  0.85389  0.57015  0.35131  1.0000
  H   H39       1.0  0.24332  0.68764  0.42911  1.0000
  H   H40       1.0  0.75670  0.31234  0.57089  1.0000
  H   H41       1.0  0.35115  0.32525  0.67215  1.0000
  H   H42       1.0  0.64888  0.67473  0.32785  1.0000
  H   H43       1.0  0.14456  0.43166  0.33426  1.0000
  H   H44       1.0  0.85544  0.56832  0.66572  1.0000
  H   H45       1.0  0.37600  0.15554  0.54640  1.0000
  H   H46       1.0  0.62400  0.84442  0.45359  1.0000
  H   H47       1.0  0.20470  0.38931  0.18920  1.0000
  H   H48       1.0  0.79526  0.61069  0.81078  1.0000
  C   C1        1.0  0.99368  0.86759  0.17409  1.0000
  C   C2        1.0  0.00634  0.13242  0.82590  1.0000
  C   C3        1.0  0.45153  0.77054  0.95868  1.0000
  C   C4        1.0  0.54846  0.22951  0.04133  1.0000
  C   C5        1.0  0.96044  0.81614  0.08238  1.0000
  C   C6        1.0  0.03956  0.18388  0.91761  1.0000
  C   C7        1.0  0.30690  0.78544  0.92257  1.0000
  C   C8        1.0  0.69310  0.21463  0.07746  1.0000
  C   C9        1.0  0.91967  0.66945  0.04284  1.0000
  C   C10       1.0  0.08035  0.33058  0.95715  1.0000
  C   C11       1.0  0.26017  0.75046  0.83123  1.0000
  C   C12       1.0  0.73979  0.24959  0.16880  1.0000
  C   C13       1.0  0.91186  0.57647  0.09190  1.0000
  C   C14       1.0  0.08819  0.42356  0.90807  1.0000
  C   C15       1.0  0.35295  0.70436  0.77942  1.0000
  C   C16       1.0  0.64698  0.29566  0.22060  1.0000
  C   C17       1.0  0.94223  0.62647  0.18207  1.0000
  C   C18       1.0  0.05783  0.37353  0.81791  1.0000
  C   C19       1.0  0.49354  0.68787  0.81529  1.0000
  C   C20       1.0  0.50637  0.31212  0.18471  1.0000
  C   C21       1.0  0.98269  0.77097  0.22250  1.0000
  C   C22       1.0  0.01735  0.22903  0.77748  1.0000
  C   C23       1.0  0.54221  0.72100  0.90454  1.0000
  C   C24       1.0  0.45775  0.27900  0.09546  1.0000
  C   C25       1.0  0.24996  0.11859  0.31528  1.0000
  C   C26       1.0  0.75004  0.88138  0.68473  1.0000
  C   C27       1.0  0.52694  0.66705  0.10724  1.0000
  C   C28       1.0  0.47307  0.33296  0.89276  1.0000
  C   C29       1.0  0.90349  0.04902  0.30225  1.0000
  C   C30       1.0  0.09651  0.95096  0.69775  1.0000
  C   C31       1.0  0.38859  0.86673  0.13546  1.0000
  C   C32       1.0  0.61142  0.13328  0.86455  1.0000
  C   C33       1.0  0.18899  0.16281  0.45489  1.0000
  C   C34       1.0  0.81100  0.83715  0.54512  1.0000
  C   C35       1.0  0.33332  0.61599  0.19971  1.0000
  C   C36       1.0  0.66669  0.38402  0.80028  1.0000
  C   C37       1.0  0.07093  0.21910  0.44192  1.0000
  C   C38       1.0  0.92906  0.78086  0.55809  1.0000
  C   C39       1.0  0.37913  0.75909  0.25050  1.0000
  C   C40       1.0  0.62090  0.24092  0.74951  1.0000
  C   C41       1.0  0.05960  0.31649  0.51238  1.0000
  C   C42       1.0  0.94040  0.68348  0.48763  1.0000
  C   C43       1.0  0.34742  0.78264  0.33320  1.0000
  C   C44       1.0  0.65260  0.21734  0.66680  1.0000
  C   C45       1.0  0.15860  0.35485  0.59484  1.0000
  C   C46       1.0  0.84141  0.64513  0.40516  1.0000
  C   C47       1.0  0.26659  0.66646  0.36446  1.0000
  C   C48       1.0  0.73342  0.33352  0.63554  1.0000
  C   C49       1.0  0.27124  0.29518  0.60819  1.0000
  C   C50       1.0  0.72879  0.70480  0.39181  1.0000
  C   C51       1.0  0.21250  0.52440  0.31213  1.0000
  C   C52       1.0  0.78748  0.47559  0.68786  1.0000
  C   C53       1.0  0.28532  0.19988  0.53820  1.0000
  C   C54       1.0  0.71468  0.80009  0.46180  1.0000
  C   C55       1.0  0.24598  0.49996  0.23014  1.0000
  C   C56       1.0  0.75399  0.50004  0.76984  1.0000
  O   O1        1.0  0.07279  0.15709  0.17981  1.0000
  O   O2        1.0  0.92723  0.84294  0.82021  1.0000
  O   O3        1.0  0.70995  0.94290  0.10568  1.0000
  O   O4        1.0  0.29004  0.05713  0.89433  1.0000
  O   O5        1.0  0.96746  0.90170  0.03243  1.0000
  O   O6        1.0  0.03253  0.09834  0.96757  1.0000
  O   O7        1.0  0.22073  0.82758  0.97390  1.0000
  O   O8        1.0  0.77931  0.17253  0.02614  1.0000
  O   O9        1.0  0.21673  0.07014  0.38961  1.0000
  O   O10       1.0  0.78327  0.92983  0.61040  1.0000
  O   O11       1.0  0.36274  0.57990  0.11797  1.0000
  O   O12       1.0  0.63727  0.42012  0.88202  1.0000
  O   O13       1.0  0.96610  0.19051  0.36389  1.0000
  O   O14       1.0  0.03388  0.80947  0.63612  1.0000
  O   O15       1.0  0.45481  0.88107  0.22419  1.0000
  O   O16       1.0  0.54521  0.11894  0.77583  1.0000
