data_image0
_chemical_formula_structural       Cd2H12C20N24
_chemical_formula_sum              "Cd2 H12 C20 N24"
_cell_length_a       6.51267
_cell_length_b       6.51268
_cell_length_c       17.0506
_cell_angle_alpha    101.008
_cell_angle_beta     101.007
_cell_angle_gamma    89.9881

_space_group_name_H-M_alt    "P 1"
_space_group_IT_number       1

loop_
  _space_group_symop_operation_xyz
  'x, y, z'

loop_
  _atom_site_type_symbol
  _atom_site_label
  _atom_site_symmetry_multiplicity
  _atom_site_fract_x
  _atom_site_fract_y
  _atom_site_fract_z
  _atom_site_occupancy
  Cd  Cd1       1.0  0.12501  0.87499  0.25000  1.0000
  Cd  Cd2       1.0  0.87498  0.12502  0.75000  1.0000
  H   H1        1.0  0.24033  0.82159  0.48069  1.0000
  H   H2        1.0  0.15893  0.24028  0.98070  1.0000
  H   H3        1.0  0.82159  0.24033  0.98069  1.0000
  H   H4        1.0  0.84107  0.75972  0.01930  1.0000
  H   H5        1.0  0.24028  0.15893  0.48070  1.0000
  H   H6        1.0  0.75972  0.84107  0.51930  1.0000
  H   H7        1.0  0.75967  0.17841  0.51931  1.0000
  H   H8        1.0  0.17841  0.75967  0.01931  1.0000
  H   H9        1.0  0.28020  0.53021  0.56058  1.0000
  H   H10       1.0  0.53021  0.28020  0.06058  1.0000
  H   H11       1.0  0.46979  0.71980  0.93942  1.0000
  H   H12       1.0  0.71980  0.46979  0.43942  1.0000
  C   C1        1.0  0.12126  0.37135  0.24280  1.0000
  C   C2        1.0  0.37135  0.12126  0.74280  1.0000
  C   C3        1.0  0.62865  0.87874  0.25720  1.0000
  C   C4        1.0  0.87874  0.62865  0.75720  1.0000
  C   C5        1.0  0.16575  0.41580  0.33174  1.0000
  C   C6        1.0  0.41580  0.16575  0.83174  1.0000
  C   C7        1.0  0.58420  0.83425  0.16826  1.0000
  C   C8        1.0  0.83425  0.58420  0.66826  1.0000
  C   C9        1.0  0.22501  0.65796  0.45014  1.0000
  C   C10       1.0  0.29204  0.22502  0.95015  1.0000
  C   C11       1.0  0.65796  0.22501  0.95014  1.0000
  C   C12       1.0  0.70796  0.77497  0.04985  1.0000
  C   C13       1.0  0.22502  0.29204  0.45015  1.0000
  C   C14       1.0  0.77498  0.70796  0.54985  1.0000
  C   C15       1.0  0.77499  0.34204  0.54986  1.0000
  C   C16       1.0  0.34204  0.77499  0.04986  1.0000
  C   C17       1.0  0.24710  0.49707  0.49426  1.0000
  C   C18       1.0  0.49707  0.24710  0.99426  1.0000
  C   C19       1.0  0.50293  0.75290  0.00574  1.0000
  C   C20       1.0  0.75290  0.50293  0.50574  1.0000
  N   N1        1.0  0.09792  0.51679  0.19598  1.0000
  N   N2        1.0  0.17914  0.09791  0.69597  1.0000
  N   N3        1.0  0.51679  0.09792  0.69598  1.0000
  N   N4        1.0  0.82086  0.90209  0.30403  1.0000
  N   N5        1.0  0.09791  0.17914  0.19597  1.0000
  N   N6        1.0  0.90209  0.82086  0.80403  1.0000
  N   N7        1.0  0.90208  0.48321  0.80402  1.0000
  N   N8        1.0  0.48321  0.90208  0.30402  1.0000
  N   N9        1.0  0.05926  0.41076  0.11847  1.0000
  N   N10       1.0  0.20773  0.05925  0.61847  1.0000
  N   N11       1.0  0.41076  0.05926  0.61847  1.0000
  N   N12       1.0  0.79227  0.94075  0.38153  1.0000
  N   N13       1.0  0.05925  0.20773  0.11847  1.0000
  N   N14       1.0  0.94075  0.79227  0.88153  1.0000
  N   N15       1.0  0.94074  0.58924  0.88153  1.0000
  N   N16       1.0  0.58923  0.94074  0.38153  1.0000
  N   N17       1.0  0.18420  0.61843  0.36854  1.0000
  N   N18       1.0  0.24997  0.18419  0.86855  1.0000
  N   N19       1.0  0.61843  0.18420  0.86854  1.0000
  N   N20       1.0  0.75003  0.81580  0.13145  1.0000
  N   N21       1.0  0.18419  0.24997  0.36855  1.0000
  N   N22       1.0  0.81581  0.75003  0.63145  1.0000
  N   N23       1.0  0.81580  0.38157  0.63146  1.0000
  N   N24       1.0  0.38157  0.81580  0.13146  1.0000
