data_image0
_chemical_formula_structural       Cd4H24C40N48
_chemical_formula_sum              "Cd4 H24 C40 N48"
_cell_length_a       9.13824
_cell_length_b       9.13821
_cell_length_c       15.7682
_cell_angle_alpha    90.0008
_cell_angle_beta     90.0003
_cell_angle_gamma    90.0005

_space_group_name_H-M_alt    "P 1"
_space_group_IT_number       1

loop_
  _space_group_symop_operation_xyz
  'x, y, z'

loop_
  _atom_site_type_symbol
  _atom_site_label
  _atom_site_symmetry_multiplicity
  _atom_site_fract_x
  _atom_site_fract_y
  _atom_site_fract_z
  _atom_site_occupancy
  Cd  Cd1       1.0  0.25000  0.25000  0.25000  1.0000
  Cd  Cd2       1.0  0.25000  0.24999  0.75000  1.0000
  Cd  Cd3       1.0  0.75000  0.75000  0.75000  1.0000
  Cd  Cd4       1.0  0.75000  0.75000  0.25000  1.0000
  H   H1        1.0  0.65088  0.15087  0.52133  1.0000
  H   H2        1.0  0.34912  0.65088  0.02133  1.0000
  H   H3        1.0  0.15088  0.84912  0.02133  1.0000
  H   H4        1.0  0.15088  0.65088  0.47867  1.0000
  H   H5        1.0  0.84912  0.34912  0.52133  1.0000
  H   H6        1.0  0.84912  0.15088  0.97867  1.0000
  H   H7        1.0  0.65088  0.34912  0.97867  1.0000
  H   H8        1.0  0.34912  0.84912  0.47867  1.0000
  H   H9        1.0  0.44645  0.28012  0.44397  1.0000
  H   H10       1.0  0.21988  0.44645  0.94397  1.0000
  H   H11       1.0  0.28012  0.05354  0.94397  1.0000
  H   H12       1.0  0.28012  0.44646  0.55603  1.0000
  H   H13       1.0  0.05355  0.21988  0.44397  1.0000
  H   H14       1.0  0.05354  0.28012  0.05603  1.0000
  H   H15       1.0  0.44645  0.21988  0.05602  1.0000
  H   H16       1.0  0.21989  0.05355  0.55602  1.0000
  H   H17       1.0  0.55354  0.71988  0.55602  1.0000
  H   H18       1.0  0.78012  0.55354  0.05603  1.0000
  H   H19       1.0  0.71989  0.94645  0.05602  1.0000
  H   H20       1.0  0.71988  0.55355  0.44397  1.0000
  H   H21       1.0  0.94645  0.78012  0.55602  1.0000
  H   H22       1.0  0.94645  0.71988  0.94397  1.0000
  H   H23       1.0  0.55355  0.78012  0.94398  1.0000
  H   H24       1.0  0.78012  0.94645  0.44397  1.0000
  C   C1        1.0  0.52917  0.02917  0.30385  1.0000
  C   C2        1.0  0.47083  0.52916  0.80385  1.0000
  C   C3        1.0  0.02917  0.97083  0.80386  1.0000
  C   C4        1.0  0.02916  0.52917  0.69614  1.0000
  C   C5        1.0  0.97084  0.47083  0.30386  1.0000
  C   C6        1.0  0.97083  0.02917  0.19615  1.0000
  C   C7        1.0  0.52917  0.47083  0.19614  1.0000
  C   C8        1.0  0.47084  0.97083  0.69615  1.0000
  C   C9        1.0  0.61751  0.11751  0.45808  1.0000
  C   C10       1.0  0.38248  0.61751  0.95807  1.0000
  C   C11       1.0  0.11751  0.88249  0.95808  1.0000
  C   C12       1.0  0.11752  0.61751  0.54192  1.0000
  C   C13       1.0  0.88248  0.38249  0.45807  1.0000
  C   C14       1.0  0.88250  0.11752  0.04193  1.0000
  C   C15       1.0  0.61751  0.38249  0.04192  1.0000
  C   C16       1.0  0.38249  0.88249  0.54192  1.0000
  C   C17       1.0  0.50336  0.18710  0.41576  1.0000
  C   C18       1.0  0.31290  0.50336  0.91576  1.0000
  C   C19       1.0  0.18710  0.99664  0.91576  1.0000
  C   C20       1.0  0.18710  0.50336  0.58424  1.0000
  C   C21       1.0  0.99664  0.31290  0.41576  1.0000
  C   C22       1.0  0.99664  0.18710  0.08423  1.0000
  C   C23       1.0  0.50336  0.31290  0.08423  1.0000
  C   C24       1.0  0.31290  0.99664  0.58423  1.0000
  C   C25       1.0  0.49665  0.81289  0.58423  1.0000
  C   C26       1.0  0.68711  0.49664  0.08424  1.0000
  C   C27       1.0  0.81290  0.00335  0.08423  1.0000
  C   C28       1.0  0.81290  0.49665  0.41576  1.0000
  C   C29       1.0  0.00335  0.68711  0.58424  1.0000
  C   C30       1.0  0.00335  0.81289  0.91576  1.0000
  C   C31       1.0  0.49664  0.68711  0.91576  1.0000
  C   C32       1.0  0.68710  0.00336  0.41576  1.0000
  C   C33       1.0  0.47819  0.97820  0.22162  1.0000
  C   C34       1.0  0.52180  0.47819  0.72162  1.0000
  C   C35       1.0  0.97819  0.02181  0.72162  1.0000
  C   C36       1.0  0.97818  0.47819  0.77838  1.0000
  C   C37       1.0  0.02181  0.52181  0.22162  1.0000
  C   C38       1.0  0.02181  0.97820  0.27838  1.0000
  C   C39       1.0  0.47818  0.52181  0.27838  1.0000
  C   C40       1.0  0.52181  0.02181  0.77838  1.0000
  N   N1        1.0  0.45894  0.14371  0.33871  1.0000
  N   N2        1.0  0.35629  0.45892  0.83871  1.0000
  N   N3        1.0  0.14371  0.04106  0.83871  1.0000
  N   N4        1.0  0.14371  0.45893  0.66129  1.0000
  N   N5        1.0  0.04107  0.35629  0.33871  1.0000
  N   N6        1.0  0.04108  0.14372  0.16129  1.0000
  N   N7        1.0  0.45894  0.35628  0.16129  1.0000
  N   N8        1.0  0.35629  0.04106  0.66129  1.0000
  N   N9        1.0  0.54107  0.85629  0.66129  1.0000
  N   N10       1.0  0.64371  0.54107  0.16129  1.0000
  N   N11       1.0  0.85629  0.95894  0.16129  1.0000
  N   N12       1.0  0.85630  0.54107  0.33871  1.0000
  N   N13       1.0  0.95893  0.64371  0.66129  1.0000
  N   N14       1.0  0.95893  0.85629  0.83870  1.0000
  N   N15       1.0  0.54106  0.64371  0.83870  1.0000
  N   N16       1.0  0.64373  0.95894  0.33871  1.0000
  N   N17       1.0  0.46028  0.85713  0.10607  1.0000
  N   N18       1.0  0.64290  0.46025  0.60607  1.0000
  N   N19       1.0  0.85711  0.03973  0.60607  1.0000
  N   N20       1.0  0.85711  0.46028  0.89394  1.0000
  N   N21       1.0  0.03973  0.64288  0.10607  1.0000
  N   N22       1.0  0.03972  0.85712  0.39394  1.0000
  N   N23       1.0  0.46028  0.64288  0.39394  1.0000
  N   N24       1.0  0.64290  0.03973  0.89393  1.0000
  N   N25       1.0  0.53972  0.14287  0.89394  1.0000
  N   N26       1.0  0.35711  0.53972  0.39394  1.0000
  N   N27       1.0  0.14288  0.96028  0.39394  1.0000
  N   N28       1.0  0.14288  0.53972  0.10606  1.0000
  N   N29       1.0  0.96027  0.35713  0.89394  1.0000
  N   N30       1.0  0.96028  0.14287  0.60607  1.0000
  N   N31       1.0  0.53971  0.35713  0.60606  1.0000
  N   N32       1.0  0.35712  0.96028  0.10607  1.0000
  N   N33       1.0  0.53742  0.86641  0.17824  1.0000
  N   N34       1.0  0.63361  0.53740  0.67824  1.0000
  N   N35       1.0  0.86640  0.96258  0.67824  1.0000
  N   N36       1.0  0.86639  0.53741  0.82177  1.0000
  N   N37       1.0  0.96259  0.63360  0.17823  1.0000
  N   N38       1.0  0.96259  0.86640  0.32177  1.0000
  N   N39       1.0  0.53741  0.63360  0.32177  1.0000
  N   N40       1.0  0.63361  0.96259  0.82177  1.0000
  N   N41       1.0  0.46257  0.13359  0.82178  1.0000
  N   N42       1.0  0.36639  0.46258  0.32177  1.0000
  N   N43       1.0  0.13360  0.03742  0.32177  1.0000
  N   N44       1.0  0.13359  0.46258  0.17823  1.0000
  N   N45       1.0  0.03741  0.36641  0.82177  1.0000
  N   N46       1.0  0.03743  0.13359  0.67823  1.0000
  N   N47       1.0  0.46256  0.36641  0.67822  1.0000
  N   N48       1.0  0.36640  0.03742  0.17824  1.0000
