data_image0
_chemical_formula_structural       Zn2H44C32N8O8
_chemical_formula_sum              "Zn2 H44 C32 N8 O8"
_cell_length_a       9.10783
_cell_length_b       11.1841
_cell_length_c       12.9184
_cell_angle_alpha    67.2546
_cell_angle_beta     78.795
_cell_angle_gamma    82.7342

_space_group_name_H-M_alt    "P 1"
_space_group_IT_number       1

loop_
  _space_group_symop_operation_xyz
  'x, y, z'

loop_
  _atom_site_type_symbol
  _atom_site_label
  _atom_site_symmetry_multiplicity
  _atom_site_fract_x
  _atom_site_fract_y
  _atom_site_fract_z
  _atom_site_occupancy
  Zn  Zn1       1.0  0.00525  0.21242  0.79513  1.0000
  Zn  Zn2       1.0  0.99475  0.78758  0.20487  1.0000
  H   H1        1.0  0.84339  0.31489  0.56962  1.0000
  H   H2        1.0  0.15661  0.68511  0.43037  1.0000
  H   H3        1.0  0.28653  0.33718  0.60860  1.0000
  H   H4        1.0  0.71347  0.66282  0.39140  1.0000
  H   H5        1.0  0.26657  0.43312  0.37543  1.0000
  H   H6        1.0  0.73343  0.56688  0.62456  1.0000
  H   H7        1.0  0.98311  0.51576  0.28898  1.0000
  H   H8        1.0  0.01688  0.48424  0.71102  1.0000
  H   H9        1.0  0.85774  0.39151  0.36326  1.0000
  H   H10       1.0  0.14226  0.60849  0.63674  1.0000
  H   H11       1.0  0.06202  0.22896  0.32402  1.0000
  H   H12       1.0  0.93798  0.77104  0.67598  1.0000
  H   H13       1.0  0.17887  0.35974  0.24481  1.0000
  H   H14       1.0  0.82113  0.64026  0.75519  1.0000
  H   H15       1.0  0.88122  0.31910  0.18790  1.0000
  H   H16       1.0  0.11877  0.68090  0.81210  1.0000
  H   H17       1.0  0.97716  0.46323  0.11775  1.0000
  H   H18       1.0  0.02284  0.53677  0.88225  1.0000
  H   H19       1.0  0.03814  0.31813  0.00796  1.0000
  H   H20       1.0  0.96186  0.68187  0.99204  1.0000
  H   H21       1.0  0.20086  0.34386  0.05141  1.0000
  H   H22       1.0  0.79914  0.65615  0.94858  1.0000
  H   H23       1.0  0.94436  0.09339  0.08330  1.0000
  H   H24       1.0  0.05564  0.90661  0.91670  1.0000
  H   H25       1.0  0.27485  0.88231  0.28419  1.0000
  H   H26       1.0  0.72514  0.11769  0.71581  1.0000
  H   H27       1.0  0.31108  0.14644  0.21547  1.0000
  H   H28       1.0  0.68891  0.85356  0.78454  1.0000
  H   H29       1.0  0.63195  0.29252  0.04577  1.0000
  H   H30       1.0  0.36805  0.70748  0.95423  1.0000
  H   H31       1.0  0.74936  0.41761  0.01603  1.0000
  H   H32       1.0  0.25064  0.58238  0.98398  1.0000
  H   H33       1.0  0.46138  0.44724  0.91451  1.0000
  H   H34       1.0  0.53862  0.55276  0.08550  1.0000
  H   H35       1.0  0.58094  0.57296  0.87898  1.0000
  H   H36       1.0  0.41907  0.42703  0.12102  1.0000
  H   H37       1.0  0.51056  0.21094  0.84650  1.0000
  H   H38       1.0  0.48944  0.78906  0.15350  1.0000
  H   H39       1.0  0.40743  0.21244  0.97442  1.0000
  H   H40       1.0  0.59257  0.78756  0.02558  1.0000
  H   H41       1.0  0.45624  0.97908  0.89934  1.0000
  H   H42       1.0  0.54376  0.02092  0.10066  1.0000
  H   H43       1.0  0.33101  0.98074  0.02028  1.0000
  H   H44       1.0  0.66899  0.01926  0.97972  1.0000
  C   C1        1.0  0.96242  0.32972  0.55039  1.0000
  C   C2        1.0  0.03759  0.67029  0.44961  1.0000
  C   C3        1.0  0.19343  0.34365  0.56523  1.0000
  C   C4        1.0  0.80657  0.65635  0.43476  1.0000
  C   C5        1.0  0.18576  0.38932  0.45113  1.0000
  C   C6        1.0  0.81425  0.61068  0.54887  1.0000
  C   C7        1.0  0.97719  0.41140  0.33885  1.0000
  C   C8        1.0  0.02281  0.58860  0.66115  1.0000
  C   C9        1.0  0.06120  0.33296  0.26994  1.0000
  C   C10       1.0  0.93879  0.66705  0.73006  1.0000
  C   C11       1.0  0.99342  0.35791  0.16386  1.0000
  C   C12       1.0  0.00658  0.64209  0.83614  1.0000
  C   C13       1.0  0.09129  0.30056  0.08222  1.0000
  C   C14       1.0  0.90871  0.69944  0.91778  1.0000
  C   C15       1.0  0.03704  0.06942  0.13089  1.0000
  C   C16       1.0  0.96296  0.93058  0.86911  1.0000
  C   C17       1.0  0.20914  0.96499  0.23457  1.0000
  C   C18       1.0  0.79085  0.03501  0.76543  1.0000
  C   C19       1.0  0.22918  0.09508  0.20060  1.0000
  C   C20       1.0  0.77082  0.90492  0.79940  1.0000
  C   C21       1.0  0.76294  0.34870  0.88133  1.0000
  C   C22       1.0  0.23706  0.65130  0.11867  1.0000
  C   C23       1.0  0.67142  0.38433  0.97863  1.0000
  C   C24       1.0  0.32858  0.61566  0.02137  1.0000
  C   C25       1.0  0.54022  0.48352  0.94892  1.0000
  C   C26       1.0  0.45979  0.51648  0.05108  1.0000
  C   C27       1.0  0.27336  0.21856  0.85537  1.0000
  C   C28       1.0  0.72665  0.78144  0.14463  1.0000
  C   C29       1.0  0.41333  0.16827  0.91069  1.0000
  C   C30       1.0  0.58667  0.83173  0.08931  1.0000
  C   C31       1.0  0.43555  0.02101  0.96569  1.0000
  C   C32       1.0  0.56445  0.97898  0.03431  1.0000
  N   N1        1.0  0.05308  0.30694  0.62622  1.0000
  N   N2        1.0  0.94693  0.69306  0.37377  1.0000
  N   N3        1.0  0.03841  0.37966  0.44351  1.0000
  N   N4        1.0  0.96159  0.62035  0.55649  1.0000
  N   N5        1.0  0.08889  0.95044  0.19065  1.0000
  N   N6        1.0  0.91111  0.04956  0.80935  1.0000
  N   N7        1.0  0.11947  0.15977  0.13489  1.0000
  N   N8        1.0  0.88053  0.84024  0.86510  1.0000
  O   O1        1.0  0.88356  0.27566  0.90897  1.0000
  O   O2        1.0  0.11645  0.72433  0.09104  1.0000
  O   O3        1.0  0.72405  0.38644  0.78576  1.0000
  O   O4        1.0  0.27596  0.61355  0.21424  1.0000
  O   O5        1.0  0.19247  0.13083  0.85504  1.0000
  O   O6        1.0  0.80753  0.86917  0.14496  1.0000
  O   O7        1.0  0.24077  0.33828  0.81430  1.0000
  O   O8        1.0  0.75923  0.66172  0.18570  1.0000
