data_image0
_chemical_formula_structural       Zn2H48C34N8O8
_chemical_formula_sum              "Zn2 H48 C34 N8 O8"
_cell_length_a       8.07038
_cell_length_b       9.43287
_cell_length_c       13.6937
_cell_angle_alpha    95.3069
_cell_angle_beta     96.6984
_cell_angle_gamma    101.614

_space_group_name_H-M_alt    "P 1"
_space_group_IT_number       1

loop_
  _space_group_symop_operation_xyz
  'x, y, z'

loop_
  _atom_site_type_symbol
  _atom_site_label
  _atom_site_symmetry_multiplicity
  _atom_site_fract_x
  _atom_site_fract_y
  _atom_site_fract_z
  _atom_site_occupancy
  Zn  Zn1       1.0  0.75989  0.77349  0.77093  1.0000
  Zn  Zn2       1.0  0.24011  0.22651  0.22907  1.0000
  H   H1        1.0  0.97541  0.09765  0.81702  1.0000
  H   H2        1.0  0.02459  0.90234  0.18298  1.0000
  H   H3        1.0  0.59257  0.87238  0.96419  1.0000
  H   H4        1.0  0.40743  0.12763  0.03581  1.0000
  H   H5        1.0  0.74797  0.14046  0.07882  1.0000
  H   H6        1.0  0.25203  0.85954  0.92118  1.0000
  H   H7        1.0  0.11911  0.30297  0.94627  1.0000
  H   H8        1.0  0.88089  0.69703  0.05373  1.0000
  H   H9        1.0  0.06731  0.29577  0.06787  1.0000
  H   H10       1.0  0.93269  0.70423  0.93213  1.0000
  H   H11       1.0  0.82921  0.42108  0.02917  1.0000
  H   H12       1.0  0.17079  0.57892  0.97083  1.0000
  H   H13       1.0  0.87537  0.43072  0.90602  1.0000
  H   H14       1.0  0.12463  0.56928  0.09398  1.0000
  H   H15       1.0  0.43064  0.54903  0.66554  1.0000
  H   H16       1.0  0.56936  0.45097  0.33446  1.0000
  H   H17       1.0  0.71619  0.91240  0.55855  1.0000
  H   H18       1.0  0.28381  0.08760  0.44145  1.0000
  H   H19       1.0  0.44093  0.77631  0.41329  1.0000
  H   H20       1.0  0.55907  0.22369  0.58671  1.0000
  H   H21       1.0  0.25269  0.41897  0.49013  1.0000
  H   H22       1.0  0.74731  0.58103  0.50987  1.0000
  H   H23       1.0  0.22488  0.53576  0.39859  1.0000
  H   H24       1.0  0.77513  0.46424  0.60141  1.0000
  H   H25       1.0  0.05708  0.66677  0.50454  1.0000
  H   H26       1.0  0.94292  0.33323  0.49545  1.0000
  H   H27       1.0  0.09958  0.56445  0.60251  1.0000
  H   H28       1.0  0.90043  0.43555  0.39748  1.0000
  H   H29       1.0  0.32018  0.82889  0.76985  1.0000
  H   H30       1.0  0.67982  0.17111  0.23015  1.0000
  H   H31       1.0  0.26941  0.81105  0.64091  1.0000
  H   H32       1.0  0.73059  0.18895  0.35909  1.0000
  H   H33       1.0  0.49123  0.02756  0.68456  1.0000
  H   H34       1.0  0.50876  0.97244  0.31544  1.0000
  H   H35       1.0  0.29726  0.07897  0.64302  1.0000
  H   H36       1.0  0.70274  0.92103  0.35698  1.0000
  H   H37       1.0  0.46607  0.10248  0.85815  1.0000
  H   H38       1.0  0.53393  0.89752  0.14185  1.0000
  H   H39       1.0  0.25878  0.13148  0.82472  1.0000
  H   H40       1.0  0.74122  0.86852  0.17528  1.0000
  H   H41       1.0  0.37969  0.32472  0.72169  1.0000
  H   H42       1.0  0.62031  0.67529  0.27831  1.0000
  H   H43       1.0  0.58823  0.30473  0.76390  1.0000
  H   H44       1.0  0.41177  0.69527  0.23610  1.0000
  H   H45       1.0  0.55297  0.38061  0.93819  1.0000
  H   H46       1.0  0.44703  0.61939  0.06181  1.0000
  H   H47       1.0  0.34171  0.39732  0.89955  1.0000
  H   H48       1.0  0.65828  0.60268  0.10045  1.0000
  C   C1        1.0  0.89197  0.07263  0.87260  1.0000
  C   C2        1.0  0.10803  0.92737  0.12740  1.0000
  C   C3        1.0  0.69489  0.95993  0.95205  1.0000
  C   C4        1.0  0.30511  0.04007  0.04795  1.0000
  C   C5        1.0  0.77004  0.09002  0.00857  1.0000
  C   C6        1.0  0.22996  0.90998  0.99143  1.0000
  C   C7        1.0  0.01395  0.29798  0.99085  1.0000
  C   C8        1.0  0.98605  0.70202  0.00915  1.0000
  C   C9        1.0  0.93299  0.42963  0.98285  1.0000
  C   C10       1.0  0.06701  0.57037  0.01715  1.0000
  C   C11       1.0  0.47220  0.63020  0.61749  1.0000
  C   C12       1.0  0.52780  0.36980  0.38251  1.0000
  C   C13       1.0  0.61388  0.81827  0.55881  1.0000
  C   C14       1.0  0.38612  0.18173  0.44119  1.0000
  C   C15       1.0  0.48004  0.75148  0.48696  1.0000
  C   C16       1.0  0.51996  0.24852  0.51304  1.0000
  C   C17       1.0  0.23640  0.52945  0.47868  1.0000
  C   C18       1.0  0.76361  0.47055  0.52132  1.0000
  C   C19       1.0  0.07845  0.55926  0.52119  1.0000
  C   C20       1.0  0.92156  0.44074  0.47881  1.0000
  C   C21       1.0  0.07424  0.86982  0.71491  1.0000
  C   C22       1.0  0.92576  0.13018  0.28509  1.0000
  C   C23       1.0  0.26374  0.88028  0.70913  1.0000
  C   C24       1.0  0.73626  0.11973  0.29087  1.0000
  C   C25       1.0  0.36386  0.03410  0.70379  1.0000
  C   C26       1.0  0.63614  0.96590  0.29621  1.0000
  C   C27       1.0  0.38423  0.13771  0.79910  1.0000
  C   C28       1.0  0.61576  0.86229  0.20090  1.0000
  C   C29       1.0  0.45899  0.29512  0.78482  1.0000
  C   C30       1.0  0.54101  0.70488  0.21518  1.0000
  C   C31       1.0  0.46825  0.40497  0.87587  1.0000
  C   C32       1.0  0.53175  0.59504  0.12413  1.0000
  C   C33       1.0  0.53295  0.56128  0.85599  1.0000
  C   C34       1.0  0.46705  0.43872  0.14401  1.0000
  N   N1        1.0  0.77244  0.95032  0.86729  1.0000
  N   N2        1.0  0.22756  0.04968  0.13271  1.0000
  N   N3        1.0  0.89463  0.15906  0.95740  1.0000
  N   N4        1.0  0.10537  0.84094  0.04260  1.0000
  N   N5        1.0  0.60649  0.74143  0.63981  1.0000
  N   N6        1.0  0.39351  0.25858  0.36019  1.0000
  N   N7        1.0  0.39266  0.63214  0.52516  1.0000
  N   N8        1.0  0.60735  0.36786  0.47484  1.0000
  O   O1        1.0  0.00045  0.76074  0.75726  1.0000
  O   O2        1.0  0.99955  0.23926  0.24274  1.0000
  O   O3        1.0  0.99750  0.96071  0.67939  1.0000
  O   O4        1.0  0.00250  0.03929  0.32062  1.0000
  O   O5        1.0  0.44915  0.65691  0.87247  1.0000
  O   O6        1.0  0.55085  0.34309  0.12753  1.0000
  O   O7        1.0  0.67639  0.58285  0.81898  1.0000
  O   O8        1.0  0.32360  0.41716  0.18103  1.0000
