data_image0
_chemical_formula_structural       CuH28C44N6O14
_chemical_formula_sum              "Cu1 H28 C44 N6 O14"
_cell_length_a       8.8778
_cell_length_b       10.1058
_cell_length_c       15.3702
_cell_angle_alpha    105.021
_cell_angle_beta     83.4127
_cell_angle_gamma    111.087

_space_group_name_H-M_alt    "P 1"
_space_group_IT_number       1

loop_
  _space_group_symop_operation_xyz
  'x, y, z'

loop_
  _atom_site_type_symbol
  _atom_site_label
  _atom_site_symmetry_multiplicity
  _atom_site_fract_x
  _atom_site_fract_y
  _atom_site_fract_z
  _atom_site_occupancy
  Cu  Cu1       1.0  0.49999  0.50001  0.00000  1.0000
  H   H1        1.0  0.30467  0.56799  0.16068  1.0000
  H   H2        1.0  0.69532  0.43201  0.83933  1.0000
  H   H3        1.0  0.20402  0.47172  0.29897  1.0000
  H   H4        1.0  0.79596  0.52826  0.70103  1.0000
  H   H5        1.0  0.33508  0.09263  0.16518  1.0000
  H   H6        1.0  0.66494  0.90737  0.83481  1.0000
  H   H7        1.0  0.42399  0.20175  0.03237  1.0000
  H   H8        1.0  0.57603  0.79828  0.96763  1.0000
  H   H9        1.0  0.47398  0.24952  0.47086  1.0000
  H   H10       1.0  0.52602  0.75047  0.52912  1.0000
  H   H11       1.0  0.58921  0.25888  0.61462  1.0000
  H   H12       1.0  0.41082  0.74112  0.38537  1.0000
  H   H13       1.0  0.58324  0.14613  0.73929  1.0000
  H   H14       1.0  0.41681  0.85389  0.26069  1.0000
  H   H15       1.0  0.36393  0.91592  0.75394  1.0000
  H   H16       1.0  0.63612  0.08411  0.24606  1.0000
  H   H17       1.0  0.15141  0.79023  0.63724  1.0000
  H   H18       1.0  0.84863  0.20977  0.36277  1.0000
  H   H19       1.0  0.03896  0.77896  0.49352  1.0000
  H   H20       1.0  0.96106  0.22103  0.50649  1.0000
  H   H21       1.0  0.79088  0.43182  0.02489  1.0000
  H   H22       1.0  0.20908  0.56817  0.97511  1.0000
  H   H23       1.0  0.00652  0.52435  0.14182  1.0000
  H   H24       1.0  0.99345  0.47562  0.85817  1.0000
  H   H25       1.0  0.80493  0.85883  0.27128  1.0000
  H   H26       1.0  0.19509  0.14118  0.72871  1.0000
  H   H27       1.0  0.60254  0.75601  0.14862  1.0000
  H   H28       1.0  0.39747  0.24400  0.85138  1.0000
  C   C1        1.0  0.30849  0.46353  0.16549  1.0000
  C   C2        1.0  0.69150  0.53647  0.83452  1.0000
  C   C3        1.0  0.25392  0.40970  0.24196  1.0000
  C   C4        1.0  0.74607  0.59029  0.75804  1.0000
  C   C5        1.0  0.26941  0.27808  0.24499  1.0000
  C   C6        1.0  0.73059  0.72191  0.75501  1.0000
  C   C7        1.0  0.32761  0.19913  0.16850  1.0000
  C   C8        1.0  0.67240  0.80087  0.83150  1.0000
  C   C9        1.0  0.37736  0.25901  0.09352  1.0000
  C   C10       1.0  0.62265  0.74100  0.90648  1.0000
  C   C11       1.0  0.22951  0.23252  0.33211  1.0000
  C   C12       1.0  0.77047  0.76747  0.66789  1.0000
  C   C13       1.0  0.26797  0.07380  0.41081  1.0000
  C   C14       1.0  0.73201  0.92619  0.58920  1.0000
  C   C15       1.0  0.37840  0.14831  0.47766  1.0000
  C   C16       1.0  0.62159  0.85169  0.52234  1.0000
  C   C17       1.0  0.37348  0.08937  0.55255  1.0000
  C   C18       1.0  0.62652  0.91063  0.44745  1.0000
  C   C19       1.0  0.49197  0.15769  0.61995  1.0000
  C   C20       1.0  0.50806  0.84233  0.38004  1.0000
  C   C21       1.0  0.48845  0.09430  0.68981  1.0000
  C   C22       1.0  0.51159  0.90572  0.31018  1.0000
  C   C23       1.0  0.36452  0.96191  0.69705  1.0000
  C   C24       1.0  0.63552  0.03812  0.30295  1.0000
  C   C25       1.0  0.24713  0.89278  0.63274  1.0000
  C   C26       1.0  0.75290  0.10724  0.36727  1.0000
  C   C27       1.0  0.24942  0.95317  0.55846  1.0000
  C   C28       1.0  0.75059  0.04684  0.44154  1.0000
  C   C29       1.0  0.13542  0.88074  0.48897  1.0000
  C   C30       1.0  0.86458  0.11925  0.51104  1.0000
  C   C31       1.0  0.14655  0.93963  0.41640  1.0000
  C   C32       1.0  0.85342  0.06037  0.58361  1.0000
  C   C33       1.0  0.04161  0.74771  0.28796  1.0000
  C   C34       1.0  0.95838  0.25229  0.71204  1.0000
  C   C35       1.0  0.80015  0.52563  0.08126  1.0000
  C   C36       1.0  0.19983  0.47437  0.91874  1.0000
  C   C37       1.0  0.91709  0.57655  0.14622  1.0000
  C   C38       1.0  0.08290  0.42344  0.85377  1.0000
  C   C39       1.0  0.91901  0.69636  0.21696  1.0000
  C   C40       1.0  0.08099  0.30364  0.78304  1.0000
  C   C41       1.0  0.80617  0.76388  0.21855  1.0000
  C   C42       1.0  0.19383  0.23613  0.78145  1.0000
  C   C43       1.0  0.69317  0.70758  0.15090  1.0000
  C   C44       1.0  0.30683  0.29243  0.84910  1.0000
  N   N1        1.0  0.37308  0.39109  0.09372  1.0000
  N   N2        1.0  0.62691  0.60891  0.90629  1.0000
  N   N3        1.0  0.68892  0.58948  0.08463  1.0000
  N   N4        1.0  0.31106  0.41052  0.91537  1.0000
  N   N5        1.0  0.36958  0.83265  0.09306  1.0000
  N   N6        1.0  0.63041  0.16734  0.90694  1.0000
  O   O1        1.0  0.16368  0.29067  0.39675  1.0000
  O   O2        1.0  0.83632  0.70931  0.60325  1.0000
  O   O3        1.0  0.28281  0.12089  0.33124  1.0000
  O   O4        1.0  0.71717  0.87909  0.66876  1.0000
  O   O5        1.0  0.13382  0.68566  0.29349  1.0000
  O   O6        1.0  0.86618  0.31435  0.70651  1.0000
  O   O7        1.0  0.03558  0.87340  0.34685  1.0000
  O   O8        1.0  0.96439  0.12659  0.65316  1.0000
  O   O9        1.0  0.37594  0.70224  0.07370  1.0000
  O   O10       1.0  0.62405  0.29775  0.92630  1.0000
  O   O11       1.0  0.49925  0.93950  0.09518  1.0000
  O   O12       1.0  0.50073  0.06049  0.90483  1.0000
  O   O13       1.0  0.23427  0.84867  0.10961  1.0000
  O   O14       1.0  0.76572  0.15132  0.89038  1.0000
