data_image0
_chemical_formula_structural       Mn2H8C8N16O4
_chemical_formula_sum              "Mn2 H8 C8 N16 O4"
_cell_length_a       6.45705
_cell_length_b       6.51844
_cell_length_c       9.91881
_cell_angle_alpha    89.9999
_cell_angle_beta     90.0005
_cell_angle_gamma    101.131

_space_group_name_H-M_alt    "P 1"
_space_group_IT_number       1

loop_
  _space_group_symop_operation_xyz
  'x, y, z'

loop_
  _atom_site_type_symbol
  _atom_site_label
  _atom_site_symmetry_multiplicity
  _atom_site_fract_x
  _atom_site_fract_y
  _atom_site_fract_z
  _atom_site_occupancy
  Mn  Mn1       1.0  0.99999  1.00000  0.50000  1.0000
  Mn  Mn2       1.0  0.00000  0.50000  1.00000  1.0000
  H   H1        1.0  0.75395  0.51559  0.68399  1.0000
  H   H2        1.0  0.24606  0.98441  0.18399  1.0000
  H   H3        1.0  0.24603  0.48440  0.31602  1.0000
  H   H4        1.0  0.75395  0.01560  0.81601  1.0000
  H   H5        1.0  0.43497  0.83352  0.41221  1.0000
  H   H6        1.0  0.56502  0.66648  0.91220  1.0000
  H   H7        1.0  0.56502  0.16647  0.58780  1.0000
  H   H8        1.0  0.43499  0.33353  0.08779  1.0000
  C   C1        1.0  0.64098  0.50482  0.60226  1.0000
  C   C2        1.0  0.35903  0.99517  0.10226  1.0000
  C   C3        1.0  0.35900  0.49518  0.39775  1.0000
  C   C4        1.0  0.64099  0.00483  0.89774  1.0000
  C   C5        1.0  0.46170  0.68320  0.44821  1.0000
  C   C6        1.0  0.53829  0.81680  0.94820  1.0000
  C   C7        1.0  0.53828  0.31679  0.55180  1.0000
  C   C8        1.0  0.46173  0.18322  0.05179  1.0000
  N   N1        1.0  0.97863  0.74155  0.36597  1.0000
  N   N2        1.0  0.02136  0.75845  0.86597  1.0000
  N   N3        1.0  0.02135  0.25844  0.63403  1.0000
  N   N4        1.0  0.97866  0.24156  0.13403  1.0000
  N   N5        1.0  0.90216  0.69675  0.25865  1.0000
  N   N6        1.0  0.09785  0.80325  0.75864  1.0000
  N   N7        1.0  0.09784  0.30325  0.74135  1.0000
  N   N8        1.0  0.90216  0.19675  0.24135  1.0000
  N   N9        1.0  0.60352  0.68792  0.55055  1.0000
  N   N10       1.0  0.39648  0.81208  0.05054  1.0000
  N   N11       1.0  0.39647  0.31207  0.44947  1.0000
  N   N12       1.0  0.60352  0.18794  0.94946  1.0000
  N   N13       1.0  0.82849  0.64819  0.15133  1.0000
  N   N14       1.0  0.17151  0.85181  0.65134  1.0000
  N   N15       1.0  0.17151  0.35181  0.84865  1.0000
  N   N16       1.0  0.82849  0.14819  0.34865  1.0000
  O   O1        1.0  0.70836  0.86798  0.59653  1.0000
  O   O2        1.0  0.29164  0.63202  0.09652  1.0000
  O   O3        1.0  0.29163  0.13201  0.40348  1.0000
  O   O4        1.0  0.70836  0.36798  0.90347  1.0000
