data_image0
_chemical_formula_structural       Zn2H20C12S2N4O14
_chemical_formula_sum              "Zn2 H20 C12 S2 N4 O14"
_cell_length_a       6.65758
_cell_length_b       8.28242
_cell_length_c       9.86772
_cell_angle_alpha    92.0809
_cell_angle_beta     90.0002
_cell_angle_gamma    90

_space_group_name_H-M_alt    "P 1"
_space_group_IT_number       1

loop_
  _space_group_symop_operation_xyz
  'x, y, z'

loop_
  _atom_site_type_symbol
  _atom_site_label
  _atom_site_symmetry_multiplicity
  _atom_site_fract_x
  _atom_site_fract_y
  _atom_site_fract_z
  _atom_site_occupancy
  Zn  Zn1       1.0  0.59908  0.28264  0.20454  1.0000
  Zn  Zn2       1.0  0.09909  0.71736  0.79546  1.0000
  H   H1        1.0  0.59898  0.68364  0.16816  1.0000
  H   H2        1.0  0.09898  0.31636  0.83183  1.0000
  H   H3        1.0  0.60377  0.46632  0.99872  1.0000
  H   H4        1.0  0.10377  0.53367  0.00127  1.0000
  H   H5        1.0  0.41390  0.34934  0.99116  1.0000
  H   H6        1.0  0.91391  0.65065  0.00883  1.0000
  H   H7        1.0  0.59917  0.99938  0.06151  1.0000
  H   H8        1.0  0.09917  0.00062  0.93850  1.0000
  H   H9        1.0  0.80581  0.04393  0.12916  1.0000
  H   H10       1.0  0.30581  0.95606  0.87084  1.0000
  H   H11       1.0  0.63200  0.98560  0.37941  1.0000
  H   H12       1.0  0.13201  0.01440  0.62059  1.0000
  H   H13       1.0  0.64679  0.93382  0.62941  1.0000
  H   H14       1.0  0.14678  0.06618  0.37059  1.0000
  H   H15       1.0  0.62395  0.16991  0.79510  1.0000
  H   H16       1.0  0.12394  0.83010  0.20490  1.0000
  H   H17       1.0  0.59105  0.44874  0.70504  1.0000
  H   H18       1.0  0.09105  0.55126  0.29496  1.0000
  H   H19       1.0  0.58737  0.62873  0.50982  1.0000
  H   H20       1.0  0.08738  0.37128  0.49018  1.0000
  C   C1        1.0  0.62575  0.08401  0.45576  1.0000
  C   C2        1.0  0.12575  0.91599  0.54424  1.0000
  C   C3        1.0  0.63122  0.05633  0.59436  1.0000
  C   C4        1.0  0.13122  0.94366  0.40564  1.0000
  C   C5        1.0  0.61972  0.18765  0.68633  1.0000
  C   C6        1.0  0.11971  0.81235  0.31367  1.0000
  C   C7        1.0  0.60298  0.34270  0.63711  1.0000
  C   C8        1.0  0.10297  0.65730  0.36289  1.0000
  C   C9        1.0  0.60121  0.36191  0.49709  1.0000
  C   C10       1.0  0.10121  0.63810  0.50291  1.0000
  C   C11       1.0  0.59094  0.52222  0.44090  1.0000
  C   C12       1.0  0.09094  0.47779  0.55910  1.0000
  S   S1        1.0  0.09759  0.25535  0.12571  1.0000
  S   S2        1.0  0.59759  0.74464  0.87429  1.0000
  N   N1        1.0  0.61235  0.23331  0.40829  1.0000
  N   N2        1.0  0.11235  0.76669  0.59171  1.0000
  N   N3        1.0  0.59089  0.53452  0.31099  1.0000
  N   N4        1.0  0.09089  0.46549  0.68900  1.0000
  O   O1        1.0  0.58465  0.69028  0.26940  1.0000
  O   O2        1.0  0.08464  0.30972  0.73060  1.0000
  O   O3        1.0  0.26755  0.26374  0.22273  1.0000
  O   O4        1.0  0.76754  0.73627  0.77727  1.0000
  O   O5        1.0  0.16227  0.33565  0.99640  1.0000
  O   O6        1.0  0.66227  0.66434  0.00361  1.0000
  O   O7        1.0  0.04369  0.08420  0.09095  1.0000
  O   O8        1.0  0.54369  0.91579  0.90905  1.0000
  O   O9        1.0  0.92265  0.34343  0.18437  1.0000
  O   O10       1.0  0.42265  0.65657  0.81563  1.0000
  O   O11       1.0  0.56165  0.35174  0.00864  1.0000
  O   O12       1.0  0.06165  0.64825  0.99135  1.0000
  O   O13       1.0  0.65852  0.04198  0.14835  1.0000
  O   O14       1.0  0.15852  0.95802  0.85165  1.0000
