data_image0
_chemical_formula_structural       Cd2H16C12S2N4O12
_chemical_formula_sum              "Cd2 H16 C12 S2 N4 O12"
_cell_length_a       6.85948
_cell_length_b       8.00577
_cell_length_c       9.22033
_cell_angle_alpha    90.9034
_cell_angle_beta     90.0006
_cell_angle_gamma    89.9999

_space_group_name_H-M_alt    "P 1"
_space_group_IT_number       1

loop_
  _space_group_symop_operation_xyz
  'x, y, z'

loop_
  _atom_site_type_symbol
  _atom_site_label
  _atom_site_symmetry_multiplicity
  _atom_site_fract_x
  _atom_site_fract_y
  _atom_site_fract_z
  _atom_site_occupancy
  Cd  Cd1       1.0  0.36117  0.17061  0.17099  1.0000
  Cd  Cd2       1.0  0.86116  0.82939  0.82901  1.0000
  H   H1        1.0  0.27388  0.77117  0.20007  1.0000
  H   H2        1.0  0.77388  0.22883  0.79993  1.0000
  H   H3        1.0  0.24359  0.90713  0.55577  1.0000
  H   H4        1.0  0.74359  0.09287  0.44423  1.0000
  H   H5        1.0  0.25466  0.13192  0.73976  1.0000
  H   H6        1.0  0.75467  0.86809  0.26024  1.0000
  H   H7        1.0  0.31585  0.43189  0.80645  1.0000
  H   H8        1.0  0.81586  0.56811  0.19356  1.0000
  H   H9        1.0  0.40133  0.63231  0.61029  1.0000
  H   H10       1.0  0.90132  0.36769  0.38971  1.0000
  H   H11       1.0  0.42323  0.52345  0.35395  1.0000
  H   H12       1.0  0.92322  0.47654  0.64605  1.0000
  H   H13       1.0  0.57642  0.38727  0.00924  1.0000
  H   H14       1.0  0.07642  0.61272  0.99076  1.0000
  H   H15       1.0  0.40500  0.52349  0.04334  1.0000
  H   H16       1.0  0.90500  0.47651  0.95666  1.0000
  C   C1        1.0  0.30686  0.17185  0.51221  1.0000
  C   C2        1.0  0.80686  0.82815  0.48779  1.0000
  C   C3        1.0  0.27649  0.99690  0.47085  1.0000
  C   C4        1.0  0.77649  0.00310  0.52915  1.0000
  C   C5        1.0  0.29001  0.22321  0.65739  1.0000
  C   C6        1.0  0.79001  0.77680  0.34261  1.0000
  C   C7        1.0  0.32416  0.39047  0.69356  1.0000
  C   C8        1.0  0.82416  0.60953  0.30643  1.0000
  C   C9        1.0  0.37312  0.50142  0.58478  1.0000
  C   C10       1.0  0.87311  0.49858  0.41522  1.0000
  C   C11       1.0  0.38632  0.44082  0.44236  1.0000
  C   C12       1.0  0.88630  0.55918  0.55764  1.0000
  S   S1        1.0  0.86367  0.16922  0.08628  1.0000
  S   S2        1.0  0.36367  0.83078  0.91371  1.0000
  N   N1        1.0  0.35447  0.28072  0.40682  1.0000
  N   N2        1.0  0.85446  0.71928  0.59318  1.0000
  N   N3        1.0  0.29088  0.95154  0.33641  1.0000
  N   N4        1.0  0.79087  0.04846  0.66359  1.0000
  O   O1        1.0  0.26192  0.78547  0.30936  1.0000
  O   O2        1.0  0.76192  0.21453  0.69064  1.0000
  O   O3        1.0  0.03834  0.24764  0.15332  1.0000
  O   O4        1.0  0.53833  0.75236  0.84668  1.0000
  O   O5        1.0  0.79502  0.28263  0.96503  1.0000
  O   O6        1.0  0.29502  0.71737  0.03497  1.0000
  O   O7        1.0  0.91179  0.00195  0.02545  1.0000
  O   O8        1.0  0.41179  0.99805  0.97455  1.0000
  O   O9        1.0  0.70703  0.15862  0.19684  1.0000
  O   O10       1.0  0.20702  0.84138  0.80316  1.0000
  O   O11       1.0  0.44061  0.40333  0.04249  1.0000
  O   O12       1.0  0.94061  0.59666  0.95751  1.0000
