data_image0
_chemical_formula_structural       Cd2H38C42S2N6O12
_chemical_formula_sum              "Cd2 H38 C42 S2 N6 O12"
_cell_length_a       8.45836
_cell_length_b       10.3629
_cell_length_c       12.7628
_cell_angle_alpha    79.8402
_cell_angle_beta     73.4366
_cell_angle_gamma    81.9508

_space_group_name_H-M_alt    "P 1"
_space_group_IT_number       1

loop_
  _space_group_symop_operation_xyz
  'x, y, z'

loop_
  _atom_site_type_symbol
  _atom_site_label
  _atom_site_symmetry_multiplicity
  _atom_site_fract_x
  _atom_site_fract_y
  _atom_site_fract_z
  _atom_site_occupancy
  Cd  Cd1       1.0  0.04446  0.17167  0.49187  1.0000
  Cd  Cd2       1.0  0.95554  0.82834  0.50813  1.0000
  H   H1        1.0  0.07210  0.77862  0.75366  1.0000
  H   H2        1.0  0.92790  0.22138  0.24635  1.0000
  H   H3        1.0  0.36923  0.72388  0.75318  1.0000
  H   H4        1.0  0.63077  0.27612  0.24682  1.0000
  H   H5        1.0  0.34085  0.77084  0.61803  1.0000
  H   H6        1.0  0.65915  0.22917  0.38197  1.0000
  H   H7        1.0  0.41366  0.99725  0.61257  1.0000
  H   H8        1.0  0.58634  0.00275  0.38743  1.0000
  H   H9        1.0  0.43717  0.95608  0.74849  1.0000
  H   H10       1.0  0.56283  0.04392  0.25151  1.0000
  H   H11       1.0  0.78973  0.97493  0.90785  1.0000
  H   H12       1.0  0.21027  0.02506  0.09215  1.0000
  H   H13       1.0  0.50402  0.93547  0.91213  1.0000
  H   H14       1.0  0.49598  0.06453  0.08787  1.0000
  H   H15       1.0  0.40908  0.71182  0.97437  1.0000
  H   H16       1.0  0.59092  0.28817  0.02563  1.0000
  H   H17       1.0  0.60120  0.52510  0.03485  1.0000
  H   H18       1.0  0.39880  0.47490  0.96515  1.0000
  H   H19       1.0  0.88505  0.56316  0.02942  1.0000
  H   H20       1.0  0.11495  0.43684  0.97058  1.0000
  H   H21       1.0  0.20388  0.34179  0.25535  1.0000
  H   H22       1.0  0.79612  0.65821  0.74465  1.0000
  H   H23       1.0  0.16898  0.56866  0.14794  1.0000
  H   H24       1.0  0.83102  0.43133  0.85206  1.0000
  H   H25       1.0  0.93805  0.72892  0.23384  1.0000
  H   H26       1.0  0.06196  0.27108  0.76616  1.0000
  H   H27       1.0  0.74628  0.65772  0.41583  1.0000
  H   H28       1.0  0.25372  0.34228  0.58416  1.0000
  H   H29       1.0  0.59581  0.58803  0.56299  1.0000
  H   H30       1.0  0.40419  0.41197  0.43701  1.0000
  H   H31       1.0  0.40341  0.48253  0.73292  1.0000
  H   H32       1.0  0.59658  0.51747  0.26708  1.0000
  H   H33       1.0  0.46480  0.24337  0.80211  1.0000
  H   H34       1.0  0.53520  0.75663  0.19789  1.0000
  H   H35       1.0  0.72599  0.12135  0.69957  1.0000
  H   H36       1.0  0.27401  0.87865  0.30043  1.0000
  H   H37       1.0  0.08025  0.99359  0.85966  1.0000
  H   H38       1.0  0.91974  0.00641  0.14034  1.0000
  C   C1        1.0  0.09812  0.97409  0.66853  1.0000
  C   C2        1.0  0.90188  0.02590  0.33147  1.0000
  C   C3        1.0  0.15237  0.85687  0.74587  1.0000
  C   C4        1.0  0.84763  0.14313  0.25413  1.0000
  C   C5        1.0  0.33333  0.80702  0.69530  1.0000
  C   C6        1.0  0.66666  0.19298  0.30470  1.0000
  C   C7        1.0  0.44868  0.91568  0.67251  1.0000
  C   C8        1.0  0.55131  0.08432  0.32749  1.0000
  C   C9        1.0  0.62898  0.87050  0.62388  1.0000
  C   C10       1.0  0.37102  0.12950  0.37612  1.0000
  C   C11       1.0  0.85296  0.77108  0.96879  1.0000
  C   C12       1.0  0.14704  0.22892  0.03121  1.0000
  C   C13       1.0  0.74710  0.87704  0.93615  1.0000
  C   C14       1.0  0.25290  0.12296  0.06385  1.0000
  C   C15       1.0  0.58719  0.85437  0.93871  1.0000
  C   C16       1.0  0.41281  0.14563  0.06128  1.0000
  C   C17       1.0  0.53393  0.72832  0.97358  1.0000
  C   C18       1.0  0.46607  0.27168  0.02642  1.0000
  C   C19       1.0  0.64084  0.62388  0.00694  1.0000
  C   C20       1.0  0.35917  0.37612  0.99306  1.0000
  C   C21       1.0  0.80121  0.64464  0.00468  1.0000
  C   C22       1.0  0.19880  0.35536  0.99532  1.0000
  C   C23       1.0  0.10407  0.41546  0.28707  1.0000
  C   C24       1.0  0.89593  0.58454  0.71293  1.0000
  C   C25       1.0  0.08447  0.54069  0.22838  1.0000
  C   C26       1.0  0.91553  0.45931  0.77162  1.0000
  C   C27       1.0  0.95402  0.62878  0.27540  1.0000
  C   C28       1.0  0.04598  0.37123  0.72460  1.0000
  C   C29       1.0  0.84672  0.58869  0.37794  1.0000
  C   C30       1.0  0.15328  0.41131  0.62206  1.0000
  C   C31       1.0  0.87248  0.46046  0.43158  1.0000
  C   C32       1.0  0.12752  0.53954  0.56842  1.0000
  C   C33       1.0  0.75935  0.40802  0.53876  1.0000
  C   C34       1.0  0.24065  0.59199  0.46124  1.0000
  C   C35       1.0  0.61950  0.48408  0.59346  1.0000
  C   C36       1.0  0.38050  0.51592  0.40654  1.0000
  C   C37       1.0  0.51293  0.42525  0.68932  1.0000
  C   C38       1.0  0.48707  0.57476  0.31068  1.0000
  C   C39       1.0  0.54694  0.29281  0.72848  1.0000
  C   C40       1.0  0.45306  0.70720  0.27152  1.0000
  C   C41       1.0  0.69129  0.22464  0.67227  1.0000
  C   C42       1.0  0.30871  0.77536  0.32773  1.0000
  S   S1        1.0  0.05910  0.79550  0.96464  1.0000
  S   S2        1.0  0.94090  0.20451  0.03536  1.0000
  N   N1        1.0  0.12993  0.89743  0.85441  1.0000
  N   N2        1.0  0.87007  0.10257  0.14559  1.0000
  N   N3        1.0  0.00097  0.37711  0.38565  1.0000
  N   N4        1.0  0.99903  0.62289  0.61435  1.0000
  N   N5        1.0  0.79447  0.28159  0.58056  1.0000
  N   N6        1.0  0.20553  0.71841  0.41944  1.0000
  O   O1        1.0  0.04896  0.08379  0.70087  1.0000
  O   O2        1.0  0.95103  0.91621  0.29914  1.0000
  O   O3        1.0  0.11477  0.95349  0.56940  1.0000
  O   O4        1.0  0.88523  0.04651  0.43060  1.0000
  O   O5        1.0  0.66622  0.80846  0.54011  1.0000
  O   O6        1.0  0.33378  0.19153  0.45989  1.0000
  O   O7        1.0  0.73801  0.89796  0.66549  1.0000
  O   O8        1.0  0.26199  0.10204  0.33451  1.0000
  O   O9        1.0  0.05413  0.85906  0.05823  1.0000
  O   O10       1.0  0.94586  0.14094  0.94177  1.0000
  O   O11       1.0  0.15645  0.66939  0.95282  1.0000
  O   O12       1.0  0.84355  0.33060  0.04718  1.0000
