data_image0
_chemical_formula_structural       Cd2H26C22S2N2O14
_chemical_formula_sum              "Cd2 H26 C22 S2 N2 O14"
_cell_length_a       5.17403
_cell_length_b       7.72813
_cell_length_c       17.0474
_cell_angle_alpha    96.141
_cell_angle_beta     89.999
_cell_angle_gamma    90.0014

_space_group_name_H-M_alt    "P 1"
_space_group_IT_number       1

loop_
  _space_group_symop_operation_xyz
  'x, y, z'

loop_
  _atom_site_type_symbol
  _atom_site_label
  _atom_site_symmetry_multiplicity
  _atom_site_fract_x
  _atom_site_fract_y
  _atom_site_fract_z
  _atom_site_occupancy
  Cd  Cd1       1.0  0.41247  0.07977  0.60701  1.0000
  Cd  Cd2       1.0  0.91245  0.92022  0.39299  1.0000
  H   H1        1.0  0.05675  0.57548  0.76042  1.0000
  H   H2        1.0  0.55671  0.42452  0.23959  1.0000
  H   H3        1.0  0.57257  0.42262  0.68835  1.0000
  H   H4        1.0  0.07253  0.57736  0.31165  1.0000
  H   H5        1.0  0.04523  0.54849  0.60249  1.0000
  H   H6        1.0  0.54523  0.45150  0.39750  1.0000
  H   H7        1.0  0.80790  0.40766  0.55525  1.0000
  H   H8        1.0  0.30791  0.59233  0.44475  1.0000
  H   H9        1.0  0.46556  0.62386  0.58565  1.0000
  H   H10       1.0  0.96557  0.37611  0.41435  1.0000
  H   H11       1.0  0.67617  0.75991  0.64542  1.0000
  H   H12       1.0  0.17616  0.24007  0.35458  1.0000
  H   H13       1.0  0.31216  0.34289  0.81384  1.0000
  H   H14       1.0  0.81217  0.65714  0.18616  1.0000
  H   H15       1.0  0.30205  0.07924  0.88509  1.0000
  H   H16       1.0  0.80211  0.92079  0.11491  1.0000
  H   H17       1.0  0.63819  0.03636  0.98583  1.0000
  H   H18       1.0  0.13825  0.96365  0.01417  1.0000
  H   H19       1.0  0.98294  0.25839  0.01559  1.0000
  H   H20       1.0  0.48298  0.74161  0.98441  1.0000
  H   H21       1.0  0.99082  0.52433  0.94537  1.0000
  H   H22       1.0  0.49083  0.47568  0.05463  1.0000
  H   H23       1.0  0.25400  0.84027  0.71980  1.0000
  H   H24       1.0  0.75397  0.15973  0.28021  1.0000
  H   H25       1.0  0.02793  0.95684  0.68695  1.0000
  H   H26       1.0  0.52790  0.04315  0.31305  1.0000
  C   C1        1.0  0.92371  0.26900  0.68486  1.0000
  C   C2        1.0  0.42370  0.73099  0.31514  1.0000
  C   C3        1.0  0.78161  0.44220  0.68257  1.0000
  C   C4        1.0  0.28157  0.55780  0.31743  1.0000
  C   C5        1.0  0.84065  0.51129  0.60329  1.0000
  C   C6        1.0  0.34065  0.48870  0.39671  1.0000
  C   C7        1.0  0.66844  0.66565  0.59240  1.0000
  C   C8        1.0  0.16845  0.33433  0.40760  1.0000
  C   C9        1.0  0.73487  0.76009  0.52235  1.0000
  C   C10       1.0  0.23487  0.23989  0.47765  1.0000
  C   C11       1.0  0.65059  0.44876  0.87624  1.0000
  C   C12       1.0  0.15060  0.55126  0.12376  1.0000
  C   C13       1.0  0.45626  0.32500  0.85872  1.0000
  C   C14       1.0  0.95629  0.67502  0.14128  1.0000
  C   C15       1.0  0.45298  0.17644  0.89857  1.0000
  C   C16       1.0  0.95302  0.82358  0.10143  1.0000
  C   C17       1.0  0.64128  0.15263  0.95505  1.0000
  C   C18       1.0  0.14133  0.84737  0.04494  1.0000
  C   C19       1.0  0.83508  0.27707  0.97177  1.0000
  C   C20       1.0  0.33514  0.72293  0.02823  1.0000
  C   C21       1.0  0.84133  0.42621  0.93244  1.0000
  C   C22       1.0  0.34134  0.57380  0.06756  1.0000
  S   S1        1.0  0.67564  0.63118  0.82169  1.0000
  S   S2        1.0  0.17561  0.36884  0.17831  1.0000
  N   N1        1.0  0.86351  0.57299  0.74655  1.0000
  N   N2        1.0  0.36347  0.42702  0.25344  1.0000
  O   O1        1.0  0.16659  0.27712  0.69359  1.0000
  O   O2        1.0  0.66658  0.72288  0.30640  1.0000
  O   O3        1.0  0.79755  0.12527  0.67434  1.0000
  O   O4        1.0  0.29754  0.87473  0.32567  1.0000
  O   O5        1.0  0.90650  0.70023  0.47381  1.0000
  O   O6        1.0  0.40651  0.29976  0.52619  1.0000
  O   O7        1.0  0.61217  0.90059  0.51156  1.0000
  O   O8        1.0  0.11217  0.09940  0.48844  1.0000
  O   O9        1.0  0.80938  0.76930  0.86894  1.0000
  O   O10       1.0  0.30936  0.23071  0.13105  1.0000
  O   O11       1.0  0.42094  0.66370  0.78961  1.0000
  O   O12       1.0  0.92090  0.33631  0.21039  1.0000
  O   O13       1.0  0.18268  0.88355  0.67233  1.0000
  O   O14       1.0  0.68265  0.11644  0.32768  1.0000
