data_image0
_chemical_formula_structural       Na4H48C24S4N4O12
_chemical_formula_sum              "Na4 H48 C24 S4 N4 O12"
_cell_length_a       6.27613
_cell_length_b       8.44235
_cell_length_c       15.7323
_cell_angle_alpha    93.7204
_cell_angle_beta     101.514
_cell_angle_gamma    90.0074

_space_group_name_H-M_alt    "P 1"
_space_group_IT_number       1

loop_
  _space_group_symop_operation_xyz
  'x, y, z'

loop_
  _atom_site_type_symbol
  _atom_site_label
  _atom_site_symmetry_multiplicity
  _atom_site_fract_x
  _atom_site_fract_y
  _atom_site_fract_z
  _atom_site_occupancy
  Na  Na1       1.0  0.86030  0.18735  0.46233  1.0000
  Na  Na2       1.0  0.39785  0.31266  0.53760  1.0000
  Na  Na3       1.0  0.13970  0.81265  0.53767  1.0000
  Na  Na4       1.0  0.60215  0.68734  0.46240  1.0000
  H   H1        1.0  0.11443  0.87944  0.22689  1.0000
  H   H2        1.0  0.88755  0.62035  0.77308  1.0000
  H   H3        1.0  0.88556  0.12055  0.77311  1.0000
  H   H4        1.0  0.11245  0.37965  0.22692  1.0000
  H   H5        1.0  0.85694  0.90336  0.32882  1.0000
  H   H6        1.0  0.52826  0.59596  0.67115  1.0000
  H   H7        1.0  0.14306  0.09664  0.67118  1.0000
  H   H8        1.0  0.47174  0.40403  0.32885  1.0000
  H   H9        1.0  0.73887  0.07189  0.27702  1.0000
  H   H10       1.0  0.46235  0.42723  0.72290  1.0000
  H   H11       1.0  0.26113  0.92811  0.72299  1.0000
  H   H12       1.0  0.53765  0.57277  0.27711  1.0000
  H   H13       1.0  0.51439  0.83314  0.22305  1.0000
  H   H14       1.0  0.29107  0.66571  0.77679  1.0000
  H   H15       1.0  0.48561  0.16686  0.77695  1.0000
  H   H16       1.0  0.70893  0.33428  0.22320  1.0000
  H   H17       1.0  0.74197  0.73181  0.19747  1.0000
  H   H18       1.0  0.54406  0.76736  0.80251  1.0000
  H   H19       1.0  0.25804  0.26819  0.80253  1.0000
  H   H20       1.0  0.45594  0.23264  0.19749  1.0000
  H   H21       1.0  0.51916  0.82669  0.06251  1.0000
  H   H22       1.0  0.45633  0.67235  0.93738  1.0000
  H   H23       1.0  0.48085  0.17330  0.93749  1.0000
  H   H24       1.0  0.54366  0.32765  0.06262  1.0000
  H   H25       1.0  0.52407  0.02196  0.11045  1.0000
  H   H26       1.0  0.41370  0.47699  0.88951  1.0000
  H   H27       1.0  0.47593  0.97804  0.88954  1.0000
  H   H28       1.0  0.58630  0.52300  0.11049  1.0000
  H   H29       1.0  0.79243  0.00354  0.01552  1.0000
  H   H30       1.0  0.77707  0.49602  0.98448  1.0000
  H   H31       1.0  0.20757  0.99645  0.98448  1.0000
  H   H32       1.0  0.22292  0.50398  0.01552  1.0000
  H   H33       1.0  0.91609  0.83892  0.06804  1.0000
  H   H34       1.0  0.84756  0.66082  0.93188  1.0000
  H   H35       1.0  0.08392  0.16108  0.93196  1.0000
  H   H36       1.0  0.15244  0.33918  0.06812  1.0000
  H   H37       1.0  0.90192  0.17695  0.15053  1.0000
  H   H38       1.0  0.75206  0.32261  0.84948  1.0000
  H   H39       1.0  0.09807  0.82305  0.84947  1.0000
  H   H40       1.0  0.24794  0.67739  0.15052  1.0000
  H   H41       1.0  0.13395  0.08233  0.12398  1.0000
  H   H42       1.0  0.01035  0.41764  0.87612  1.0000
  H   H43       1.0  0.86605  0.91767  0.87602  1.0000
  H   H44       1.0  0.98965  0.58237  0.12388  1.0000
  H   H45       1.0  0.11817  0.20553  0.30810  1.0000
  H   H46       1.0  0.81016  0.29428  0.69184  1.0000
  H   H47       1.0  0.88183  0.79448  0.69190  1.0000
  H   H48       1.0  0.18984  0.70572  0.30816  1.0000
  C   C1        1.0  0.02945  0.99170  0.23447  1.0000
  C   C2        1.0  0.79523  0.50797  0.76555  1.0000
  C   C3        1.0  0.97054  0.00830  0.76553  1.0000
  C   C4        1.0  0.20477  0.49203  0.23445  1.0000
  C   C5        1.0  0.81963  0.95848  0.26630  1.0000
  C   C6        1.0  0.55350  0.54080  0.73365  1.0000
  C   C7        1.0  0.18037  0.04153  0.73370  1.0000
  C   C8        1.0  0.44650  0.45919  0.26634  1.0000
  C   C9        1.0  0.66634  0.84934  0.19992  1.0000
  C   C10       1.0  0.46618  0.64976  0.79996  1.0000
  C   C11       1.0  0.33366  0.15067  0.80008  1.0000
  C   C12       1.0  0.53381  0.35024  0.20003  1.0000
  C   C13       1.0  0.61993  0.91269  0.10929  1.0000
  C   C14       1.0  0.51042  0.58642  0.89062  1.0000
  C   C15       1.0  0.38007  0.08731  0.89071  1.0000
  C   C16       1.0  0.48957  0.41358  0.10937  1.0000
  C   C17       1.0  0.82980  0.94993  0.07855  1.0000
  C   C18       1.0  0.75114  0.54960  0.92143  1.0000
  C   C19       1.0  0.17021  0.05007  0.92145  1.0000
  C   C20       1.0  0.24886  0.45040  0.07857  1.0000
  C   C21       1.0  0.98022  0.06074  0.14507  1.0000
  C   C22       1.0  0.83547  0.43894  0.85497  1.0000
  C   C23       1.0  0.01978  0.93926  0.85493  1.0000
  C   C24       1.0  0.16454  0.56106  0.14503  1.0000
  S   S1        1.0  0.31747  0.03734  0.38775  1.0000
  S   S2        1.0  0.92960  0.46256  0.61218  1.0000
  S   S3        1.0  0.68253  0.96267  0.61225  1.0000
  S   S4        1.0  0.07040  0.53744  0.38782  1.0000
  N   N1        1.0  0.18613  0.09834  0.29392  1.0000
  N   N2        1.0  0.89240  0.40147  0.70604  1.0000
  N   N3        1.0  0.81387  0.90166  0.70608  1.0000
  N   N4        1.0  0.10760  0.59853  0.29396  1.0000
  O   O1        1.0  0.49111  0.15733  0.41684  1.0000
  O   O2        1.0  0.07458  0.34290  0.58317  1.0000
  O   O3        1.0  0.50889  0.84267  0.58316  1.0000
  O   O4        1.0  0.92542  0.65709  0.41684  1.0000
  O   O5        1.0  0.17113  0.03847  0.45118  1.0000
  O   O6        1.0  0.71986  0.46091  0.54868  1.0000
  O   O7        1.0  0.82886  0.96153  0.54881  1.0000
  O   O8        1.0  0.28014  0.53909  0.45132  1.0000
  O   O9        1.0  0.39411  0.87725  0.36847  1.0000
  O   O10       1.0  0.02478  0.62289  0.63141  1.0000
  O   O11       1.0  0.60589  0.12274  0.63153  1.0000
  O   O12       1.0  0.97523  0.37711  0.36859  1.0000
