data_image0
_chemical_formula_structural       Rb4H48C24S4N4O12
_chemical_formula_sum              "Rb4 H48 C24 S4 N4 O12"
_cell_length_a       6.39487
_cell_length_b       8.62626
_cell_length_c       17.4788
_cell_angle_alpha    93.5833
_cell_angle_beta     100.538
_cell_angle_gamma    89.9873

_space_group_name_H-M_alt    "P 1"
_space_group_IT_number       1

loop_
  _space_group_symop_operation_xyz
  'x, y, z'

loop_
  _atom_site_type_symbol
  _atom_site_label
  _atom_site_symmetry_multiplicity
  _atom_site_fract_x
  _atom_site_fract_y
  _atom_site_fract_z
  _atom_site_occupancy
  Rb  Rb1       1.0  0.28798  0.88307  0.43558  1.0000
  Rb  Rb2       1.0  0.85257  0.61699  0.56435  1.0000
  Rb  Rb3       1.0  0.71203  0.11693  0.56442  1.0000
  Rb  Rb4       1.0  0.14744  0.38301  0.43566  1.0000
  H   H1        1.0  0.92684  0.74619  0.23699  1.0000
  H   H2        1.0  0.69007  0.75373  0.76294  1.0000
  H   H3        1.0  0.07317  0.25380  0.76302  1.0000
  H   H4        1.0  0.30992  0.24627  0.23706  1.0000
  H   H5        1.0  0.59418  0.99770  0.19473  1.0000
  H   H6        1.0  0.40025  0.50195  0.80524  1.0000
  H   H7        1.0  0.40582  0.00229  0.80527  1.0000
  H   H8        1.0  0.59975  0.49806  0.19476  1.0000
  H   H9        1.0  0.53913  0.80043  0.20577  1.0000
  H   H10       1.0  0.33370  0.69929  0.79421  1.0000
  H   H11       1.0  0.46086  0.19956  0.79423  1.0000
  H   H12       1.0  0.66630  0.30072  0.20578  1.0000
  H   H13       1.0  0.71493  0.71833  0.09416  1.0000
  H   H14       1.0  0.62102  0.78147  0.90580  1.0000
  H   H15       1.0  0.28507  0.28165  0.90585  1.0000
  H   H16       1.0  0.37898  0.21855  0.09420  1.0000
  H   H17       1.0  0.51179  0.85187  0.06422  1.0000
  H   H18       1.0  0.44813  0.64770  0.93573  1.0000
  H   H19       1.0  0.48819  0.14812  0.93578  1.0000
  H   H20       1.0  0.55186  0.35231  0.06427  1.0000
  H   H21       1.0  0.84766  0.91196  0.01505  1.0000
  H   H22       1.0  0.83329  0.58793  0.98483  1.0000
  H   H23       1.0  0.15234  0.08801  0.98495  1.0000
  H   H24       1.0  0.16672  0.41209  0.01517  1.0000
  H   H25       1.0  0.77706  0.06608  0.07670  1.0000
  H   H26       1.0  0.70131  0.43373  0.92324  1.0000
  H   H27       1.0  0.22294  0.93390  0.92329  1.0000
  H   H28       1.0  0.29869  0.56629  0.07676  1.0000
  H   H29       1.0  0.16411  0.01733  0.11236  1.0000
  H   H30       1.0  0.05255  0.48271  0.88747  1.0000
  H   H31       1.0  0.83589  0.98266  0.88764  1.0000
  H   H32       1.0  0.94744  0.51729  0.11253  1.0000
  H   H33       1.0  0.11600  0.81921  0.12270  1.0000
  H   H34       1.0  0.99362  0.68080  0.87715  1.0000
  H   H35       1.0  0.88400  0.18078  0.87730  1.0000
  H   H36       1.0  0.00638  0.31921  0.12285  1.0000
  H   H37       1.0  0.19071  0.96249  0.25284  1.0000
  H   H38       1.0  0.93832  0.53759  0.74705  1.0000
  H   H39       1.0  0.80929  0.03751  0.74716  1.0000
  H   H40       1.0  0.06167  0.46242  0.25295  1.0000
  H   H41       1.0  0.98417  0.09427  0.22342  1.0000
  H   H42       1.0  0.76159  0.40558  0.77643  1.0000
  H   H43       1.0  0.01582  0.90572  0.77658  1.0000
  H   H44       1.0  0.23841  0.59443  0.22357  1.0000
  H   H45       1.0  0.80974  0.01842  0.33293  1.0000
  H   H46       1.0  0.47698  0.48151  0.66700  1.0000
  H   H47       1.0  0.19027  0.98158  0.66707  1.0000
  H   H48       1.0  0.52301  0.51849  0.33300  1.0000
  C   C1        1.0  0.87113  0.86703  0.24058  1.0000
  C   C2        1.0  0.63090  0.63285  0.75935  1.0000
  C   C3        1.0  0.12887  0.13297  0.75942  1.0000
  C   C4        1.0  0.36910  0.36716  0.24065  1.0000
  C   C5        1.0  0.65315  0.87846  0.18716  1.0000
  C   C6        1.0  0.46647  0.62128  0.81281  1.0000
  C   C7        1.0  0.34686  0.12153  0.81285  1.0000
  C   C8        1.0  0.53353  0.37873  0.18719  1.0000
  C   C9        1.0  0.66873  0.84097  0.10166  1.0000
  C   C10       1.0  0.56762  0.65876  0.89828  1.0000
  C   C11       1.0  0.33127  0.15901  0.89835  1.0000
  C   C12       1.0  0.43238  0.34126  0.10172  1.0000
  C   C13       1.0  0.83314  0.94495  0.07566  1.0000
  C   C14       1.0  0.75819  0.55491  0.92423  1.0000
  C   C15       1.0  0.16685  0.05503  0.92434  1.0000
  C   C16       1.0  0.24181  0.44511  0.07577  1.0000
  C   C17       1.0  0.05010  0.93657  0.12942  1.0000
  C   C18       1.0  0.92128  0.56337  0.87044  1.0000
  C   C19       1.0  0.94989  0.06342  0.87058  1.0000
  C   C20       1.0  0.07873  0.43665  0.12956  1.0000
  C   C21       1.0  0.03449  0.97294  0.21495  1.0000
  C   C22       1.0  0.82001  0.52698  0.78495  1.0000
  C   C23       1.0  0.96550  0.02705  0.78505  1.0000
  C   C24       1.0  0.17999  0.47302  0.21505  1.0000
  S   S1        1.0  0.77478  0.78073  0.37583  1.0000
  S   S2        1.0  0.39922  0.71929  0.62418  1.0000
  S   S3        1.0  0.22523  0.21927  0.62417  1.0000
  S   S4        1.0  0.60078  0.28071  0.37582  1.0000
  N   N1        1.0  0.86766  0.90825  0.32346  1.0000
  N   N2        1.0  0.54442  0.59168  0.67650  1.0000
  N   N3        1.0  0.13235  0.09176  0.67654  1.0000
  N   N4        1.0  0.45558  0.40833  0.32350  1.0000
  O   O1        1.0  0.78201  0.86631  0.45212  1.0000
  O   O2        1.0  0.33023  0.63383  0.54785  1.0000
  O   O3        1.0  0.21801  0.13370  0.54788  1.0000
  O   O4        1.0  0.66977  0.36617  0.45215  1.0000
  O   O5        1.0  0.55617  0.72999  0.34004  1.0000
  O   O6        1.0  0.21638  0.76989  0.66002  1.0000
  O   O7        1.0  0.44383  0.27001  0.65997  1.0000
  O   O8        1.0  0.78361  0.23011  0.33997  1.0000
  O   O9        1.0  0.92498  0.65114  0.37930  1.0000
  O   O10       1.0  0.54584  0.84891  0.62077  1.0000
  O   O11       1.0  0.07504  0.34886  0.62070  1.0000
  O   O12       1.0  0.45415  0.15110  0.37923  1.0000
