data_image0
_chemical_formula_structural       Ag12H28C52N8O24
_chemical_formula_sum              "Ag12 H28 C52 N8 O24"
_cell_length_a       10.1114
_cell_length_b       10.1114
_cell_length_c       15.4014
_cell_angle_alpha    92.2602
_cell_angle_beta     92.2603
_cell_angle_gamma    109.087

_space_group_name_H-M_alt    "P 1"
_space_group_IT_number       1

loop_
  _space_group_symop_operation_xyz
  'x, y, z'

loop_
  _atom_site_type_symbol
  _atom_site_label
  _atom_site_symmetry_multiplicity
  _atom_site_fract_x
  _atom_site_fract_y
  _atom_site_fract_z
  _atom_site_occupancy
  Ag  Ag1       1.0  0.05567  0.54781  0.92467  1.0000
  Ag  Ag2       1.0  0.45219  0.94433  0.57533  1.0000
  Ag  Ag3       1.0  0.94433  0.45219  0.07533  1.0000
  Ag  Ag4       1.0  0.54781  0.05567  0.42467  1.0000
  Ag  Ag5       1.0  0.91140  0.24839  0.85549  1.0000
  Ag  Ag6       1.0  0.75161  0.08860  0.64451  1.0000
  Ag  Ag7       1.0  0.08860  0.75161  0.14451  1.0000
  Ag  Ag8       1.0  0.24839  0.91139  0.35549  1.0000
  Ag  Ag9       1.0  0.80875  0.44117  0.78245  1.0000
  Ag  Ag10      1.0  0.55883  0.19125  0.71755  1.0000
  Ag  Ag11      1.0  0.19125  0.55883  0.21755  1.0000
  Ag  Ag12      1.0  0.44117  0.80875  0.28245  1.0000
  H   H1        1.0  0.42391  0.39328  0.92883  1.0000
  H   H2        1.0  0.60672  0.57609  0.57118  1.0000
  H   H3        1.0  0.57609  0.60672  0.07118  1.0000
  H   H4        1.0  0.39328  0.42391  0.42883  1.0000
  H   H5        1.0  0.58855  0.10934  0.06149  1.0000
  H   H6        1.0  0.89066  0.41146  0.43851  1.0000
  H   H7        1.0  0.41146  0.89067  0.93851  1.0000
  H   H8        1.0  0.10933  0.58854  0.56149  1.0000
  H   H9        1.0  0.22398  0.18992  0.15201  1.0000
  H   H10       1.0  0.81008  0.77603  0.34799  1.0000
  H   H11       1.0  0.77603  0.81008  0.84799  1.0000
  H   H12       1.0  0.18992  0.22397  0.65201  1.0000
  H   H13       1.0  0.32250  0.56043  0.81700  1.0000
  H   H14       1.0  0.43957  0.67750  0.68300  1.0000
  H   H15       1.0  0.67750  0.43957  0.18300  1.0000
  H   H16       1.0  0.56043  0.32250  0.31700  1.0000
  H   H17       1.0  0.06329  0.80429  0.81268  1.0000
  H   H18       1.0  0.19571  0.93671  0.68732  1.0000
  H   H19       1.0  0.93671  0.19571  0.18732  1.0000
  H   H20       1.0  0.80429  0.06329  0.31268  1.0000
  H   H21       1.0  0.81434  0.09847  0.02556  1.0000
  H   H22       1.0  0.90153  0.18566  0.47444  1.0000
  H   H23       1.0  0.18566  0.90153  0.97444  1.0000
  H   H24       1.0  0.09847  0.81434  0.52556  1.0000
  H   H25       1.0  0.13300  0.07166  0.87199  1.0000
  H   H26       1.0  0.92834  0.86700  0.62801  1.0000
  H   H27       1.0  0.86700  0.92834  0.12801  1.0000
  H   H28       1.0  0.07166  0.13300  0.37199  1.0000
  C   C1        1.0  0.20085  0.36649  0.02734  1.0000
  C   C2        1.0  0.63350  0.79916  0.47265  1.0000
  C   C3        1.0  0.79916  0.63350  0.97266  1.0000
  C   C4        1.0  0.36649  0.20085  0.52734  1.0000
  C   C5        1.0  0.63948  0.29094  0.93002  1.0000
  C   C6        1.0  0.70906  0.36052  0.56998  1.0000
  C   C7        1.0  0.36052  0.70906  0.06998  1.0000
  C   C8        1.0  0.29094  0.63948  0.43002  1.0000
  C   C9        1.0  0.39156  0.03698  0.18449  1.0000
  C   C10       1.0  0.96301  0.60844  0.31551  1.0000
  C   C11       1.0  0.60844  0.96301  0.81551  1.0000
  C   C12       1.0  0.03698  0.39156  0.68449  1.0000
  C   C13       1.0  0.31184  0.29917  0.03923  1.0000
  C   C14       1.0  0.70082  0.68817  0.46076  1.0000
  C   C15       1.0  0.68817  0.70082  0.96077  1.0000
  C   C16       1.0  0.29917  0.31184  0.53923  1.0000
  C   C17       1.0  0.41890  0.32274  0.98104  1.0000
  C   C18       1.0  0.67726  0.58110  0.51896  1.0000
  C   C19       1.0  0.58110  0.67726  0.01896  1.0000
  C   C20       1.0  0.32274  0.41890  0.48104  1.0000
  C   C21       1.0  0.52059  0.25718  0.98983  1.0000
  C   C22       1.0  0.74282  0.47941  0.51017  1.0000
  C   C23       1.0  0.47941  0.74282  0.01017  1.0000
  C   C24       1.0  0.25718  0.52059  0.48983  1.0000
  C   C25       1.0  0.51144  0.16280  0.05534  1.0000
  C   C26       1.0  0.83720  0.48856  0.44466  1.0000
  C   C27       1.0  0.48856  0.83720  0.94466  1.0000
  C   C28       1.0  0.16280  0.51144  0.55534  1.0000
  C   C29       1.0  0.40401  0.13762  0.11355  1.0000
  C   C30       1.0  0.86238  0.59599  0.38645  1.0000
  C   C31       1.0  0.59599  0.86238  0.88645  1.0000
  C   C32       1.0  0.13762  0.40401  0.61355  1.0000
  C   C33       1.0  0.30631  0.20839  0.10614  1.0000
  C   C34       1.0  0.79161  0.69369  0.39386  1.0000
  C   C35       1.0  0.69369  0.79161  0.89386  1.0000
  C   C36       1.0  0.20839  0.30631  0.60614  1.0000
  C   C37       1.0  0.29261  0.64263  0.78628  1.0000
  C   C38       1.0  0.35737  0.70739  0.71372  1.0000
  C   C39       1.0  0.70739  0.35736  0.21372  1.0000
  C   C40       1.0  0.64263  0.29261  0.28628  1.0000
  C   C41       1.0  0.15080  0.77999  0.78482  1.0000
  C   C42       1.0  0.22001  0.84920  0.71518  1.0000
  C   C43       1.0  0.84920  0.22001  0.21518  1.0000
  C   C44       1.0  0.77999  0.15080  0.28482  1.0000
  C   C45       1.0  0.89747  0.05398  0.01484  1.0000
  C   C46       1.0  0.94602  0.10254  0.48516  1.0000
  C   C47       1.0  0.10254  0.94602  0.98516  1.0000
  C   C48       1.0  0.05398  0.89747  0.51484  1.0000
  C   C49       1.0  0.07264  0.03852  0.92908  1.0000
  C   C50       1.0  0.96148  0.92736  0.57092  1.0000
  C   C51       1.0  0.92736  0.96148  0.07092  1.0000
  C   C52       1.0  0.03852  0.07264  0.42908  1.0000
  N   N1        1.0  0.18873  0.67830  0.82078  1.0000
  N   N2        1.0  0.32170  0.81127  0.67922  1.0000
  N   N3        1.0  0.81127  0.32170  0.17922  1.0000
  N   N4        1.0  0.67830  0.18873  0.32078  1.0000
  N   N5        1.0  0.97015  0.09232  0.94372  1.0000
  N   N6        1.0  0.90768  0.02985  0.55628  1.0000
  N   N7        1.0  0.02985  0.90768  0.05628  1.0000
  N   N8        1.0  0.09232  0.97015  0.44372  1.0000
  O   O1        1.0  0.73857  0.24310  0.94725  1.0000
  O   O2        1.0  0.75690  0.26144  0.55275  1.0000
  O   O3        1.0  0.26143  0.75690  0.05275  1.0000
  O   O4        1.0  0.24310  0.73857  0.44725  1.0000
  O   O5        1.0  0.20144  0.43048  0.95787  1.0000
  O   O6        1.0  0.56952  0.79856  0.54213  1.0000
  O   O7        1.0  0.79856  0.56952  0.04213  1.0000
  O   O8        1.0  0.43048  0.20144  0.45787  1.0000
  O   O9        1.0  0.11275  0.35105  0.08663  1.0000
  O   O10       1.0  0.64895  0.88725  0.41337  1.0000
  O   O11       1.0  0.88725  0.64895  0.91337  1.0000
  O   O12       1.0  0.35105  0.11275  0.58663  1.0000
  O   O13       1.0  0.63187  0.36748  0.86691  1.0000
  O   O14       1.0  0.63252  0.36813  0.63309  1.0000
  O   O15       1.0  0.36813  0.63252  0.13308  1.0000
  O   O16       1.0  0.36748  0.63187  0.36691  1.0000
  O   O17       1.0  0.48200  0.97401  0.18982  1.0000
  O   O18       1.0  0.02599  0.51801  0.31018  1.0000
  O   O19       1.0  0.51801  0.02599  0.81018  1.0000
  O   O20       1.0  0.97401  0.48200  0.68982  1.0000
  O   O21       1.0  0.29017  0.02389  0.23397  1.0000
  O   O22       1.0  0.97610  0.70982  0.26603  1.0000
  O   O23       1.0  0.70983  0.97610  0.76603  1.0000
  O   O24       1.0  0.02389  0.29017  0.73397  1.0000
