data_image0
_chemical_formula_structural       Cd2H16C4Br4N4
_chemical_formula_sum              "Cd2 H16 C4 Br4 N4"
_cell_length_a       4.30199
_cell_length_b       7.86644
_cell_length_c       10.1048
_cell_angle_alpha    90
_cell_angle_beta     90.0012
_cell_angle_gamma    89.9999

_space_group_name_H-M_alt    "P 1"
_space_group_IT_number       1

loop_
  _space_group_symop_operation_xyz
  'x, y, z'

loop_
  _atom_site_type_symbol
  _atom_site_label
  _atom_site_symmetry_multiplicity
  _atom_site_fract_x
  _atom_site_fract_y
  _atom_site_fract_z
  _atom_site_occupancy
  Cd  Cd1       1.0  1.00000  1.00000  0.50000  1.0000
  Cd  Cd2       1.0  0.99999  0.50000  1.00000  1.0000
  H   H1        1.0  0.18912  0.29033  0.36555  1.0000
  H   H2        1.0  0.18911  0.70967  0.63445  1.0000
  H   H3        1.0  0.81087  0.79034  0.13445  1.0000
  H   H4        1.0  0.81088  0.20966  0.86555  1.0000
  H   H5        1.0  0.81087  0.70966  0.63445  1.0000
  H   H6        1.0  0.81088  0.29034  0.36555  1.0000
  H   H7        1.0  0.18912  0.20966  0.86555  1.0000
  H   H8        1.0  0.18911  0.79033  0.13445  1.0000
  H   H9        1.0  0.20466  0.39149  0.59277  1.0000
  H   H10       1.0  0.20464  0.60851  0.40723  1.0000
  H   H11       1.0  0.79537  0.89150  0.90723  1.0000
  H   H12       1.0  0.79536  0.10850  0.09277  1.0000
  H   H13       1.0  0.79537  0.60850  0.40723  1.0000
  H   H14       1.0  0.79538  0.39149  0.59277  1.0000
  H   H15       1.0  0.20464  0.10850  0.09277  1.0000
  H   H16       1.0  0.20464  0.89150  0.90723  1.0000
  C   C1        1.0  0.00002  0.41037  0.52928  1.0000
  C   C2        1.0  1.00000  0.58963  0.47072  1.0000
  C   C3        1.0  0.99999  0.91037  0.97072  1.0000
  C   C4        1.0  0.00001  0.08963  0.02928  1.0000
  Br  Br1       1.0  0.50000  0.92661  0.31989  1.0000
  Br  Br2       1.0  0.50001  0.07339  0.68011  1.0000
  Br  Br3       1.0  0.50000  0.42661  0.18011  1.0000
  Br  Br4       1.0  0.50000  0.57339  0.81989  1.0000
  N   N1        1.0  0.99999  0.27632  0.42697  1.0000
  N   N2        1.0  0.00001  0.72368  0.57303  1.0000
  N   N3        1.0  0.00001  0.77632  0.07303  1.0000
  N   N4        1.0  0.99998  0.22368  0.92697  1.0000
