data_image0
_chemical_formula_structural       Cd2H16C4N4Cl4
_chemical_formula_sum              "Cd2 H16 C4 N4 Cl4"
_cell_length_a       4.15279
_cell_length_b       7.81542
_cell_length_c       9.59082
_cell_angle_alpha    89.9999
_cell_angle_beta     89.9992
_cell_angle_gamma    90

_space_group_name_H-M_alt    "P 1"
_space_group_IT_number       1

loop_
  _space_group_symop_operation_xyz
  'x, y, z'

loop_
  _atom_site_type_symbol
  _atom_site_label
  _atom_site_symmetry_multiplicity
  _atom_site_fract_x
  _atom_site_fract_y
  _atom_site_fract_z
  _atom_site_occupancy
  Cd  Cd1       1.0  1.00000  0.00000  0.50000  1.0000
  Cd  Cd2       1.0  0.00000  0.50000  0.00000  1.0000
  H   H1        1.0  0.78765  0.39020  0.40302  1.0000
  H   H2        1.0  0.78765  0.60980  0.59698  1.0000
  H   H3        1.0  0.21235  0.89020  0.09698  1.0000
  H   H4        1.0  0.21235  0.10980  0.90302  1.0000
  H   H5        1.0  0.21235  0.60980  0.59698  1.0000
  H   H6        1.0  0.21235  0.39020  0.40302  1.0000
  H   H7        1.0  0.78765  0.10980  0.90302  1.0000
  H   H8        1.0  0.78765  0.89020  0.09698  1.0000
  H   H9        1.0  0.80435  0.29140  0.64296  1.0000
  H   H10       1.0  0.80435  0.70860  0.35704  1.0000
  H   H11       1.0  0.19565  0.79140  0.85704  1.0000
  H   H12       1.0  0.19564  0.20860  0.14296  1.0000
  H   H13       1.0  0.19565  0.70860  0.35704  1.0000
  H   H14       1.0  0.19565  0.29140  0.64296  1.0000
  H   H15       1.0  0.80435  0.20860  0.14296  1.0000
  H   H16       1.0  0.80435  0.79140  0.85704  1.0000
  C   C1        1.0  0.00001  0.40956  0.46957  1.0000
  C   C2        1.0  0.99999  0.59043  0.53043  1.0000
  C   C3        1.0  0.99999  0.90957  0.03043  1.0000
  C   C4        1.0  0.00001  0.09043  0.96957  1.0000
  N   N1        1.0  0.99999  0.27561  0.57834  1.0000
  N   N2        1.0  0.00001  0.72439  0.42166  1.0000
  N   N3        1.0  0.00001  0.77561  0.92166  1.0000
  N   N4        1.0  0.99999  0.22439  0.07834  1.0000
  Cl  Cl1       1.0  0.50000  0.07444  0.32256  1.0000
  Cl  Cl2       1.0  0.50000  0.92556  0.67744  1.0000
  Cl  Cl3       1.0  0.50000  0.57444  0.17744  1.0000
  Cl  Cl4       1.0  0.50000  0.42556  0.82256  1.0000
