data_image0
_chemical_formula_structural       Cd2H32C48N8O8
_chemical_formula_sum              "Cd2 H32 C48 N8 O8"
_cell_length_a       7.97374
_cell_length_b       10.8509
_cell_length_c       13.1172
_cell_angle_alpha    76.7028
_cell_angle_beta     80.3037
_cell_angle_gamma    67.2032

_space_group_name_H-M_alt    "P 1"
_space_group_IT_number       1

loop_
  _space_group_symop_operation_xyz
  'x, y, z'

loop_
  _atom_site_type_symbol
  _atom_site_label
  _atom_site_symmetry_multiplicity
  _atom_site_fract_x
  _atom_site_fract_y
  _atom_site_fract_z
  _atom_site_occupancy
  Cd  Cd1       1.0  0.79009  0.22235  0.23308  1.0000
  Cd  Cd2       1.0  0.20991  0.77764  0.76692  1.0000
  H   H1        1.0  0.98450  0.59993  0.25352  1.0000
  H   H2        1.0  0.01548  0.40008  0.74648  1.0000
  H   H3        1.0  0.63332  0.49778  0.51817  1.0000
  H   H4        1.0  0.36667  0.50222  0.48183  1.0000
  H   H5        1.0  0.68051  0.66337  0.60544  1.0000
  H   H6        1.0  0.31949  0.33662  0.39456  1.0000
  H   H7        1.0  0.87817  0.79168  0.50906  1.0000
  H   H8        1.0  0.12183  0.20831  0.49094  1.0000
  H   H9        1.0  0.17512  0.23495  0.24271  1.0000
  H   H10       1.0  0.82488  0.76504  0.75729  1.0000
  H   H11       1.0  0.50864  0.88033  0.44173  1.0000
  H   H12       1.0  0.49136  0.11967  0.55828  1.0000
  H   H13       1.0  0.24766  0.79544  0.47666  1.0000
  H   H14       1.0  0.75234  0.20456  0.52335  1.0000
  H   H15       1.0  0.96314  0.93725  0.38280  1.0000
  H   H16       1.0  0.03686  0.06275  0.61720  1.0000
  H   H17       1.0  0.88827  0.87942  0.22464  1.0000
  H   H18       1.0  0.11172  0.12058  0.77536  1.0000
  H   H19       1.0  0.81260  0.75056  0.11477  1.0000
  H   H20       1.0  0.18739  0.24944  0.88523  1.0000
  H   H21       1.0  0.69924  0.87005  0.93747  1.0000
  H   H22       1.0  0.30075  0.12996  0.06253  1.0000
  H   H23       1.0  0.61831  0.08213  0.80136  1.0000
  H   H24       1.0  0.38170  0.91787  0.19864  1.0000
  H   H25       1.0  0.60090  0.32015  0.74044  1.0000
  H   H26       1.0  0.39911  0.67985  0.25956  1.0000
  H   H27       1.0  0.63120  0.52730  0.77644  1.0000
  H   H28       1.0  0.36880  0.47270  0.22356  1.0000
  H   H29       1.0  0.70717  0.63722  0.89874  1.0000
  H   H30       1.0  0.29281  0.36278  0.10126  1.0000
  H   H31       1.0  0.79719  0.50211  0.08003  1.0000
  H   H32       1.0  0.20279  0.49790  0.91997  1.0000
  C   C1        1.0  0.91347  0.61450  0.33115  1.0000
  C   C2        1.0  0.08652  0.38550  0.66885  1.0000
  C   C3        1.0  0.80488  0.53777  0.37813  1.0000
  C   C4        1.0  0.19511  0.46222  0.62187  1.0000
  C   C5        1.0  0.71856  0.55550  0.47858  1.0000
  C   C6        1.0  0.28144  0.44450  0.52142  1.0000
  C   C7        1.0  0.74523  0.64714  0.52711  1.0000
  C   C8        1.0  0.25477  0.35285  0.47289  1.0000
  C   C9        1.0  0.85581  0.71863  0.47311  1.0000
  C   C10       1.0  0.14419  0.28137  0.52689  1.0000
  C   C11       1.0  0.79143  0.43606  0.32249  1.0000
  C   C12       1.0  0.20857  0.56394  0.67751  1.0000
  C   C13       1.0  0.19818  0.13558  0.29253  1.0000
  C   C14       1.0  0.80182  0.86441  0.70748  1.0000
  C   C15       1.0  0.36326  0.06182  0.33747  1.0000
  C   C16       1.0  0.63673  0.93818  0.66254  1.0000
  C   C17       1.0  0.38172  0.93788  0.40505  1.0000
  C   C18       1.0  0.61828  0.06211  0.59496  1.0000
  C   C19       1.0  0.23787  0.89086  0.42322  1.0000
  C   C20       1.0  0.76213  0.10914  0.57678  1.0000
  C   C21       1.0  0.07932  0.96929  0.37307  1.0000
  C   C22       1.0  0.92068  0.03071  0.62694  1.0000
  C   C23       1.0  0.51659  0.11465  0.31192  1.0000
  C   C24       1.0  0.48341  0.88534  0.68808  1.0000
  C   C25       1.0  0.83916  0.92878  0.14717  1.0000
  C   C26       1.0  0.16084  0.07122  0.85283  1.0000
  C   C27       1.0  0.79670  0.85651  0.08507  1.0000
  C   C28       1.0  0.20330  0.14349  0.91492  1.0000
  C   C29       1.0  0.73439  0.92229  0.98767  1.0000
  C   C30       1.0  0.26562  0.07772  0.01233  1.0000
  C   C31       1.0  0.71527  0.05980  0.95210  1.0000
  C   C32       1.0  0.28475  0.94020  0.04790  1.0000
  C   C33       1.0  0.65446  0.13367  0.85147  1.0000
  C   C34       1.0  0.34555  0.86633  0.14852  1.0000
  C   C35       1.0  0.64333  0.26514  0.81819  1.0000
  C   C36       1.0  0.35668  0.73486  0.18181  1.0000
  C   C37       1.0  0.68676  0.33424  0.88470  1.0000
  C   C38       1.0  0.31325  0.66577  0.11530  1.0000
  C   C39       1.0  0.67502  0.47057  0.85348  1.0000
  C   C40       1.0  0.32498  0.52943  0.14652  1.0000
  C   C41       1.0  0.71677  0.53200  0.92186  1.0000
  C   C42       1.0  0.28322  0.46800  0.07814  1.0000
  C   C43       1.0  0.76587  0.45811  0.02208  1.0000
  C   C44       1.0  0.23412  0.54190  0.97791  1.0000
  C   C45       1.0  0.74105  0.26594  0.98699  1.0000
  C   C46       1.0  0.25896  0.73406  0.01301  1.0000
  C   C47       1.0  0.75965  0.12479  0.02069  1.0000
  C   C48       1.0  0.24037  0.87520  0.97931  1.0000
  N   N1        1.0  0.93896  0.70401  0.37627  1.0000
  N   N2        1.0  0.06103  0.29599  0.62373  1.0000
  N   N3        1.0  0.05940  0.09015  0.30958  1.0000
  N   N4        1.0  0.94060  0.90984  0.69042  1.0000
  N   N5        1.0  0.82021  0.05889  0.11612  1.0000
  N   N6        1.0  0.17980  0.94110  0.88387  1.0000
  N   N7        1.0  0.77629  0.32963  0.05386  1.0000
  N   N8        1.0  0.22371  0.67037  0.94614  1.0000
  O   O1        1.0  0.88891  0.41754  0.23569  1.0000
  O   O2        1.0  0.11109  0.58246  0.76431  1.0000
  O   O3        1.0  0.68658  0.37075  0.36473  1.0000
  O   O4        1.0  0.31341  0.62925  0.63527  1.0000
  O   O5        1.0  0.49031  0.22539  0.24451  1.0000
  O   O6        1.0  0.50969  0.77460  0.75549  1.0000
  O   O7        1.0  0.66299  0.04795  0.35550  1.0000
  O   O8        1.0  0.33701  0.95205  0.64450  1.0000
