data_image0
_chemical_formula_structural       Cu2H38C34N18
_chemical_formula_sum              "Cu2 H38 C34 N18"
_cell_length_a       8.1645
_cell_length_b       10.5178
_cell_length_c       11.5913
_cell_angle_alpha    63.9439
_cell_angle_beta     88.5143
_cell_angle_gamma    76.7405

_space_group_name_H-M_alt    "P 1"
_space_group_IT_number       1

loop_
  _space_group_symop_operation_xyz
  'x, y, z'

loop_
  _atom_site_type_symbol
  _atom_site_label
  _atom_site_symmetry_multiplicity
  _atom_site_fract_x
  _atom_site_fract_y
  _atom_site_fract_z
  _atom_site_occupancy
  Cu  Cu1       1.0  0.73884  0.40926  0.41076  1.0000
  Cu  Cu2       1.0  0.31789  0.62379  0.27389  1.0000
  H   H1        1.0  0.94569  0.31560  0.60751  1.0000
  H   H2        1.0  0.49133  0.70231  0.39700  1.0000
  H   H3        1.0  0.71427  0.93859  0.36313  1.0000
  H   H4        1.0  0.45786  0.33078  0.22560  1.0000
  H   H5        1.0  0.54002  0.19304  0.17388  1.0000
  H   H6        1.0  0.64365  0.33401  0.14378  1.0000
  H   H7        1.0  0.04969  0.81841  0.63081  1.0000
  H   H8        1.0  0.89575  0.74469  0.59263  1.0000
  H   H9        1.0  0.85909  0.81233  0.70928  1.0000
  H   H10       1.0  0.93604  0.03911  0.70103  1.0000
  H   H11       1.0  0.05207  0.13038  0.56849  1.0000
  H   H12       1.0  0.62482  0.22252  0.67475  1.0000
  H   H13       1.0  0.66026  0.38718  0.66250  1.0000
  H   H14       1.0  0.71708  0.99782  0.86160  1.0000
  H   H15       1.0  0.81926  0.86460  0.09240  1.0000
  H   H16       1.0  0.92570  0.99026  0.20070  1.0000
  H   H17       1.0  0.99687  0.21013  0.19060  1.0000
  H   H18       1.0  0.04660  0.45715  0.06080  1.0000
  H   H19       1.0  0.98574  0.57803  0.82360  1.0000
  H   H20       1.0  0.86225  0.46393  0.71406  1.0000
  H   H21       1.0  0.19184  0.06640  0.80664  1.0000
  H   H22       1.0  0.22279  0.64876  0.97346  1.0000
  H   H23       1.0  0.13378  0.80960  0.83118  1.0000
  H   H24       1.0  0.01905  0.75404  0.97129  1.0000
  H   H25       1.0  0.30192  0.21183  0.03144  1.0000
  H   H26       1.0  0.31031  0.25163  0.86676  1.0000
  H   H27       1.0  0.49682  0.15543  0.97439  1.0000
  H   H28       1.0  0.44266  0.97956  0.22544  1.0000
  H   H29       1.0  0.58180  0.82990  0.21112  1.0000
  H   H30       1.0  0.18312  0.75279  0.44373  1.0000
  H   H31       1.0  0.16139  0.92155  0.30831  1.0000
  H   H32       1.0  0.23326  0.12011  0.32345  1.0000
  H   H33       1.0  0.34132  0.22570  0.45110  1.0000
  H   H34       1.0  0.47441  0.06524  0.67327  1.0000
  H   H35       1.0  0.57189  0.81911  0.85396  1.0000
  H   H36       1.0  0.59598  0.55519  0.94930  1.0000
  H   H37       1.0  0.48188  0.44701  0.82496  1.0000
  H   H38       1.0  0.35785  0.60100  0.60204  1.0000
  C   C1        1.0  0.67905  0.16676  0.33833  1.0000
  C   C2        1.0  0.73719  0.01356  0.39801  1.0000
  C   C3        1.0  0.82770  0.97530  0.51303  1.0000
  C   C4        1.0  0.57364  0.26135  0.21416  1.0000
  C   C5        1.0  0.91321  0.83044  0.61705  1.0000
  C   C6        1.0  0.92548  0.12874  0.60312  1.0000
  C   C7        1.0  0.72118  0.27210  0.69084  1.0000
  C   C8        1.0  0.78878  0.19385  0.83056  1.0000
  C   C9        1.0  0.77469  0.05229  0.90517  1.0000
  C   C10       1.0  0.82803  0.97729  0.03810  1.0000
  C   C11       1.0  0.88967  0.04689  0.09737  1.0000
  C   C12       1.0  0.90835  0.19125  0.02555  1.0000
  C   C13       1.0  0.86293  0.26506  0.88882  1.0000
  C   C14       1.0  0.97136  0.26417  0.08595  1.0000
  C   C15       1.0  0.99781  0.40145  0.01443  1.0000
  C   C16       1.0  0.96141  0.47086  0.87937  1.0000
  C   C17       1.0  0.89305  0.40593  0.81809  1.0000
  C   C18       1.0  0.22225  0.84957  0.97957  1.0000
  C   C19       1.0  0.23551  0.99454  0.90690  1.0000
  C   C20       1.0  0.31476  0.03094  0.98878  1.0000
  C   C21       1.0  0.14498  0.76054  0.93676  1.0000
  C   C22       1.0  0.35952  0.16933  0.96479  1.0000
  C   C23       1.0  0.44981  0.87696  0.21926  1.0000
  C   C24       1.0  0.25087  0.83636  0.38835  1.0000
  C   C25       1.0  0.31180  0.89873  0.46886  1.0000
  C   C26       1.0  0.29516  0.04755  0.41993  1.0000
  C   C27       1.0  0.35416  0.10849  0.49296  1.0000
  C   C28       1.0  0.42957  0.01919  0.61577  1.0000
  C   C29       1.0  0.44860  0.86597  0.67099  1.0000
  C   C30       1.0  0.38803  0.80388  0.59712  1.0000
  C   C31       1.0  0.52448  0.77271  0.79788  1.0000
  C   C32       1.0  0.53661  0.62486  0.85194  1.0000
  C   C33       1.0  0.47324  0.56395  0.78091  1.0000
  C   C34       1.0  0.40244  0.65088  0.65602  1.0000
  N   N1        1.0  0.73297  0.21983  0.41298  1.0000
  N   N2        1.0  0.82146  0.10270  0.51898  1.0000
  N   N3        1.0  0.84968  0.27107  0.59772  1.0000
  N   N4        1.0  0.60490  0.53776  0.24324  1.0000
  N   N5        1.0  0.67546  0.60918  0.15370  1.0000
  N   N6        1.0  0.73810  0.68081  0.06420  1.0000
  N   N7        1.0  0.73294  0.57825  0.44917  1.0000
  N   N8        1.0  0.84010  0.64434  0.40347  1.0000
  N   N9        1.0  0.94158  0.71129  0.36053  1.0000
  N   N10       1.0  0.20447  0.51269  0.21692  1.0000
  N   N11       1.0  0.10533  0.44823  0.27985  1.0000
  N   N12       1.0  0.00958  0.37990  0.33702  1.0000
  N   N13       1.0  0.35790  0.47471  0.45748  1.0000
  N   N14       1.0  0.25692  0.42466  0.53028  1.0000
  N   N15       1.0  0.16720  0.37088  0.60822  1.0000
  N   N16       1.0  0.29138  0.79883  0.10046  1.0000
  N   N17       1.0  0.34542  0.91037  0.10490  1.0000
  N   N18       1.0  0.38947  0.77013  0.33081  1.0000
