data_image0
_chemical_formula_structural       Zn2H28C46S2O12
_chemical_formula_sum              "Zn2 H28 C46 S2 O12"
_cell_length_a       7.82115
_cell_length_b       11.4458
_cell_length_c       12.644
_cell_angle_alpha    87.3674
_cell_angle_beta     76.6793
_cell_angle_gamma    82.4019

_space_group_name_H-M_alt    "P 1"
_space_group_IT_number       1

loop_
  _space_group_symop_operation_xyz
  'x, y, z'

loop_
  _atom_site_type_symbol
  _atom_site_label
  _atom_site_symmetry_multiplicity
  _atom_site_fract_x
  _atom_site_fract_y
  _atom_site_fract_z
  _atom_site_occupancy
  Zn  Zn1       1.0  0.15939  0.42513  0.53831  1.0000
  Zn  Zn2       1.0  0.84086  0.57460  0.46164  1.0000
  H   H1        1.0  0.43684  0.43211  0.67678  1.0000
  H   H2        1.0  0.56236  0.56815  0.32344  1.0000
  H   H3        1.0  0.77389  0.24555  0.35683  1.0000
  H   H4        1.0  0.22656  0.75423  0.64311  1.0000
  H   H5        1.0  0.50290  0.03597  0.62161  1.0000
  H   H6        1.0  0.49758  0.96388  0.37838  1.0000
  H   H7        1.0  0.27796  0.25382  0.26663  1.0000
  H   H8        1.0  0.72203  0.74641  0.73342  1.0000
  H   H9        1.0  0.62740  0.07783  0.88383  1.0000
  H   H10       1.0  0.37263  0.92220  0.11595  1.0000
  H   H11       1.0  0.21088  0.32244  0.79448  1.0000
  H   H12       1.0  0.78861  0.67755  0.20575  1.0000
  H   H13       1.0  0.85410  0.18870  0.76294  1.0000
  H   H14       1.0  0.14564  0.81153  0.23675  1.0000
  H   H15       1.0  0.49680  0.37476  0.36037  1.0000
  H   H16       1.0  0.50383  0.62520  0.63979  1.0000
  H   H17       1.0  0.22485  0.16414  0.62261  1.0000
  H   H18       1.0  0.77580  0.83585  0.37748  1.0000
  H   H19       1.0  0.39018  0.12765  0.10158  1.0000
  H   H20       1.0  0.60987  0.87252  0.89853  1.0000
  H   H21       1.0  0.81437  0.38871  0.15036  1.0000
  H   H22       1.0  0.18551  0.61112  0.84956  1.0000
  H   H23       1.0  0.92012  0.25789  0.98691  1.0000
  H   H24       1.0  0.07992  0.74183  0.01314  1.0000
  H   H25       1.0  0.96845  0.10989  0.33062  1.0000
  H   H26       1.0  0.03202  0.88987  0.66936  1.0000
  H   H27       1.0  0.25287  0.00264  0.34035  1.0000
  H   H28       1.0  0.74760  0.99711  0.65963  1.0000
  C   C1        1.0  0.79060  0.37598  0.62752  1.0000
  C   C2        1.0  0.20878  0.62428  0.37246  1.0000
  C   C3        1.0  0.34923  0.28510  0.50019  1.0000
  C   C4        1.0  0.65107  0.71492  0.49986  1.0000
  C   C5        1.0  0.83246  0.06376  0.49462  1.0000
  C   C6        1.0  0.16805  0.93605  0.50532  1.0000
  C   C7        1.0  0.66338  0.13277  0.49129  1.0000
  C   C8        1.0  0.33711  0.86707  0.50870  1.0000
  C   C9        1.0  0.47806  0.35496  0.72234  1.0000
  C   C10       1.0  0.52131  0.64526  0.27779  1.0000
  C   C11       1.0  0.65440  0.22629  0.41460  1.0000
  C   C12       1.0  0.34604  0.77357  0.58540  1.0000
  C   C13       1.0  0.50356  0.11006  0.56421  1.0000
  C   C14       1.0  0.49693  0.88984  0.43580  1.0000
  C   C15       1.0  0.65852  0.31468  0.70946  1.0000
  C   C16       1.0  0.34091  0.68554  0.29052  1.0000
  C   C17       1.0  0.15912  0.18658  0.03655  1.0000
  C   C18       1.0  0.84090  0.81335  0.96352  1.0000
  C   C19       1.0  0.20179  0.25425  0.20443  1.0000
  C   C20       1.0  0.79819  0.74589  0.79560  1.0000
  C   C21       1.0  0.40756  0.19104  0.84207  1.0000
  C   C22       1.0  0.59224  0.80898  0.15790  1.0000
  C   C23       1.0  0.58720  0.15426  0.83665  1.0000
  C   C24       1.0  0.41266  0.84578  0.16318  1.0000
  C   C25       1.0  0.04049  0.32831  0.21723  1.0000
  C   C26       1.0  0.95939  0.67173  0.78273  1.0000
  C   C27       1.0  0.97762  0.40489  0.31489  1.0000
  C   C28       1.0  0.02193  0.59526  0.68497  1.0000
  C   C29       1.0  0.35115  0.29352  0.78876  1.0000
  C   C30       1.0  0.64841  0.70657  0.21138  1.0000
  C   C31       1.0  0.71334  0.21681  0.76985  1.0000
  C   C32       1.0  0.28634  0.78333  0.22997  1.0000
  C   C33       1.0  0.49798  0.29978  0.41665  1.0000
  C   C34       1.0  0.50249  0.70016  0.58347  1.0000
  C   C35       1.0  0.34574  0.18233  0.56491  1.0000
  C   C36       1.0  0.65483  0.81765  0.43515  1.0000
  C   C37       1.0  0.26298  0.18346  0.11351  1.0000
  C   C38       1.0  0.73698  0.81659  0.88656  1.0000
  C   C39       1.0  0.93881  0.33028  0.13912  1.0000
  C   C40       1.0  0.06112  0.66963  0.86085  1.0000
  C   C41       1.0  0.99733  0.25862  0.04839  1.0000
  C   C42       1.0  0.00263  0.74122  0.95166  1.0000
  C   C43       1.0  0.98132  0.06368  0.40605  1.0000
  C   C44       1.0  0.01919  0.93610  0.59391  1.0000
  C   C45       1.0  0.14360  0.00279  0.41147  1.0000
  C   C46       1.0  0.85691  0.99700  0.58850  1.0000
  S   S1        1.0  0.24418  0.10454  0.91513  1.0000
  S   S2        1.0  0.75583  0.89536  0.08495  1.0000
  O   O1        1.0  0.72600  0.45115  0.56541  1.0000
  O   O2        1.0  0.27319  0.54915  0.43462  1.0000
  O   O3        1.0  0.84459  0.48333  0.31838  1.0000
  O   O4        1.0  0.15501  0.51683  0.68130  1.0000
  O   O5        1.0  0.95335  0.34606  0.62741  1.0000
  O   O6        1.0  0.04601  0.65429  0.37249  1.0000
  O   O7        1.0  0.05945  0.38861  0.39134  1.0000
  O   O8        1.0  0.93976  0.61173  0.60868  1.0000
  O   O9        1.0  0.33324  0.99109  0.94153  1.0000
  O   O10       1.0  0.66699  0.00888  0.05849  1.0000
  O   O11       1.0  0.10503  0.10923  0.85574  1.0000
  O   O12       1.0  0.89489  0.89052  0.14441  1.0000
