data_image0
_chemical_formula_structural       Zn2H24C40S2N6O12
_chemical_formula_sum              "Zn2 H24 C40 S2 N6 O12"
_cell_length_a       7.2198
_cell_length_b       12.4801
_cell_length_c       14.4232
_cell_angle_alpha    75.196
_cell_angle_beta     76.789
_cell_angle_gamma    88.417

_space_group_name_H-M_alt    "P 1"
_space_group_IT_number       1

loop_
  _space_group_symop_operation_xyz
  'x, y, z'

loop_
  _atom_site_type_symbol
  _atom_site_label
  _atom_site_symmetry_multiplicity
  _atom_site_fract_x
  _atom_site_fract_y
  _atom_site_fract_z
  _atom_site_occupancy
  Zn  Zn1       1.0  0.81699  0.98253  0.07037  1.0000
  Zn  Zn2       1.0  0.18301  0.01748  0.92963  1.0000
  H   H1        1.0  0.08270  0.32436  0.73899  1.0000
  H   H2        1.0  0.91731  0.67563  0.26101  1.0000
  H   H3        1.0  0.39166  0.68977  0.81768  1.0000
  H   H4        1.0  0.60833  0.31025  0.18231  1.0000
  H   H5        1.0  0.97463  0.49666  0.63500  1.0000
  H   H6        1.0  0.02537  0.50333  0.36499  1.0000
  H   H7        1.0  0.77948  0.01694  0.26854  1.0000
  H   H8        1.0  0.22051  0.98305  0.73147  1.0000
  H   H9        1.0  0.12464  0.92147  0.26557  1.0000
  H   H10       1.0  0.87537  0.07853  0.73443  1.0000
  H   H11       1.0  0.40272  0.92258  0.12419  1.0000
  H   H12       1.0  0.59729  0.07743  0.87581  1.0000
  H   H13       1.0  0.52018  0.02425  0.41390  1.0000
  H   H14       1.0  0.47981  0.97574  0.58610  1.0000
  H   H15       1.0  0.51315  0.25606  0.91877  1.0000
  H   H16       1.0  0.48685  0.74395  0.08123  1.0000
  H   H17       1.0  0.40492  0.43006  0.81717  1.0000
  H   H18       1.0  0.59506  0.56994  0.18283  1.0000
  H   H19       1.0  0.48592  0.79810  0.92506  1.0000
  H   H20       1.0  0.51407  0.20192  0.07494  1.0000
  H   H21       1.0  0.97736  0.69674  0.65940  1.0000
  H   H22       1.0  0.02263  0.30325  0.34061  1.0000
  H   H23       1.0  0.07037  0.80263  0.76794  1.0000
  H   H24       1.0  0.92964  0.19737  0.23206  1.0000
  C   C1        1.0  0.93516  0.34871  0.75561  1.0000
  C   C2        1.0  0.06484  0.65129  0.24439  1.0000
  C   C3        1.0  0.53977  0.71496  0.80765  1.0000
  C   C4        1.0  0.46023  0.28505  0.19234  1.0000
  C   C5        1.0  0.87517  0.44449  0.69786  1.0000
  C   C6        1.0  0.12483  0.55551  0.30213  1.0000
  C   C7        1.0  0.84434  0.87405  0.91449  1.0000
  C   C8        1.0  0.15565  0.12595  0.08552  1.0000
  C   C9        1.0  0.63233  0.99664  0.27134  1.0000
  C   C10       1.0  0.36767  0.00336  0.72867  1.0000
  C   C11       1.0  0.29995  0.97507  0.35030  1.0000
  C   C12       1.0  0.70006  0.02493  0.64970  1.0000
  C   C13       1.0  0.26757  0.94289  0.26902  1.0000
  C   C14       1.0  0.73244  0.05711  0.73098  1.0000
  C   C15       1.0  0.80623  0.28246  0.83668  1.0000
  C   C16       1.0  0.19377  0.71754  0.16332  1.0000
  C   C17       1.0  0.42117  0.94246  0.19080  1.0000
  C   C18       1.0  0.57884  0.05754  0.80920  1.0000
  C   C19       1.0  0.48697  0.00038  0.35195  1.0000
  C   C20       1.0  0.51303  0.99961  0.64806  1.0000
  C   C21       1.0  0.78466  0.80560  0.85355  1.0000
  C   C22       1.0  0.21533  0.19441  0.14645  1.0000
  C   C23       1.0  0.61424  0.31028  0.85812  1.0000
  C   C24       1.0  0.38576  0.68972  0.14188  1.0000
  C   C25       1.0  0.87500  0.18010  0.89837  1.0000
  C   C26       1.0  0.12500  0.81990  0.10163  1.0000
  C   C27       1.0  0.68474  0.47315  0.72246  1.0000
  C   C28       1.0  0.31526  0.52684  0.27753  1.0000
  C   C29       1.0  0.55295  0.40632  0.80111  1.0000
  C   C30       1.0  0.44704  0.59369  0.19889  1.0000
  C   C31       1.0  0.67869  0.68814  0.73295  1.0000
  C   C32       1.0  0.32130  0.31187  0.26704  1.0000
  C   C33       1.0  0.13997  0.98673  0.43058  1.0000
  C   C34       1.0  0.86004  0.01325  0.56942  1.0000
  C   C35       1.0  0.59321  0.77413  0.86795  1.0000
  C   C36       1.0  0.40679  0.22587  0.13205  1.0000
  C   C37       1.0  0.87042  0.71884  0.71764  1.0000
  C   C38       1.0  0.12958  0.28115  0.28237  1.0000
  C   C39       1.0  0.92233  0.77741  0.77835  1.0000
  C   C40       1.0  0.07768  0.22258  0.22165  1.0000
  S   S1        1.0  0.61437  0.60518  0.66005  1.0000
  S   S2        1.0  0.38565  0.39483  0.33994  1.0000
  N   N1        1.0  0.59928  0.97049  0.19140  1.0000
  N   N2        1.0  0.40072  0.02951  0.80860  1.0000
  N   N3        1.0  0.81984  0.00271  0.48502  1.0000
  N   N4        1.0  0.18016  0.99727  0.51498  1.0000
  N   N5        1.0  0.96250  0.98917  0.41420  1.0000
  N   N6        1.0  0.03750  0.01082  0.58581  1.0000
  O   O1        1.0  0.75659  0.12596  0.97516  1.0000
  O   O2        1.0  0.24342  0.87405  0.02484  1.0000
  O   O3        1.0  0.72302  0.88766  0.98969  1.0000
  O   O4        1.0  0.27698  0.11235  0.01031  1.0000
  O   O5        1.0  0.01270  0.91594  0.88418  1.0000
  O   O6        1.0  0.98730  0.08404  0.11583  1.0000
  O   O7        1.0  0.04500  0.15359  0.86796  1.0000
  O   O8        1.0  0.95499  0.84641  0.13204  1.0000
  O   O9        1.0  0.40862  0.60393  0.67467  1.0000
  O   O10       1.0  0.59138  0.39607  0.32533  1.0000
  O   O11       1.0  0.73701  0.63875  0.56209  1.0000
  O   O12       1.0  0.26299  0.36126  0.43791  1.0000
