data_image0
_chemical_formula_structural       Zn2H28C44S2N2O12
_chemical_formula_sum              "Zn2 H28 C44 S2 N2 O12"
_cell_length_a       8.17592
_cell_length_b       13.1348
_cell_length_c       12.5463
_cell_angle_alpha    84.4881
_cell_angle_beta     77.0161
_cell_angle_gamma    70.8382

_space_group_name_H-M_alt    "P 1"
_space_group_IT_number       1

loop_
  _space_group_symop_operation_xyz
  'x, y, z'

loop_
  _atom_site_type_symbol
  _atom_site_label
  _atom_site_symmetry_multiplicity
  _atom_site_fract_x
  _atom_site_fract_y
  _atom_site_fract_z
  _atom_site_occupancy
  Zn  Zn1       1.0  0.67186  0.47449  0.42567  1.0000
  Zn  Zn2       1.0  0.32813  0.52552  0.57432  1.0000
  H   H1        1.0  0.12260  0.37843  0.06628  1.0000
  H   H2        1.0  0.87741  0.62157  0.93372  1.0000
  H   H3        1.0  0.86027  0.37283  0.20928  1.0000
  H   H4        1.0  0.13973  0.62717  0.79071  1.0000
  H   H5        1.0  0.19010  0.60941  0.26239  1.0000
  H   H6        1.0  0.80992  0.39058  0.73763  1.0000
  H   H7        1.0  0.02091  0.20344  0.34808  1.0000
  H   H8        1.0  0.97908  0.79657  0.65191  1.0000
  H   H9        1.0  0.95942  0.01185  0.32065  1.0000
  H   H10       1.0  0.04056  0.98814  0.67933  1.0000
  H   H11       1.0  0.47319  0.90788  0.10489  1.0000
  H   H12       1.0  0.52683  0.09213  0.89512  1.0000
  H   H13       1.0  0.03624  0.83537  0.42590  1.0000
  H   H14       1.0  0.96376  0.16462  0.57409  1.0000
  H   H15       1.0  0.50543  0.14041  0.10312  1.0000
  H   H16       1.0  0.49456  0.85960  0.89687  1.0000
  H   H17       1.0  0.47036  0.52872  0.19725  1.0000
  H   H18       1.0  0.52964  0.47128  0.80275  1.0000
  H   H19       1.0  0.73858  0.53576  0.06725  1.0000
  H   H20       1.0  0.26143  0.46423  0.93275  1.0000
  H   H21       1.0  0.92753  0.59153  0.39891  1.0000
  H   H22       1.0  0.07248  0.40845  0.60110  1.0000
  H   H23       1.0  0.12815  0.31334  0.44936  1.0000
  H   H24       1.0  0.87184  0.68666  0.55065  1.0000
  H   H25       1.0  0.61289  0.25086  0.20701  1.0000
  H   H26       1.0  0.38711  0.74914  0.79299  1.0000
  H   H27       1.0  0.54554  0.73206  0.20997  1.0000
  H   H28       1.0  0.45447  0.26796  0.79004  1.0000
  C   C1        1.0  0.43047  0.36556  0.39004  1.0000
  C   C2        1.0  0.56953  0.63444  0.60995  1.0000
  C   C3        1.0  0.34443  0.49680  0.07447  1.0000
  C   C4        1.0  0.65557  0.50320  0.92553  1.0000
  C   C5        1.0  0.08290  0.42917  0.13734  1.0000
  C   C6        1.0  0.91710  0.57083  0.86266  1.0000
  C   C7        1.0  0.93679  0.42491  0.21697  1.0000
  C   C8        1.0  0.06321  0.57510  0.78303  1.0000
  C   C9        1.0  0.12254  0.55507  0.24750  1.0000
  C   C10       1.0  0.87747  0.44493  0.75250  1.0000
  C   C11       1.0  0.15169  0.21220  0.31827  1.0000
  C   C12       1.0  0.84831  0.78780  0.68172  1.0000
  C   C13       1.0  0.34582  0.67066  0.38919  1.0000
  C   C14       1.0  0.65417  0.32935  0.61082  1.0000
  C   C15       1.0  0.08724  0.95005  0.29724  1.0000
  C   C16       1.0  0.91276  0.04995  0.70275  1.0000
  C   C17       1.0  0.25725  0.16686  0.21960  1.0000
  C   C18       1.0  0.74274  0.83314  0.78039  1.0000
  C   C19       1.0  0.37750  0.89124  0.17444  1.0000
  C   C20       1.0  0.62252  0.10876  0.82557  1.0000
  C   C21       1.0  0.12955  0.85216  0.35509  1.0000
  C   C22       1.0  0.87045  0.14784  0.64490  1.0000
  C   C23       1.0  0.21257  0.96861  0.20802  1.0000
  C   C24       1.0  0.78744  0.03139  0.79198  1.0000
  C   C25       1.0  0.42447  0.17811  0.17927  1.0000
  C   C26       1.0  0.57553  0.82189  0.82073  1.0000
  C   C27       1.0  0.48061  0.51790  0.11072  1.0000
  C   C28       1.0  0.51940  0.48210  0.88928  1.0000
  C   C29       1.0  0.29523  0.77415  0.32388  1.0000
  C   C30       1.0  0.70477  0.22586  0.67612  1.0000
  C   C31       1.0  0.63322  0.52146  0.03707  1.0000
  C   C32       1.0  0.36678  0.47854  0.96294  1.0000
  C   C33       1.0  0.18240  0.49384  0.15250  1.0000
  C   C34       1.0  0.81761  0.50616  0.84751  1.0000
  C   C35       1.0  0.97574  0.54670  0.32345  1.0000
  C   C36       1.0  0.02426  0.45329  0.67656  1.0000
  C   C37       1.0  0.21174  0.27400  0.37472  1.0000
  C   C38       1.0  0.78825  0.72599  0.62529  1.0000
  C   C39       1.0  0.48374  0.23996  0.23692  1.0000
  C   C40       1.0  0.51625  0.76004  0.76308  1.0000
  C   C41       1.0  0.41756  0.79369  0.23287  1.0000
  C   C42       1.0  0.58245  0.20631  0.76714  1.0000
  C   C43       1.0  0.37571  0.29027  0.33325  1.0000
  C   C44       1.0  0.62429  0.70973  0.66676  1.0000
  S   S1        1.0  0.16921  0.09829  0.14214  1.0000
  S   S2        1.0  0.83078  0.90172  0.85786  1.0000
  N   N1        1.0  0.88472  0.48186  0.30922  1.0000
  N   N2        1.0  0.11528  0.51814  0.69078  1.0000
  O   O1        1.0  0.23313  0.65575  0.47255  1.0000
  O   O2        1.0  0.76686  0.34426  0.52745  1.0000
  O   O3        1.0  0.31631  0.41757  0.46939  1.0000
  O   O4        1.0  0.68368  0.58244  0.53060  1.0000
  O   O5        1.0  0.58441  0.37322  0.35371  1.0000
  O   O6        1.0  0.41557  0.62678  0.64630  1.0000
  O   O7        1.0  0.49951  0.60536  0.35565  1.0000
  O   O8        1.0  0.50048  0.39464  0.64435  1.0000
  O   O9        1.0  0.27440  0.08777  0.03153  1.0000
  O   O10       1.0  0.72561  0.91222  0.96846  1.0000
  O   O11       1.0  0.97897  0.15050  0.16155  1.0000
  O   O12       1.0  0.02105  0.84950  0.83843  1.0000
