data_image0
_chemical_formula_structural       Cd2H40C34S2N8O12
_chemical_formula_sum              "Cd2 H40 C34 S2 N8 O12"
_cell_length_a       8.62748
_cell_length_b       8.62749
_cell_length_c       14.2135
_cell_angle_alpha    90.0001
_cell_angle_beta     90.0001
_cell_angle_gamma    114.305

_space_group_name_H-M_alt    "P 1"
_space_group_IT_number       1

loop_
  _space_group_symop_operation_xyz
  'x, y, z'

loop_
  _atom_site_type_symbol
  _atom_site_label
  _atom_site_symmetry_multiplicity
  _atom_site_fract_x
  _atom_site_fract_y
  _atom_site_fract_z
  _atom_site_occupancy
  Cd  Cd1       1.0  0.56501  0.56501  0.54198  1.0000
  Cd  Cd2       1.0  0.43499  0.43499  0.04198  1.0000
  H   H1        1.0  0.27213  0.44657  0.70360  1.0000
  H   H2        1.0  0.72787  0.55343  0.20360  1.0000
  H   H3        1.0  0.44658  0.27213  0.70360  1.0000
  H   H4        1.0  0.55343  0.72787  0.20360  1.0000
  H   H5        1.0  0.44243  0.44243  0.33285  1.0000
  H   H6        1.0  0.55757  0.55757  0.83285  1.0000
  H   H7        1.0  0.37753  0.88329  0.45874  1.0000
  H   H8        1.0  0.62247  0.11671  0.95873  1.0000
  H   H9        1.0  0.88329  0.37753  0.45873  1.0000
  H   H10       1.0  0.11671  0.62247  0.95873  1.0000
  H   H11       1.0  0.16689  0.77097  0.41549  1.0000
  H   H12       1.0  0.83312  0.22903  0.91549  1.0000
  H   H13       1.0  0.77097  0.16689  0.41548  1.0000
  H   H14       1.0  0.22903  0.83311  0.91549  1.0000
  H   H15       1.0  0.32637  0.69262  0.39535  1.0000
  H   H16       1.0  0.67363  0.30738  0.89535  1.0000
  H   H17       1.0  0.69262  0.32637  0.39535  1.0000
  H   H18       1.0  0.30738  0.67363  0.89535  1.0000
  H   H19       1.0  0.97494  0.66612  0.56998  1.0000
  H   H20       1.0  0.02506  0.33388  0.06998  1.0000
  H   H21       1.0  0.66611  0.97493  0.56998  1.0000
  H   H22       1.0  0.33389  0.02506  0.06998  1.0000
  H   H23       1.0  0.99444  0.36926  0.78604  1.0000
  H   H24       1.0  0.00556  0.63073  0.28605  1.0000
  H   H25       1.0  0.36926  0.99444  0.78604  1.0000
  H   H26       1.0  0.63074  0.00556  0.28604  1.0000
  H   H27       1.0  0.83126  0.39536  0.71988  1.0000
  H   H28       1.0  0.16875  0.60464  0.21989  1.0000
  H   H29       1.0  0.39535  0.83125  0.71989  1.0000
  H   H30       1.0  0.60465  0.16875  0.21989  1.0000
  H   H31       1.0  0.96637  0.56067  0.79431  1.0000
  H   H32       1.0  0.03363  0.43933  0.29431  1.0000
  H   H33       1.0  0.56067  0.96637  0.79431  1.0000
  H   H34       1.0  0.43933  0.03363  0.29431  1.0000
  H   H35       1.0  0.23010  0.23010  0.54805  1.0000
  H   H36       1.0  0.76990  0.76991  0.04805  1.0000
  H   H37       1.0  0.96547  0.96547  0.53503  1.0000
  H   H38       1.0  0.03453  0.03453  0.03503  1.0000
  H   H39       1.0  0.99938  0.99938  0.23181  1.0000
  H   H40       1.0  0.00062  0.00061  0.73181  1.0000
  C   C1        1.0  0.27650  0.75626  0.44608  1.0000
  C   C2        1.0  0.72351  0.24374  0.94608  1.0000
  C   C3        1.0  0.75626  0.27649  0.44607  1.0000
  C   C4        1.0  0.24375  0.72351  0.94608  1.0000
  C   C5        1.0  0.22377  0.65882  0.53554  1.0000
  C   C6        1.0  0.77623  0.34118  0.03554  1.0000
  C   C7        1.0  0.65882  0.22377  0.53554  1.0000
  C   C8        1.0  0.34118  0.77623  0.03554  1.0000
  C   C9        1.0  0.07523  0.62660  0.58778  1.0000
  C   C10       1.0  0.92477  0.37340  0.08779  1.0000
  C   C11       1.0  0.62659  0.07522  0.58778  1.0000
  C   C12       1.0  0.37341  0.92478  0.08778  1.0000
  C   C13       1.0  0.08178  0.53195  0.66582  1.0000
  C   C14       1.0  0.91822  0.46804  0.16582  1.0000
  C   C15       1.0  0.53195  0.08178  0.66582  1.0000
  C   C16       1.0  0.46805  0.91822  0.16582  1.0000
  C   C17       1.0  0.96215  0.45991  0.74568  1.0000
  C   C18       1.0  0.03784  0.54009  0.24569  1.0000
  C   C19       1.0  0.45991  0.96215  0.74568  1.0000
  C   C20       1.0  0.54010  0.03785  0.24568  1.0000
  C   C21       1.0  0.29034  0.29034  0.22189  1.0000
  C   C22       1.0  0.70966  0.70966  0.72190  1.0000
  C   C23       1.0  0.19902  0.19902  0.30740  1.0000
  C   C24       1.0  0.80098  0.80098  0.80741  1.0000
  C   C25       1.0  0.26410  0.26410  0.39772  1.0000
  C   C26       1.0  0.73590  0.73590  0.89772  1.0000
  C   C27       1.0  0.17903  0.17903  0.47924  1.0000
  C   C28       1.0  0.82097  0.82098  0.97924  1.0000
  C   C29       1.0  0.03157  0.03157  0.47172  1.0000
  C   C30       1.0  0.96843  0.96843  0.97172  1.0000
  C   C31       1.0  0.96720  0.96720  0.38225  1.0000
  C   C32       1.0  0.03280  0.03281  0.88225  1.0000
  C   C33       1.0  0.04963  0.04963  0.30090  1.0000
  C   C34       1.0  0.95037  0.95037  0.80090  1.0000
  S   S1        1.0  0.77854  0.77854  0.37629  1.0000
  S   S2        1.0  0.22146  0.22146  0.87629  1.0000
  N   N1        1.0  0.31828  0.58860  0.57973  1.0000
  N   N2        1.0  0.68172  0.41140  0.07973  1.0000
  N   N3        1.0  0.58860  0.31828  0.57973  1.0000
  N   N4        1.0  0.41140  0.68172  0.07973  1.0000
  N   N5        1.0  0.22936  0.51297  0.65836  1.0000
  N   N6        1.0  0.77064  0.48702  0.15836  1.0000
  N   N7        1.0  0.51298  0.22936  0.65836  1.0000
  N   N8        1.0  0.48703  0.77064  0.15836  1.0000
  O   O1        1.0  0.23546  0.23546  0.14023  1.0000
  O   O2        1.0  0.76454  0.76454  0.64023  1.0000
  O   O3        1.0  0.42727  0.42727  0.23453  1.0000
  O   O4        1.0  0.57273  0.57273  0.73453  1.0000
  O   O5        1.0  0.40769  0.40769  0.40455  1.0000
  O   O6        1.0  0.59231  0.59231  0.90455  1.0000
  O   O7        1.0  0.64506  0.81165  0.42635  1.0000
  O   O8        1.0  0.35494  0.18835  0.92635  1.0000
  O   O9        1.0  0.81165  0.64506  0.42635  1.0000
  O   O10       1.0  0.18835  0.35494  0.92635  1.0000
  O   O11       1.0  0.74230  0.74230  0.27531  1.0000
  O   O12       1.0  0.25770  0.25770  0.77531  1.0000
