data_image0
_chemical_formula_structural       Cu4H16C40N24O8
_chemical_formula_sum              "Cu4 H16 C40 N24 O8"
_cell_length_a       6.74992
_cell_length_b       10.1576
_cell_length_c       15.5983
_cell_angle_alpha    90.0004
_cell_angle_beta     89.9996
_cell_angle_gamma    89.9999

_space_group_name_H-M_alt    "P 1"
_space_group_IT_number       1

loop_
  _space_group_symop_operation_xyz
  'x, y, z'

loop_
  _atom_site_type_symbol
  _atom_site_label
  _atom_site_symmetry_multiplicity
  _atom_site_fract_x
  _atom_site_fract_y
  _atom_site_fract_z
  _atom_site_occupancy
  Cu  Cu1       1.0  0.75001  0.34138  0.26267  1.0000
  Cu  Cu2       1.0  0.25000  0.15862  0.76266  1.0000
  Cu  Cu3       1.0  0.75000  0.84138  0.23733  1.0000
  Cu  Cu4       1.0  0.25000  0.65862  0.73733  1.0000
  H   H1        1.0  0.43614  0.23397  0.15122  1.0000
  H   H2        1.0  0.93613  0.26603  0.65121  1.0000
  H   H3        1.0  0.06387  0.23396  0.15121  1.0000
  H   H4        1.0  0.43613  0.73397  0.34879  1.0000
  H   H5        1.0  0.56387  0.76603  0.84879  1.0000
  H   H6        1.0  0.06387  0.73397  0.34878  1.0000
  H   H7        1.0  0.93613  0.76603  0.84878  1.0000
  H   H8        1.0  0.56386  0.26603  0.65121  1.0000
  H   H9        1.0  0.43844  0.44569  0.37983  1.0000
  H   H10       1.0  0.93843  0.05431  0.87982  1.0000
  H   H11       1.0  0.06157  0.44568  0.37983  1.0000
  H   H12       1.0  0.43844  0.94569  0.12018  1.0000
  H   H13       1.0  0.56156  0.55430  0.62018  1.0000
  H   H14       1.0  0.06156  0.94569  0.12017  1.0000
  H   H15       1.0  0.93843  0.55430  0.62018  1.0000
  H   H16       1.0  0.56156  0.05431  0.87982  1.0000
  C   C1        1.0  0.74999  0.17046  0.40392  1.0000
  C   C2        1.0  0.25000  0.32956  0.90392  1.0000
  C   C3        1.0  0.75000  0.67046  0.09608  1.0000
  C   C4        1.0  0.25000  0.82955  0.59607  1.0000
  C   C5        1.0  0.74999  0.07629  0.32979  1.0000
  C   C6        1.0  0.24999  0.42371  0.82979  1.0000
  C   C7        1.0  0.75001  0.57630  0.17021  1.0000
  C   C8        1.0  0.25000  0.92371  0.67021  1.0000
  C   C9        1.0  0.75000  0.90319  0.42992  1.0000
  C   C10       1.0  0.25000  0.59682  0.92992  1.0000
  C   C11       1.0  0.75000  0.40319  0.07008  1.0000
  C   C12       1.0  0.25000  0.09681  0.57008  1.0000
  C   C13       1.0  0.75000  0.99462  0.49673  1.0000
  C   C14       1.0  0.25001  0.50539  0.99673  1.0000
  C   C15       1.0  0.75001  0.49462  0.00327  1.0000
  C   C16       1.0  0.25000  0.00538  0.50327  1.0000
  C   C17       1.0  0.75001  0.76583  0.44667  1.0000
  C   C18       1.0  0.25002  0.73419  0.94667  1.0000
  C   C19       1.0  0.75001  0.26582  0.05333  1.0000
  C   C20       1.0  0.24998  0.23417  0.55333  1.0000
  C   C21       1.0  0.75001  0.94840  0.58284  1.0000
  C   C22       1.0  0.25000  0.55159  0.08284  1.0000
  C   C23       1.0  0.75000  0.44840  0.91716  1.0000
  C   C24       1.0  0.24999  0.05160  0.41716  1.0000
  C   C25       1.0  0.35281  0.28285  0.20175  1.0000
  C   C26       1.0  0.85280  0.21715  0.70175  1.0000
  C   C27       1.0  0.14719  0.28285  0.20175  1.0000
  C   C28       1.0  0.35281  0.78285  0.29825  1.0000
  C   C29       1.0  0.64719  0.71715  0.79825  1.0000
  C   C30       1.0  0.14719  0.78285  0.29825  1.0000
  C   C31       1.0  0.85281  0.71715  0.79825  1.0000
  C   C32       1.0  0.64719  0.21715  0.70175  1.0000
  C   C33       1.0  0.35315  0.40112  0.32812  1.0000
  C   C34       1.0  0.85315  0.09888  0.82812  1.0000
  C   C35       1.0  0.14685  0.40112  0.32813  1.0000
  C   C36       1.0  0.35315  0.90112  0.17187  1.0000
  C   C37       1.0  0.64685  0.59887  0.67188  1.0000
  C   C38       1.0  0.14685  0.90112  0.17187  1.0000
  C   C39       1.0  0.85314  0.59887  0.67188  1.0000
  C   C40       1.0  0.64686  0.09888  0.82813  1.0000
  N   N1        1.0  0.75000  0.12697  0.48480  1.0000
  N   N2        1.0  0.25000  0.37304  0.98480  1.0000
  N   N3        1.0  0.75001  0.62696  0.01520  1.0000
  N   N4        1.0  0.25000  0.87303  0.51520  1.0000
  N   N5        1.0  0.75000  0.94566  0.34682  1.0000
  N   N6        1.0  0.25000  0.55435  0.84682  1.0000
  N   N7        1.0  0.75001  0.44566  0.15319  1.0000
  N   N8        1.0  0.24999  0.05434  0.65318  1.0000
  N   N9        1.0  0.75001  0.91105  0.65368  1.0000
  N   N10       1.0  0.25000  0.58895  0.15368  1.0000
  N   N11       1.0  0.75000  0.41105  0.84632  1.0000
  N   N12       1.0  0.24999  0.08895  0.34632  1.0000
  N   N13       1.0  0.75001  0.65267  0.46100  1.0000
  N   N14       1.0  0.25002  0.84735  0.96100  1.0000
  N   N15       1.0  0.75000  0.15266  0.03900  1.0000
  N   N16       1.0  0.24998  0.34734  0.53899  1.0000
  N   N17       1.0  0.45393  0.34277  0.26448  1.0000
  N   N18       1.0  0.95392  0.15723  0.76448  1.0000
  N   N19       1.0  0.04608  0.34276  0.26448  1.0000
  N   N20       1.0  0.45392  0.84277  0.23552  1.0000
  N   N21       1.0  0.54608  0.65723  0.73552  1.0000
  N   N22       1.0  0.04608  0.84277  0.23552  1.0000
  N   N23       1.0  0.95392  0.65723  0.73552  1.0000
  N   N24       1.0  0.54607  0.15724  0.76448  1.0000
  O   O1        1.0  0.75000  0.29427  0.38748  1.0000
  O   O2        1.0  0.25000  0.20573  0.88748  1.0000
  O   O3        1.0  0.75001  0.79427  0.11252  1.0000
  O   O4        1.0  0.25000  0.70573  0.61252  1.0000
  O   O5        1.0  0.74999  0.11726  0.25319  1.0000
  O   O6        1.0  0.25000  0.38274  0.75319  1.0000
  O   O7        1.0  0.75001  0.61726  0.24682  1.0000
  O   O8        1.0  0.24999  0.88274  0.74681  1.0000
