data_image0
_chemical_formula_structural       Ag2H46C46S2N4O8
_chemical_formula_sum              "Ag2 H46 C46 S2 N4 O8"
_cell_length_a       8.08206
_cell_length_b       10.5975
_cell_length_c       13.009
_cell_angle_alpha    70.0597
_cell_angle_beta     89.4913
_cell_angle_gamma    85.4178

_space_group_name_H-M_alt    "P 1"
_space_group_IT_number       1

loop_
  _space_group_symop_operation_xyz
  'x, y, z'

loop_
  _atom_site_type_symbol
  _atom_site_label
  _atom_site_symmetry_multiplicity
  _atom_site_fract_x
  _atom_site_fract_y
  _atom_site_fract_z
  _atom_site_occupancy
  Ag  Ag1       1.0  0.10741  0.42483  0.36460  1.0000
  Ag  Ag2       1.0  0.89258  0.57517  0.63541  1.0000
  H   H1        1.0  0.48098  0.02972  0.38076  1.0000
  H   H2        1.0  0.51903  0.97028  0.61924  1.0000
  H   H3        1.0  0.84207  0.70375  0.36879  1.0000
  H   H4        1.0  0.15794  0.29624  0.63122  1.0000
  H   H5        1.0  0.93331  0.13868  0.07518  1.0000
  H   H6        1.0  0.06669  0.86133  0.92482  1.0000
  H   H7        1.0  0.02903  0.97782  0.14905  1.0000
  H   H8        1.0  0.97097  0.02218  0.85096  1.0000
  H   H9        1.0  0.15599  0.09124  0.47488  1.0000
  H   H10       1.0  0.84402  0.90876  0.52512  1.0000
  H   H11       1.0  0.98690  0.35106  0.05566  1.0000
  H   H12       1.0  0.01310  0.64895  0.94434  1.0000
  H   H13       1.0  0.08287  0.44685  0.12273  1.0000
  H   H14       1.0  0.91713  0.55315  0.87728  1.0000
  H   H15       1.0  0.62090  0.09811  0.09415  1.0000
  H   H16       1.0  0.37909  0.90188  0.90586  1.0000
  H   H17       1.0  0.76082  0.96993  0.29419  1.0000
  H   H18       1.0  0.23919  0.03006  0.70581  1.0000
  H   H19       1.0  0.04597  0.85558  0.29662  1.0000
  H   H20       1.0  0.95402  0.14442  0.70338  1.0000
  H   H21       1.0  0.30190  0.72224  0.59789  1.0000
  H   H22       1.0  0.69811  0.27776  0.40211  1.0000
  H   H23       1.0  0.27015  0.90019  0.54072  1.0000
  H   H24       1.0  0.72986  0.09981  0.45928  1.0000
  H   H25       1.0  0.06764  0.21477  0.90656  1.0000
  H   H26       1.0  0.93236  0.78524  0.09344  1.0000
  H   H27       1.0  0.70127  0.25107  0.22131  1.0000
  H   H28       1.0  0.29873  0.74893  0.77869  1.0000
  H   H29       1.0  0.67797  0.32234  0.07812  1.0000
  H   H30       1.0  0.32203  0.67766  0.92188  1.0000
  H   H31       1.0  0.82146  0.46218  0.22496  1.0000
  H   H32       1.0  0.17854  0.53782  0.77504  1.0000
  H   H33       1.0  0.79275  0.53392  0.08202  1.0000
  H   H34       1.0  0.20725  0.46608  0.91799  1.0000
  H   H35       1.0  0.47668  0.50655  0.09790  1.0000
  H   H36       1.0  0.52332  0.49346  0.90210  1.0000
  H   H37       1.0  0.50109  0.43838  0.24210  1.0000
  H   H38       1.0  0.49890  0.56162  0.75790  1.0000
  H   H39       1.0  0.40849  0.34531  0.17035  1.0000
  H   H40       1.0  0.59151  0.65469  0.82965  1.0000
  H   H41       1.0  0.32548  0.27631  0.79987  1.0000
  H   H42       1.0  0.67452  0.72369  0.20014  1.0000
  H   H43       1.0  0.72418  0.31000  0.73014  1.0000
  H   H44       1.0  0.27582  0.69000  0.26986  1.0000
  H   H45       1.0  0.36709  0.03320  0.20090  1.0000
  H   H46       1.0  0.63290  0.96679  0.79910  1.0000
  C   C1        1.0  0.09986  0.03323  0.32927  1.0000
  C   C2        1.0  0.90014  0.96677  0.67073  1.0000
  C   C3        1.0  0.53993  0.92815  0.39951  1.0000
  C   C4        1.0  0.46007  0.07185  0.60048  1.0000
  C   C5        1.0  0.47373  0.81613  0.47171  1.0000
  C   C6        1.0  0.52627  0.18387  0.52829  1.0000
  C   C7        1.0  0.73522  0.75911  0.38893  1.0000
  C   C8        1.0  0.26479  0.24088  0.61107  1.0000
  C   C9        1.0  0.04202  0.25009  0.22501  1.0000
  C   C10       1.0  0.95799  0.74991  0.77499  1.0000
  C   C11       1.0  0.04312  0.08619  0.12509  1.0000
  C   C12       1.0  0.95688  0.91381  0.87491  1.0000
  C   C13       1.0  0.20013  0.12055  0.06049  1.0000
  C   C14       1.0  0.79987  0.87945  0.93951  1.0000
  C   C15       1.0  0.12096  0.11672  0.38960  1.0000
  C   C16       1.0  0.87904  0.88328  0.61040  1.0000
  C   C17       1.0  0.98904  0.37412  0.13172  1.0000
  C   C18       1.0  0.01096  0.62588  0.86828  1.0000
  C   C19       1.0  0.49936  0.12471  0.05374  1.0000
  C   C20       1.0  0.50064  0.87529  0.94627  1.0000
  C   C21       1.0  0.68968  0.89545  0.35252  1.0000
  C   C22       1.0  0.31033  0.10454  0.64748  1.0000
  C   C23       1.0  0.11033  0.88971  0.35442  1.0000
  C   C24       1.0  0.88966  0.11029  0.64558  1.0000
  C   C25       1.0  0.18732  0.79010  0.43921  1.0000
  C   C26       1.0  0.81268  0.20990  0.56079  1.0000
  C   C27       1.0  0.30444  0.80859  0.52176  1.0000
  C   C28       1.0  0.69556  0.19141  0.47824  1.0000
  C   C29       1.0  0.18957  0.18764  0.94723  1.0000
  C   C30       1.0  0.81043  0.81237  0.05277  1.0000
  C   C31       1.0  0.48877  0.19372  0.94074  1.0000
  C   C32       1.0  0.51123  0.80627  0.05927  1.0000
  C   C33       1.0  0.67701  0.34766  0.15351  1.0000
  C   C34       1.0  0.32299  0.65234  0.84649  1.0000
  C   C35       1.0  0.64265  0.23489  0.87883  1.0000
  C   C36       1.0  0.35735  0.76511  0.12118  1.0000
  C   C37       1.0  0.81731  0.43748  0.14925  1.0000
  C   C38       1.0  0.18269  0.56252  0.85075  1.0000
  C   C39       1.0  0.50648  0.41272  0.16694  1.0000
  C   C40       1.0  0.49352  0.58728  0.83306  1.0000
  C   C41       1.0  0.33304  0.22339  0.88772  1.0000
  C   C42       1.0  0.66696  0.77661  0.11228  1.0000
  C   C43       1.0  0.35649  0.08808  0.11311  1.0000
  C   C44       1.0  0.64351  0.91192  0.88689  1.0000
  C   C45       1.0  0.16858  0.64755  0.44725  1.0000
  C   C46       1.0  0.83142  0.35245  0.55275  1.0000
  S   S1        1.0  0.59487  0.67132  0.47968  1.0000
  S   S2        1.0  0.40513  0.32867  0.52032  1.0000
  N   N1        1.0  0.08489  0.24857  0.32476  1.0000
  N   N2        1.0  0.91511  0.75144  0.67524  1.0000
  N   N3        1.0  0.04815  0.12133  0.22470  1.0000
  N   N4        1.0  0.95184  0.87868  0.77530  1.0000
  O   O1        1.0  0.14004  0.62829  0.35494  1.0000
  O   O2        1.0  0.85996  0.37171  0.64506  1.0000
  O   O3        1.0  0.61767  0.27929  0.77110  1.0000
  O   O4        1.0  0.38233  0.72070  0.22890  1.0000
  O   O5        1.0  0.77934  0.22908  0.92328  1.0000
  O   O6        1.0  0.22066  0.77091  0.07672  1.0000
  O   O7        1.0  0.17886  0.55569  0.53857  1.0000
  O   O8        1.0  0.82113  0.44431  0.46144  1.0000
