data_image0
_chemical_formula_structural       Cu2H10C16N6O8
_chemical_formula_sum              "Cu2 H10 C16 N6 O8"
_cell_length_a       6.20943
_cell_length_b       7.6301
_cell_length_c       9.83096
_cell_angle_alpha    92.2178
_cell_angle_beta     89.9996
_cell_angle_gamma    89.9952

_space_group_name_H-M_alt    "P 1"
_space_group_IT_number       1

loop_
  _space_group_symop_operation_xyz
  'x, y, z'

loop_
  _atom_site_type_symbol
  _atom_site_label
  _atom_site_symmetry_multiplicity
  _atom_site_fract_x
  _atom_site_fract_y
  _atom_site_fract_z
  _atom_site_occupancy
  Cu  Cu1       1.0  0.50001  0.99999  0.00000  1.0000
  Cu  Cu2       1.0  1.00000  1.00000  0.00000  1.0000
  H   H1        1.0  0.75002  0.82175  0.57234  1.0000
  H   H2        1.0  0.24997  0.17823  0.42768  1.0000
  H   H3        1.0  0.74999  0.62421  0.36836  1.0000
  H   H4        1.0  0.24999  0.37581  0.63164  1.0000
  H   H5        1.0  0.74997  0.29835  0.39248  1.0000
  H   H6        1.0  0.25001  0.70167  0.60750  1.0000
  H   H7        1.0  0.74999  0.17753  0.62257  1.0000
  H   H8        1.0  0.25000  0.82247  0.37741  1.0000
  H   H9        1.0  0.75012  0.37704  0.05116  1.0000
  H   H10       1.0  0.24996  0.62293  0.94884  1.0000
  C   C1        1.0  0.75002  0.61302  0.71422  1.0000
  C   C2        1.0  0.24998  0.38698  0.28577  1.0000
  C   C3        1.0  0.75001  0.68044  0.58404  1.0000
  C   C4        1.0  0.24998  0.31958  0.41596  1.0000
  C   C5        1.0  0.74999  0.56849  0.46861  1.0000
  C   C6        1.0  0.24999  0.43154  0.53140  1.0000
  C   C7        1.0  0.74999  0.38743  0.48159  1.0000
  C   C8        1.0  0.25000  0.61259  0.51841  1.0000
  C   C9        1.0  0.74999  0.31881  0.61050  1.0000
  C   C10       1.0  0.24999  0.68119  0.38949  1.0000
  C   C11       1.0  0.74999  0.42952  0.72817  1.0000
  C   C12       1.0  0.24999  0.57048  0.27181  1.0000
  C   C13       1.0  0.75000  0.74782  0.83014  1.0000
  C   C14       1.0  0.24998  0.25217  0.16988  1.0000
  C   C15       1.0  0.75003  0.34253  0.85969  1.0000
  C   C16       1.0  0.24998  0.65746  0.14030  1.0000
  N   N1        1.0  0.75001  0.93034  0.11424  1.0000
  N   N2        1.0  0.24999  0.06965  0.88578  1.0000
  N   N3        1.0  0.75002  0.96086  0.23662  1.0000
  N   N4        1.0  0.25000  0.03913  0.76338  1.0000
  N   N5        1.0  0.75002  0.98358  0.35380  1.0000
  N   N6        1.0  0.25001  0.01643  0.64622  1.0000
  O   O1        1.0  0.56545  0.80265  0.86891  1.0000
  O   O2        1.0  0.06546  0.19737  0.13108  1.0000
  O   O3        1.0  0.43452  0.19734  0.13111  1.0000
  O   O4        1.0  0.93455  0.80264  0.86891  1.0000
  O   O5        1.0  0.75000  0.18067  0.86736  1.0000
  O   O6        1.0  0.25000  0.81930  0.13263  1.0000
  O   O7        1.0  0.75004  0.45028  0.97091  1.0000
  O   O8        1.0  0.24999  0.54969  0.02908  1.0000
