data_image0
_chemical_formula_structural       Cd2H34C42N6O8
_chemical_formula_sum              "Cd2 H34 C42 N6 O8"
_cell_length_a       8.84021
_cell_length_b       10.5286
_cell_length_c       10.84
_cell_angle_alpha    72.873
_cell_angle_beta     84.9332
_cell_angle_gamma    79.22

_space_group_name_H-M_alt    "P 1"
_space_group_IT_number       1

loop_
  _space_group_symop_operation_xyz
  'x, y, z'

loop_
  _atom_site_type_symbol
  _atom_site_label
  _atom_site_symmetry_multiplicity
  _atom_site_fract_x
  _atom_site_fract_y
  _atom_site_fract_z
  _atom_site_occupancy
  Cd  Cd1       1.0  0.56826  0.60622  0.12629  1.0000
  Cd  Cd2       1.0  0.43174  0.39378  0.87371  1.0000
  H   H1        1.0  0.45047  0.43295  0.36936  1.0000
  H   H2        1.0  0.54953  0.56705  0.63064  1.0000
  H   H3        1.0  0.34852  0.43074  0.51665  1.0000
  H   H4        1.0  0.65148  0.56926  0.48335  1.0000
  H   H5        1.0  0.28159  0.81363  0.06877  1.0000
  H   H6        1.0  0.71840  0.18637  0.93123  1.0000
  H   H7        1.0  0.04433  0.93131  0.16094  1.0000
  H   H8        1.0  0.95567  0.06869  0.83906  1.0000
  H   H9        1.0  0.96939  0.83089  0.39352  1.0000
  H   H10       1.0  0.03061  0.16911  0.60648  1.0000
  H   H11       1.0  0.12390  0.49728  0.59729  1.0000
  H   H12       1.0  0.87610  0.50272  0.40271  1.0000
  H   H13       1.0  0.05792  0.79463  0.59708  1.0000
  H   H14       1.0  0.94208  0.20537  0.40293  1.0000
  H   H15       1.0  0.95108  0.44641  0.76832  1.0000
  H   H16       1.0  0.04893  0.55359  0.23168  1.0000
  H   H17       1.0  0.77899  0.41825  0.96469  1.0000
  H   H18       1.0  0.22102  0.58175  0.03531  1.0000
  H   H19       1.0  0.80547  0.79678  0.99293  1.0000
  H   H20       1.0  0.19453  0.20322  0.00707  1.0000
  H   H21       1.0  0.98432  0.84019  0.79912  1.0000
  H   H22       1.0  0.01568  0.15981  0.20088  1.0000
  H   H23       1.0  0.66182  0.20872  0.42847  1.0000
  H   H24       1.0  0.33818  0.79128  0.57153  1.0000
  H   H25       1.0  0.70481  0.78318  0.47658  1.0000
  H   H26       1.0  0.29519  0.21683  0.52342  1.0000
  H   H27       1.0  0.57947  0.06695  0.10988  1.0000
  H   H28       1.0  0.42053  0.93305  0.89012  1.0000
  H   H29       1.0  0.85820  0.97037  0.60879  1.0000
  H   H30       1.0  0.14180  0.02963  0.39121  1.0000
  H   H31       1.0  0.71806  0.86388  0.66390  1.0000
  H   H32       1.0  0.28194  0.13612  0.33610  1.0000
  H   H33       1.0  0.67040  0.03883  0.65129  1.0000
  H   H34       1.0  0.32961  0.96117  0.34870  1.0000
  C   C1        1.0  0.24135  0.77390  0.16833  1.0000
  C   C2        1.0  0.75865  0.22610  0.83167  1.0000
  C   C3        1.0  0.11174  0.83964  0.22002  1.0000
  C   C4        1.0  0.88826  0.16036  0.77998  1.0000
  C   C5        1.0  0.07148  0.78359  0.34940  1.0000
  C   C6        1.0  0.92853  0.21641  0.65060  1.0000
  C   C7        1.0  0.15575  0.66355  0.42344  1.0000
  C   C8        1.0  0.84425  0.33645  0.57656  1.0000
  C   C9        1.0  0.28308  0.59787  0.36002  1.0000
  C   C10       1.0  0.71692  0.40213  0.63998  1.0000
  C   C11       1.0  0.11049  0.60704  0.55834  1.0000
  C   C12       1.0  0.88951  0.39296  0.44166  1.0000
  C   C13       1.0  0.05346  0.68701  0.63516  1.0000
  C   C14       1.0  0.94654  0.31299  0.36484  1.0000
  C   C15       1.0  0.97883  0.64926  0.76225  1.0000
  C   C16       1.0  0.02117  0.35074  0.23775  1.0000
  C   C17       1.0  0.92468  0.52645  0.81555  1.0000
  C   C18       1.0  0.07532  0.47355  0.18446  1.0000
  C   C19       1.0  0.82855  0.50972  0.92529  1.0000
  C   C20       1.0  0.17145  0.49028  0.07471  1.0000
  C   C21       1.0  0.84398  0.72112  0.94140  1.0000
  C   C22       1.0  0.15602  0.27888  0.05860  1.0000
  C   C23       1.0  0.94213  0.74450  0.83313  1.0000
  C   C24       1.0  0.05787  0.25550  0.16687  1.0000
  C   C25       1.0  0.62045  0.15298  0.26053  1.0000
  C   C26       1.0  0.37955  0.84702  0.73947  1.0000
  C   C27       1.0  0.65825  0.12486  0.38975  1.0000
  C   C28       1.0  0.34175  0.87514  0.61026  1.0000
  C   C29       1.0  0.69098  0.99239  0.46874  1.0000
  C   C30       1.0  0.30902  0.00761  0.53126  1.0000
  C   C31       1.0  0.68239  0.88750  0.41639  1.0000
  C   C32       1.0  0.31761  0.11250  0.58360  1.0000
  C   C33       1.0  0.64371  0.91364  0.28758  1.0000
  C   C34       1.0  0.35629  0.08636  0.71242  1.0000
  C   C35       1.0  0.61306  0.04694  0.20911  1.0000
  C   C36       1.0  0.38693  0.95306  0.79088  1.0000
  C   C37       1.0  0.59066  0.29675  0.17881  1.0000
  C   C38       1.0  0.40934  0.70325  0.82119  1.0000
  C   C39       1.0  0.63170  0.79932  0.23486  1.0000
  C   C40       1.0  0.36830  0.20068  0.76514  1.0000
  C   C41       1.0  0.73575  0.96455  0.60547  1.0000
  C   C42       1.0  0.26425  0.03545  0.39453  1.0000
  N   N1        1.0  0.32502  0.65728  0.23515  1.0000
  N   N2        1.0  0.67497  0.34272  0.76485  1.0000
  N   N3        1.0  0.78384  0.60668  0.98561  1.0000
  N   N4        1.0  0.21616  0.39332  0.01439  1.0000
  N   N5        1.0  0.36444  0.47736  0.42036  1.0000
  N   N6        1.0  0.63556  0.52264  0.57964  1.0000
  O   O1        1.0  0.58116  0.38744  0.23799  1.0000
  O   O2        1.0  0.41884  0.61256  0.76201  1.0000
  O   O3        1.0  0.58245  0.32165  0.05794  1.0000
  O   O4        1.0  0.41755  0.67835  0.94206  1.0000
  O   O5        1.0  0.58826  0.82850  0.11910  1.0000
  O   O6        1.0  0.41174  0.17150  0.88090  1.0000
  O   O7        1.0  0.66338  0.67782  0.30633  1.0000
  O   O8        1.0  0.33662  0.32218  0.69367  1.0000
