data_image0
_chemical_formula_structural       CeP2H10C12O6
_chemical_formula_sum              "Ce1 P2 H10 C12 O6"
_cell_length_a       5.5402
_cell_length_b       5.54021
_cell_length_c       14.7927
_cell_angle_alpha    83.419
_cell_angle_beta     83.4187
_cell_angle_gamma    62.3234

_space_group_name_H-M_alt    "P 1"
_space_group_IT_number       1

loop_
  _space_group_symop_operation_xyz
  'x, y, z'

loop_
  _atom_site_type_symbol
  _atom_site_label
  _atom_site_symmetry_multiplicity
  _atom_site_fract_x
  _atom_site_fract_y
  _atom_site_fract_z
  _atom_site_occupancy
  Ce  Ce1       1.0  0.37951  0.62049  1.00000  1.0000
  P   P1        1.0  0.00583  0.24529  0.11672  1.0000
  P   P2        1.0  0.75472  0.99417  0.88328  1.0000
  H   H1        1.0  0.60908  0.49464  0.26850  1.0000
  H   H2        1.0  0.50536  0.39092  0.73150  1.0000
  H   H3        1.0  0.66392  0.50344  0.43241  1.0000
  H   H4        1.0  0.49656  0.33607  0.56759  1.0000
  H   H5        1.0  0.13050  0.27861  0.49044  1.0000
  H   H6        1.0  0.72139  0.86950  0.50956  1.0000
  H   H7        1.0  0.53931  0.06535  0.38227  1.0000
  H   H8        1.0  0.93465  0.46069  0.61773  1.0000
  H   H9        1.0  0.48449  0.05561  0.21943  1.0000
  H   H10       1.0  0.94439  0.51551  0.78057  1.0000
  C   C1        1.0  0.04199  0.27057  0.23408  1.0000
  C   C2        1.0  0.72943  0.95802  0.76592  1.0000
  C   C3        1.0  0.81211  0.40025  0.29405  1.0000
  C   C4        1.0  0.59976  0.18788  0.70595  1.0000
  C   C5        1.0  0.84421  0.40438  0.38605  1.0000
  C   C6        1.0  0.59561  0.15579  0.61395  1.0000
  C   C7        1.0  0.10503  0.28045  0.41836  1.0000
  C   C8        1.0  0.71955  0.89496  0.58164  1.0000
  C   C9        1.0  0.33479  0.15717  0.35806  1.0000
  C   C10       1.0  0.84282  0.66521  0.64194  1.0000
  C   C11       1.0  0.30451  0.15158  0.26621  1.0000
  C   C12       1.0  0.84841  0.69549  0.73378  1.0000
  O   O1        1.0  0.15435  0.38706  0.05556  1.0000
  O   O2        1.0  0.61294  0.84565  0.94445  1.0000
  O   O3        1.0  0.14145  0.93811  0.10062  1.0000
  O   O4        1.0  0.06189  0.85855  0.89938  1.0000
  O   O5        1.0  0.69869  0.38317  0.10173  1.0000
  O   O6        1.0  0.61683  0.30131  0.89828  1.0000
