data_image0
_chemical_formula_structural       Mn2H20C22N4O12
_chemical_formula_sum              "Mn2 H20 C22 N4 O12"
_cell_length_a       7.61466
_cell_length_b       8.29985
_cell_length_c       8.80885
_cell_angle_alpha    83.5796
_cell_angle_beta     84.5317
_cell_angle_gamma    88.28

_space_group_name_H-M_alt    "P 1"
_space_group_IT_number       1

loop_
  _space_group_symop_operation_xyz
  'x, y, z'

loop_
  _atom_site_type_symbol
  _atom_site_label
  _atom_site_symmetry_multiplicity
  _atom_site_fract_x
  _atom_site_fract_y
  _atom_site_fract_z
  _atom_site_occupancy
  Mn  Mn1       1.0  0.25709  0.89693  0.84986  1.0000
  Mn  Mn2       1.0  0.74291  0.10307  0.15014  1.0000
  H   H1        1.0  0.52819  0.81698  0.02953  1.0000
  H   H2        1.0  0.47181  0.18300  0.97047  1.0000
  H   H3        1.0  0.34391  0.79746  0.12995  1.0000
  H   H4        1.0  0.65609  0.20253  0.87005  1.0000
  H   H5        1.0  0.96790  0.04594  0.69911  1.0000
  H   H6        1.0  0.03211  0.95405  0.30089  1.0000
  H   H7        1.0  0.08483  0.93679  0.59338  1.0000
  H   H8        1.0  0.91516  0.06318  0.40664  1.0000
  H   H9        1.0  0.60387  0.80283  0.49699  1.0000
  H   H10       1.0  0.39615  0.19718  0.50300  1.0000
  H   H11       1.0  0.90054  0.37781  0.66503  1.0000
  H   H12       1.0  0.09946  0.62219  0.33497  1.0000
  H   H13       1.0  0.96301  0.51247  0.88641  1.0000
  H   H14       1.0  0.03698  0.48753  0.11360  1.0000
  H   H15       1.0  0.76812  0.25656  0.50529  1.0000
  H   H16       1.0  0.23189  0.74345  0.49470  1.0000
  H   H17       1.0  0.63848  0.71795  0.28156  1.0000
  H   H18       1.0  0.36152  0.28206  0.71843  1.0000
  H   H19       1.0  0.62410  0.48402  0.08116  1.0000
  H   H20       1.0  0.37590  0.51598  0.91884  1.0000
  C   C1        1.0  0.74768  0.58133  0.56520  1.0000
  C   C2        1.0  0.25233  0.41868  0.43479  1.0000
  C   C3        1.0  0.82076  0.73422  0.82004  1.0000
  C   C4        1.0  0.17923  0.26579  0.17996  1.0000
  C   C5        1.0  0.68150  0.73749  0.58247  1.0000
  C   C6        1.0  0.31852  0.26251  0.41753  1.0000
  C   C7        1.0  0.71697  0.81362  0.70922  1.0000
  C   C8        1.0  0.28303  0.18639  0.29077  1.0000
  C   C9        1.0  0.84786  0.49963  0.67620  1.0000
  C   C10       1.0  0.15214  0.50038  0.32379  1.0000
  C   C11       1.0  0.88349  0.57660  0.80181  1.0000
  C   C12       1.0  0.11651  0.42341  0.19819  1.0000
  C   C13       1.0  0.86453  0.81577  0.95509  1.0000
  C   C14       1.0  0.13547  0.18423  0.04491  1.0000
  C   C15       1.0  0.73805  0.34766  0.41245  1.0000
  C   C16       1.0  0.26196  0.65234  0.58754  1.0000
  C   C17       1.0  0.64955  0.98500  0.71614  1.0000
  C   C18       1.0  0.35046  0.01500  0.28386  1.0000
  C   C19       1.0  0.66425  0.58837  0.29632  1.0000
  C   C20       1.0  0.33575  0.41163  0.70368  1.0000
  C   C21       1.0  0.65933  0.47203  0.19812  1.0000
  C   C22       1.0  0.34067  0.52797  0.80188  1.0000
  N   N1        1.0  0.71547  0.50829  0.43259  1.0000
  N   N2        1.0  0.28453  0.49172  0.56741  1.0000
  N   N3        1.0  0.70575  0.32258  0.27145  1.0000
  N   N4        1.0  0.29426  0.67742  0.72855  1.0000
  O   O1        1.0  0.48532  0.01452  0.71615  1.0000
  O   O2        1.0  0.51469  0.98548  0.28385  1.0000
  O   O3        1.0  0.73642  0.88658  0.02878  1.0000
  O   O4        1.0  0.26358  0.11341  0.97123  1.0000
  O   O5        1.0  0.02220  0.81125  0.99017  1.0000
  O   O6        1.0  0.97780  0.18875  0.00983  1.0000
  O   O7        1.0  0.40631  0.77479  0.03023  1.0000
  O   O8        1.0  0.59369  0.22521  0.96977  1.0000
  O   O9        1.0  0.76296  0.09586  0.71735  1.0000
  O   O10       1.0  0.23705  0.90415  0.28264  1.0000
  O   O11       1.0  0.09511  0.01317  0.66811  1.0000
  O   O12       1.0  0.90490  0.98682  0.33189  1.0000
