data_image0
_chemical_formula_structural       Zn4H24C44N8O16
_chemical_formula_sum              "Zn4 H24 C44 N8 O16"
_cell_length_a       5.21899
_cell_length_b       9.04721
_cell_length_c       23.6592
_cell_angle_alpha    84.4199
_cell_angle_beta     83.6554
_cell_angle_gamma    73.2299

_space_group_name_H-M_alt    "P 1"
_space_group_IT_number       1

loop_
  _space_group_symop_operation_xyz
  'x, y, z'

loop_
  _atom_site_type_symbol
  _atom_site_label
  _atom_site_symmetry_multiplicity
  _atom_site_fract_x
  _atom_site_fract_y
  _atom_site_fract_z
  _atom_site_occupancy
  Zn  Zn1       1.0  0.88717  0.66767  0.67914  1.0000
  Zn  Zn2       1.0  0.23366  0.83263  0.82082  1.0000
  Zn  Zn3       1.0  0.11283  0.33233  0.32086  1.0000
  Zn  Zn4       1.0  0.76633  0.16737  0.17918  1.0000
  H   H1        1.0  0.67017  0.16180  0.69183  1.0000
  H   H2        1.0  0.52585  0.33753  0.80809  1.0000
  H   H3        1.0  0.32983  0.83820  0.30817  1.0000
  H   H4        1.0  0.47416  0.66247  0.19191  1.0000
  H   H5        1.0  0.45375  0.42064  0.68391  1.0000
  H   H6        1.0  0.55892  0.07933  0.81598  1.0000
  H   H7        1.0  0.54626  0.57936  0.31609  1.0000
  H   H8        1.0  0.44108  0.92066  0.18402  1.0000
  H   H9        1.0  0.96046  0.57524  0.54858  1.0000
  H   H10       1.0  0.08577  0.92445  0.95144  1.0000
  H   H11       1.0  0.03954  0.42476  0.45142  1.0000
  H   H12       1.0  0.91422  0.07555  0.04856  1.0000
  H   H13       1.0  0.40464  0.33114  0.51290  1.0000
  H   H14       1.0  0.25134  0.16789  0.98717  1.0000
  H   H15       1.0  0.59535  0.66886  0.48710  1.0000
  H   H16       1.0  0.74866  0.83211  0.01283  1.0000
  H   H17       1.0  0.85646  0.23835  0.51090  1.0000
  H   H18       1.0  0.60496  0.26225  0.98913  1.0000
  H   H19       1.0  0.14354  0.76165  0.48910  1.0000
  H   H20       1.0  0.39504  0.73775  0.01087  1.0000
  H   H21       1.0  0.27169  0.02121  0.51605  1.0000
  H   H22       1.0  0.80699  0.47995  0.98394  1.0000
  H   H23       1.0  0.72831  0.97879  0.48395  1.0000
  H   H24       1.0  0.19301  0.52005  0.01606  1.0000
  C   C1        1.0  0.47122  0.84339  0.60740  1.0000
  C   C2        1.0  0.92133  0.65696  0.89259  1.0000
  C   C3        1.0  0.52878  0.15662  0.39260  1.0000
  C   C4        1.0  0.07866  0.34304  0.10741  1.0000
  C   C5        1.0  0.20984  0.96975  0.60622  1.0000
  C   C6        1.0  0.78533  0.53065  0.89374  1.0000
  C   C7        1.0  0.79016  0.03025  0.39378  1.0000
  C   C8        1.0  0.21467  0.46935  0.10627  1.0000
  C   C9        1.0  0.03963  0.01170  0.65620  1.0000
  C   C10       1.0  0.70749  0.48851  0.84376  1.0000
  C   C11       1.0  0.96038  0.98830  0.34380  1.0000
  C   C12       1.0  0.29251  0.51149  0.15624  1.0000
  C   C13       1.0  0.08843  0.92050  0.71245  1.0000
  C   C14       1.0  0.72132  0.57966  0.78748  1.0000
  C   C15       1.0  0.91157  0.07950  0.28755  1.0000
  C   C16       1.0  0.27867  0.42034  0.21252  1.0000
  C   C17       1.0  0.80588  0.13419  0.65350  1.0000
  C   C18       1.0  0.59454  0.36561  0.84646  1.0000
  C   C19       1.0  0.19412  0.86581  0.34650  1.0000
  C   C20       1.0  0.40547  0.63438  0.15354  1.0000
  C   C21       1.0  0.74066  0.21545  0.60132  1.0000
  C   C22       1.0  0.55824  0.28442  0.89866  1.0000
  C   C23       1.0  0.25934  0.78455  0.39868  1.0000
  C   C24       1.0  0.44176  0.71558  0.10134  1.0000
  C   C25       1.0  0.37627  0.42918  0.64271  1.0000
  C   C26       1.0  0.44907  0.07070  0.85723  1.0000
  C   C27       1.0  0.62373  0.57082  0.35729  1.0000
  C   C28       1.0  0.55094  0.92930  0.14277  1.0000
  C   C29       1.0  0.13231  0.50605  0.57028  1.0000
  C   C30       1.0  0.21004  0.99361  0.92973  1.0000
  C   C31       1.0  0.86769  0.49395  0.42972  1.0000
  C   C32       1.0  0.78996  0.00639  0.07027  1.0000
  C   C33       1.0  0.34932  0.38831  0.55259  1.0000
  C   C34       1.0  0.29209  0.11106  0.94744  1.0000
  C   C35       1.0  0.65068  0.61169  0.44741  1.0000
  C   C36       1.0  0.70792  0.88894  0.05256  1.0000
  C   C37       1.0  0.90641  0.17453  0.55151  1.0000
  C   C38       1.0  0.63215  0.32585  0.94849  1.0000
  C   C39       1.0  0.09359  0.82547  0.44848  1.0000
  C   C40       1.0  0.36786  0.67415  0.05151  1.0000
  C   C41       1.0  0.13879  0.05198  0.55449  1.0000
  C   C42       1.0  0.74426  0.44868  0.94549  1.0000
  C   C43       1.0  0.86122  0.94802  0.44550  1.0000
  C   C44       1.0  0.25574  0.55132  0.05451  1.0000
  N   N1        1.0  0.50183  0.34005  0.59904  1.0000
  N   N2        1.0  0.44221  0.15959  0.90095  1.0000
  N   N3        1.0  0.49817  0.65995  0.40096  1.0000
  N   N4        1.0  0.55779  0.84041  0.09905  1.0000
  N   N5        1.0  0.15192  0.52990  0.62632  1.0000
  N   N6        1.0  0.30920  0.96990  0.87366  1.0000
  N   N7        1.0  0.84808  0.47009  0.37368  1.0000
  N   N8        1.0  0.69080  0.03010  0.12634  1.0000
  O   O1        1.0  0.57084  0.82227  0.65628  1.0000
  O   O2        1.0  0.04781  0.67860  0.84363  1.0000
  O   O3        1.0  0.42916  0.17773  0.34372  1.0000
  O   O4        1.0  0.95219  0.32141  0.15637  1.0000
  O   O5        1.0  0.57304  0.77286  0.56387  1.0000
  O   O6        1.0  0.91047  0.72692  0.93618  1.0000
  O   O7        1.0  0.42696  0.22714  0.43613  1.0000
  O   O8        1.0  0.08951  0.27309  0.06382  1.0000
  O   O9        1.0  0.11487  0.99077  0.75481  1.0000
  O   O10       1.0  0.86103  0.50947  0.74516  1.0000
  O   O11       1.0  0.88513  0.00923  0.24519  1.0000
  O   O12       1.0  0.13897  0.49054  0.25484  1.0000
  O   O13       1.0  0.08989  0.77933  0.71738  1.0000
  O   O14       1.0  0.58586  0.72069  0.78248  1.0000
  O   O15       1.0  0.91011  0.22067  0.28262  1.0000
  O   O16       1.0  0.41414  0.27931  0.21752  1.0000
