data_image0
_chemical_formula_structural       Ag4H48C44S12N8O20F12
_chemical_formula_sum              "Ag4 H48 C44 S12 N8 O20 F12"
_cell_length_a       12.0555
_cell_length_b       12.7218
_cell_length_c       12.897
_cell_angle_alpha    90.0001
_cell_angle_beta     89.9997
_cell_angle_gamma    118.46

_space_group_name_H-M_alt    "P 1"
_space_group_IT_number       1

loop_
  _space_group_symop_operation_xyz
  'x, y, z'

loop_
  _atom_site_type_symbol
  _atom_site_label
  _atom_site_symmetry_multiplicity
  _atom_site_fract_x
  _atom_site_fract_y
  _atom_site_fract_z
  _atom_site_occupancy
  Ag  Ag1       1.0  0.30287  0.97789  0.88771  1.0000
  Ag  Ag2       1.0  0.19713  0.02211  0.38771  1.0000
  Ag  Ag3       1.0  0.69712  0.02212  0.11229  1.0000
  Ag  Ag4       1.0  0.80288  0.97789  0.61229  1.0000
  H   H1        1.0  0.18296  0.66044  0.83860  1.0000
  H   H2        1.0  0.31704  0.33957  0.33861  1.0000
  H   H3        1.0  0.81704  0.33956  0.16140  1.0000
  H   H4        1.0  0.68297  0.66044  0.66139  1.0000
  H   H5        1.0  0.11433  0.69006  0.94897  1.0000
  H   H6        1.0  0.38567  0.30994  0.44898  1.0000
  H   H7        1.0  0.88567  0.30994  0.05103  1.0000
  H   H8        1.0  0.61433  0.69006  0.55102  1.0000
  H   H9        1.0  0.97179  0.48316  0.88074  1.0000
  H   H10       1.0  0.52821  0.51684  0.38074  1.0000
  H   H11       1.0  0.02821  0.51683  0.11926  1.0000
  H   H12       1.0  0.47180  0.48317  0.61926  1.0000
  H   H13       1.0  0.89991  0.57873  0.87328  1.0000
  H   H14       1.0  0.60009  0.42127  0.37328  1.0000
  H   H15       1.0  0.10009  0.42127  0.12672  1.0000
  H   H16       1.0  0.39991  0.57873  0.62672  1.0000
  H   H17       1.0  0.77870  0.51981  0.73491  1.0000
  H   H18       1.0  0.72130  0.48019  0.23491  1.0000
  H   H19       1.0  0.22130  0.48019  0.26509  1.0000
  H   H20       1.0  0.27871  0.51981  0.76509  1.0000
  H   H21       1.0  0.79265  0.38557  0.72606  1.0000
  H   H22       1.0  0.70735  0.61443  0.22606  1.0000
  H   H23       1.0  0.20735  0.61443  0.27394  1.0000
  H   H24       1.0  0.29266  0.38557  0.77394  1.0000
  H   H25       1.0  0.88926  0.44930  0.54941  1.0000
  H   H26       1.0  0.61075  0.55070  0.04941  1.0000
  H   H27       1.0  0.11075  0.55070  0.45059  1.0000
  H   H28       1.0  0.38926  0.44930  0.95059  1.0000
  H   H29       1.0  0.73028  0.42195  0.55870  1.0000
  H   H30       1.0  0.76972  0.57805  0.05870  1.0000
  H   H31       1.0  0.26972  0.57805  0.44130  1.0000
  H   H32       1.0  0.23029  0.42194  0.94130  1.0000
  H   H33       1.0  0.79449  0.57993  0.40039  1.0000
  H   H34       1.0  0.70551  0.42007  0.90038  1.0000
  H   H35       1.0  0.20551  0.42007  0.59962  1.0000
  H   H36       1.0  0.29449  0.57993  0.09962  1.0000
  H   H37       1.0  0.93472  0.56752  0.41212  1.0000
  H   H38       1.0  0.56528  0.43248  0.91212  1.0000
  H   H39       1.0  0.06528  0.43248  0.58788  1.0000
  H   H40       1.0  0.43472  0.56752  0.08788  1.0000
  H   H41       1.0  0.91322  0.79900  0.43933  1.0000
  H   H42       1.0  0.58677  0.20100  0.93934  1.0000
  H   H43       1.0  0.08678  0.20100  0.56067  1.0000
  H   H44       1.0  0.41322  0.79900  0.06067  1.0000
  H   H45       1.0  0.97599  0.75827  0.33067  1.0000
  H   H46       1.0  0.52400  0.24173  0.83067  1.0000
  H   H47       1.0  0.02401  0.24173  0.66933  1.0000
  H   H48       1.0  0.47599  0.75827  0.16933  1.0000
  C   C1        1.0  0.09073  0.82887  0.60021  1.0000
  C   C2        1.0  0.40926  0.17113  0.10021  1.0000
  C   C3        1.0  0.90928  0.17113  0.39979  1.0000
  C   C4        1.0  0.59073  0.82887  0.89979  1.0000
  C   C5        1.0  0.13681  0.78664  0.67770  1.0000
  C   C6        1.0  0.36317  0.21335  0.17770  1.0000
  C   C7        1.0  0.86319  0.21336  0.32230  1.0000
  C   C8        1.0  0.63681  0.78665  0.82230  1.0000
  C   C9        1.0  0.10214  0.67052  0.86562  1.0000
  C   C10       1.0  0.39786  0.32949  0.36562  1.0000
  C   C11       1.0  0.89786  0.32948  0.13438  1.0000
  C   C12       1.0  0.60214  0.67052  0.63438  1.0000
  C   C13       1.0  0.97594  0.56280  0.84269  1.0000
  C   C14       1.0  0.52407  0.43720  0.34269  1.0000
  C   C15       1.0  0.02407  0.43720  0.15731  1.0000
  C   C16       1.0  0.47594  0.56280  0.65731  1.0000
  C   C17       1.0  0.83385  0.47976  0.70061  1.0000
  C   C18       1.0  0.66615  0.52024  0.20061  1.0000
  C   C19       1.0  0.16615  0.52024  0.29939  1.0000
  C   C20       1.0  0.33385  0.47976  0.79939  1.0000
  C   C21       1.0  0.82795  0.48247  0.58401  1.0000
  C   C22       1.0  0.67205  0.51753  0.08401  1.0000
  C   C23       1.0  0.17205  0.51753  0.41599  1.0000
  C   C24       1.0  0.32796  0.48247  0.91599  1.0000
  C   C25       1.0  0.88606  0.61645  0.44119  1.0000
  C   C26       1.0  0.61394  0.38355  0.94119  1.0000
  C   C27       1.0  0.11394  0.38355  0.55881  1.0000
  C   C28       1.0  0.38606  0.61645  0.05881  1.0000
  C   C29       1.0  0.96083  0.74790  0.41481  1.0000
  C   C30       1.0  0.53916  0.25209  0.91481  1.0000
  C   C31       1.0  0.03917  0.25210  0.58519  1.0000
  C   C32       1.0  0.46084  0.74790  0.08519  1.0000
  C   C33       1.0  0.01745  0.88481  0.62405  1.0000
  C   C34       1.0  0.48254  0.11519  0.12405  1.0000
  C   C35       1.0  0.98255  0.11519  0.37594  1.0000
  C   C36       1.0  0.51745  0.88481  0.87595  1.0000
  C   C37       1.0  0.20939  0.72909  0.65400  1.0000
  C   C38       1.0  0.29060  0.27091  0.15400  1.0000
  C   C39       1.0  0.79061  0.27091  0.34600  1.0000
  C   C40       1.0  0.70939  0.72910  0.84599  1.0000
  C   C41       1.0  0.04025  0.88529  0.10362  1.0000
  C   C42       1.0  0.45974  0.11471  0.60361  1.0000
  C   C43       1.0  0.95974  0.11471  0.89638  1.0000
  C   C44       1.0  0.54026  0.88529  0.39639  1.0000
  S   S1        1.0  0.10962  0.80467  0.80843  1.0000
  S   S2        1.0  0.39037  0.19534  0.30843  1.0000
  S   S3        1.0  0.89038  0.19533  0.19157  1.0000
  S   S4        1.0  0.60963  0.80467  0.69156  1.0000
  S   S5        1.0  0.12127  0.81817  0.46781  1.0000
  S   S6        1.0  0.37873  0.18183  0.96781  1.0000
  S   S7        1.0  0.87874  0.18183  0.53219  1.0000
  S   S8        1.0  0.62127  0.81817  0.03219  1.0000
  S   S9        1.0  0.15326  0.83170  0.14582  1.0000
  S   S10       1.0  0.34674  0.16830  0.64581  1.0000
  S   S11       1.0  0.84674  0.16830  0.85418  1.0000
  S   S12       1.0  0.65326  0.83170  0.35418  1.0000
  N   N1        1.0  0.95560  0.93138  0.63818  1.0000
  N   N2        1.0  0.54439  0.06862  0.13818  1.0000
  N   N3        1.0  0.04440  0.06862  0.36182  1.0000
  N   N4        1.0  0.45560  0.93138  0.86182  1.0000
  N   N5        1.0  0.27027  0.68134  0.64017  1.0000
  N   N6        1.0  0.22974  0.31867  0.14018  1.0000
  N   N7        1.0  0.72974  0.31866  0.35983  1.0000
  N   N8        1.0  0.77026  0.68134  0.85982  1.0000
  O   O1        1.0  0.96256  0.54523  0.73323  1.0000
  O   O2        1.0  0.53744  0.45477  0.23323  1.0000
  O   O3        1.0  0.03744  0.45477  0.26677  1.0000
  O   O4        1.0  0.46256  0.54523  0.76677  1.0000
  O   O5        1.0  0.86783  0.60240  0.55031  1.0000
  O   O6        1.0  0.63217  0.39759  0.05031  1.0000
  O   O7        1.0  0.13217  0.39760  0.44970  1.0000
  O   O8        1.0  0.36783  0.60240  0.94969  1.0000
  O   O9        1.0  0.22011  0.90838  0.23372  1.0000
  O   O10       1.0  0.27990  0.09162  0.73372  1.0000
  O   O11       1.0  0.77989  0.09162  0.76628  1.0000
  O   O12       1.0  0.72010  0.90838  0.26628  1.0000
  O   O13       1.0  0.06981  0.70681  0.17084  1.0000
  O   O14       1.0  0.43020  0.29319  0.67083  1.0000
  O   O15       1.0  0.93019  0.29319  0.82916  1.0000
  O   O16       1.0  0.56981  0.70681  0.32917  1.0000
  O   O17       1.0  0.23324  0.85200  0.05426  1.0000
  O   O18       1.0  0.26676  0.14800  0.55426  1.0000
  O   O19       1.0  0.76676  0.14800  0.94574  1.0000
  O   O20       1.0  0.73324  0.85200  0.44574  1.0000
  F   F1        1.0  0.10102  0.00408  0.08085  1.0000
  F   F2        1.0  0.39898  0.99592  0.58084  1.0000
  F   F3        1.0  0.89898  0.99591  0.91915  1.0000
  F   F4        1.0  0.60102  0.00408  0.41916  1.0000
  F   F5        1.0  0.97681  0.82514  0.01750  1.0000
  F   F6        1.0  0.52319  0.17486  0.51749  1.0000
  F   F7        1.0  0.02318  0.17485  0.98251  1.0000
  F   F8        1.0  0.47681  0.82514  0.48251  1.0000
  F   F9        1.0  0.95426  0.86708  0.17886  1.0000
  F   F10       1.0  0.54574  0.13291  0.67884  1.0000
  F   F11       1.0  0.04574  0.13291  0.82115  1.0000
  F   F12       1.0  0.45426  0.86709  0.32116  1.0000
