data_image0
_chemical_formula_structural       Cd2H36C48I4N8
_chemical_formula_sum              "Cd2 H36 C48 I4 N8"
_cell_length_a       9.05085
_cell_length_b       10.228
_cell_length_c       13.328
_cell_angle_alpha    69.6791
_cell_angle_beta     78.1399
_cell_angle_gamma    87.4972

_space_group_name_H-M_alt    "P 1"
_space_group_IT_number       1

loop_
  _space_group_symop_operation_xyz
  'x, y, z'

loop_
  _atom_site_type_symbol
  _atom_site_label
  _atom_site_symmetry_multiplicity
  _atom_site_fract_x
  _atom_site_fract_y
  _atom_site_fract_z
  _atom_site_occupancy
  Cd  Cd1       1.0  0.36227  0.33340  0.23631  1.0000
  Cd  Cd2       1.0  0.63773  0.66660  0.76369  1.0000
  H   H1        1.0  0.95619  0.64379  0.85498  1.0000
  H   H2        1.0  0.04380  0.35622  0.14502  1.0000
  H   H3        1.0  0.05268  0.67758  0.00721  1.0000
  H   H4        1.0  0.94731  0.32242  0.99279  1.0000
  H   H5        1.0  0.88349  0.78204  0.13142  1.0000
  H   H6        1.0  0.11651  0.21796  0.86858  1.0000
  H   H7        1.0  0.54826  0.81990  0.93509  1.0000
  H   H8        1.0  0.45173  0.18010  0.06491  1.0000
  H   H9        1.0  0.77026  0.98422  0.14541  1.0000
  H   H10       1.0  0.22975  0.01577  0.85459  1.0000
  H   H11       1.0  0.60022  0.05252  0.28683  1.0000
  H   H12       1.0  0.39978  0.94748  0.71317  1.0000
  H   H13       1.0  0.22453  0.85263  0.23672  1.0000
  H   H14       1.0  0.77547  0.14738  0.76328  1.0000
  H   H15       1.0  0.39550  0.77807  0.09973  1.0000
  H   H16       1.0  0.60449  0.22193  0.90027  1.0000
  H   H17       1.0  0.22573  0.30066  0.49262  1.0000
  H   H18       1.0  0.77428  0.69934  0.50738  1.0000
  H   H19       1.0  0.06987  0.21735  0.68341  1.0000
  H   H20       1.0  0.93013  0.78265  0.31659  1.0000
  H   H21       1.0  0.98586  0.96881  0.77507  1.0000
  H   H22       1.0  0.01414  0.03120  0.22493  1.0000
  H   H23       1.0  0.04725  0.79717  0.67875  1.0000
  H   H24       1.0  0.95275  0.20283  0.32126  1.0000
  H   H25       1.0  0.21031  0.72434  0.40187  1.0000
  H   H26       1.0  0.78970  0.27566  0.59813  1.0000
  H   H27       1.0  0.08119  0.71461  0.52246  1.0000
  H   H28       1.0  0.91881  0.28539  0.47755  1.0000
  H   H29       1.0  0.44192  0.80409  0.56014  1.0000
  H   H30       1.0  0.55808  0.19590  0.43986  1.0000
  H   H31       1.0  0.56679  0.40130  0.71058  1.0000
  H   H32       1.0  0.43321  0.59870  0.28943  1.0000
  H   H33       1.0  0.35930  0.29908  0.65889  1.0000
  H   H34       1.0  0.64070  0.70092  0.34111  1.0000
  H   H35       1.0  0.18512  0.46452  0.55214  1.0000
  H   H36       1.0  0.81488  0.53548  0.44786  1.0000
  C   C1        1.0  0.88814  0.69460  0.90781  1.0000
  C   C2        1.0  0.11185  0.30540  0.09219  1.0000
  C   C3        1.0  0.94093  0.71300  0.99322  1.0000
  C   C4        1.0  0.05907  0.28700  0.00678  1.0000
  C   C5        1.0  0.84708  0.77278  0.06096  1.0000
  C   C6        1.0  0.15291  0.22722  0.93904  1.0000
  C   C7        1.0  0.70258  0.81423  0.04165  1.0000
  C   C8        1.0  0.29742  0.18577  0.95835  1.0000
  C   C9        1.0  0.66000  0.79209  0.95332  1.0000
  C   C10       1.0  0.34000  0.20790  0.04668  1.0000
  C   C11       1.0  0.59705  0.87179  0.11463  1.0000
  C   C12       1.0  0.40294  0.12821  0.88537  1.0000
  C   C13       1.0  0.65117  0.95271  0.16643  1.0000
  C   C14       1.0  0.34884  0.04729  0.83356  1.0000
  C   C15       1.0  0.55522  0.99246  0.24593  1.0000
  C   C16       1.0  0.44478  0.00754  0.75407  1.0000
  C   C17       1.0  0.40121  0.95294  0.27514  1.0000
  C   C18       1.0  0.59880  0.04706  0.72486  1.0000
  C   C19       1.0  0.34449  0.88002  0.21845  1.0000
  C   C20       1.0  0.65551  0.11998  0.78155  1.0000
  C   C21       1.0  0.44104  0.84003  0.13923  1.0000
  C   C22       1.0  0.55896  0.15996  0.86077  1.0000
  C   C23       1.0  0.30875  0.98684  0.36634  1.0000
  C   C24       1.0  0.69125  0.01316  0.63366  1.0000
  C   C25       1.0  0.22399  0.09582  0.48064  1.0000
  C   C26       1.0  0.77601  0.90418  0.51936  1.0000
  C   C27       1.0  0.18749  0.19235  0.53410  1.0000
  C   C28       1.0  0.81251  0.80766  0.46590  1.0000
  C   C29       1.0  0.10118  0.14404  0.63995  1.0000
  C   C30       1.0  0.89883  0.85596  0.36005  1.0000
  C   C31       1.0  0.05188  0.00322  0.69174  1.0000
  C   C32       1.0  0.94812  0.99678  0.30826  1.0000
  C   C33       1.0  0.08564  0.90596  0.63912  1.0000
  C   C34       1.0  0.91436  0.09404  0.36088  1.0000
  C   C35       1.0  0.17134  0.95552  0.53283  1.0000
  C   C36       1.0  0.82866  0.04448  0.46717  1.0000
  C   C37       1.0  0.19940  0.74213  0.47960  1.0000
  C   C38       1.0  0.80060  0.25787  0.52040  1.0000
  C   C39       1.0  0.30221  0.64670  0.54604  1.0000
  C   C40       1.0  0.69780  0.35330  0.45396  1.0000
  C   C41       1.0  0.41961  0.69312  0.57934  1.0000
  C   C42       1.0  0.58039  0.30688  0.42066  1.0000
  C   C43       1.0  0.48895  0.46776  0.66388  1.0000
  C   C44       1.0  0.51105  0.53224  0.33612  1.0000
  C   C45       1.0  0.37359  0.41168  0.63490  1.0000
  C   C46       1.0  0.62641  0.58832  0.36510  1.0000
  C   C47       1.0  0.27824  0.50264  0.57603  1.0000
  C   C48       1.0  0.72176  0.49735  0.42397  1.0000
  I   I1        1.0  0.65163  0.37393  0.10423  1.0000
  I   I2        1.0  0.34837  0.62607  0.89578  1.0000
  I   I3        1.0  0.12464  0.51485  0.27532  1.0000
  I   I4        1.0  0.87536  0.48515  0.72467  1.0000
  N   N1        1.0  0.75019  0.73422  0.88803  1.0000
  N   N2        1.0  0.24981  0.26578  0.11197  1.0000
  N   N3        1.0  0.30880  0.11200  0.37731  1.0000
  N   N4        1.0  0.69120  0.88801  0.62269  1.0000
  N   N5        1.0  0.22460  0.88956  0.45796  1.0000
  N   N6        1.0  0.77541  0.11044  0.54204  1.0000
  N   N7        1.0  0.51084  0.60528  0.63743  1.0000
  N   N8        1.0  0.48916  0.39472  0.36257  1.0000
