data_image0
_chemical_formula_structural       Cd2H36C48Br4N8
_chemical_formula_sum              "Cd2 H36 C48 Br4 N8"
_cell_length_a       9.21062
_cell_length_b       9.9875
_cell_length_c       13.6032
_cell_angle_alpha    101.944
_cell_angle_beta     106.643
_cell_angle_gamma    99.935

_space_group_name_H-M_alt    "P 1"
_space_group_IT_number       1

loop_
  _space_group_symop_operation_xyz
  'x, y, z'

loop_
  _atom_site_type_symbol
  _atom_site_label
  _atom_site_symmetry_multiplicity
  _atom_site_fract_x
  _atom_site_fract_y
  _atom_site_fract_z
  _atom_site_occupancy
  Cd  Cd1       1.0  0.64445  0.16156  0.24503  1.0000
  Cd  Cd2       1.0  0.35555  0.83845  0.75497  1.0000
  H   H1        1.0  0.73078  0.90531  0.78061  1.0000
  H   H2        1.0  0.26922  0.09470  0.21940  1.0000
  H   H3        1.0  0.98731  0.87806  0.89817  1.0000
  H   H4        1.0  0.01269  0.12194  0.10184  1.0000
  H   H5        1.0  0.98322  0.75720  0.03910  1.0000
  H   H6        1.0  0.01679  0.24279  0.96091  1.0000
  H   H7        1.0  0.47895  0.67874  0.92524  1.0000
  H   H8        1.0  0.52106  0.32126  0.07476  1.0000
  H   H9        1.0  0.51831  0.72561  0.09545  1.0000
  H   H10       1.0  0.48169  0.27439  0.90454  1.0000
  H   H11       1.0  0.50513  0.64017  0.24962  1.0000
  H   H12       1.0  0.49487  0.35982  0.75038  1.0000
  H   H13       1.0  0.89856  0.46048  0.24553  1.0000
  H   H14       1.0  0.10144  0.53952  0.75447  1.0000
  H   H15       1.0  0.90935  0.54278  0.08813  1.0000
  H   H16       1.0  0.09065  0.45721  0.91187  1.0000
  H   H17       1.0  0.73733  0.18653  0.50229  1.0000
  H   H18       1.0  0.26268  0.81347  0.49772  1.0000
  H   H19       1.0  0.74583  0.26133  0.69209  1.0000
  H   H20       1.0  0.25418  0.73867  0.30791  1.0000
  H   H21       1.0  0.73734  0.50488  0.77276  1.0000
  H   H22       1.0  0.26265  0.49512  0.22724  1.0000
  H   H23       1.0  0.70672  0.67808  0.66542  1.0000
  H   H24       1.0  0.29327  0.32192  0.33458  1.0000
  H   H25       1.0  0.59438  0.76343  0.48344  1.0000
  H   H26       1.0  0.40562  0.23657  0.51656  1.0000
  H   H27       1.0  0.68815  0.77662  0.38928  1.0000
  H   H28       1.0  0.31185  0.22338  0.61072  1.0000
  H   H29       1.0  0.72776  0.01341  0.57433  1.0000
  H   H30       1.0  0.27223  0.98658  0.42567  1.0000
  H   H31       1.0  0.97094  0.18140  0.71383  1.0000
  H   H32       1.0  0.02905  0.81860  0.28616  1.0000
  H   H33       1.0  0.21139  0.09272  0.76930  1.0000
  H   H34       1.0  0.78861  0.90729  0.23069  1.0000
  H   H35       1.0  0.99632  0.70167  0.55316  1.0000
  H   H36       1.0  0.00368  0.29834  0.44684  1.0000
  C   C1        1.0  0.73548  0.84614  0.84014  1.0000
  C   C2        1.0  0.26452  0.15386  0.15986  1.0000
  C   C3        1.0  0.87591  0.83299  0.90600  1.0000
  C   C4        1.0  0.12409  0.16701  0.09401  1.0000
  C   C5        1.0  0.87313  0.76271  0.98413  1.0000
  C   C6        1.0  0.12687  0.23728  0.01587  1.0000
  C   C7        1.0  0.72955  0.70622  0.99443  1.0000
  C   C8        1.0  0.27045  0.29377  0.00557  1.0000
  C   C9        1.0  0.59417  0.72125  0.92202  1.0000
  C   C10       1.0  0.40583  0.27874  0.07798  1.0000
  C   C11       1.0  0.71679  0.64265  0.08114  1.0000
  C   C12       1.0  0.28320  0.35734  0.91886  1.0000
  C   C13       1.0  0.60049  0.66536  0.12648  1.0000
  C   C14       1.0  0.39951  0.33464  0.87352  1.0000
  C   C15       1.0  0.59454  0.61902  0.21497  1.0000
  C   C16       1.0  0.40547  0.38098  0.78503  1.0000
  C   C17       1.0  0.70386  0.54769  0.26044  1.0000
  C   C18       1.0  0.29615  0.45231  0.73956  1.0000
  C   C19       1.0  0.81534  0.51841  0.21247  1.0000
  C   C20       1.0  0.18466  0.48159  0.78752  1.0000
  C   C21       1.0  0.82164  0.56595  0.12413  1.0000
  C   C22       1.0  0.17836  0.43404  0.87587  1.0000
  C   C23       1.0  0.70552  0.50748  0.35805  1.0000
  C   C24       1.0  0.29449  0.49252  0.64196  1.0000
  C   C25       1.0  0.72136  0.39202  0.47926  1.0000
  C   C26       1.0  0.27864  0.60798  0.52074  1.0000
  C   C27       1.0  0.73406  0.29329  0.53874  1.0000
  C   C28       1.0  0.26594  0.70671  0.46127  1.0000
  C   C29       1.0  0.73920  0.33653  0.64418  1.0000
  C   C30       1.0  0.26080  0.66348  0.35582  1.0000
  C   C31       1.0  0.73084  0.47407  0.68961  1.0000
  C   C32       1.0  0.26915  0.52593  0.31039  1.0000
  C   C33       1.0  0.71480  0.57254  0.63068  1.0000
  C   C34       1.0  0.28520  0.42746  0.36932  1.0000
  C   C35       1.0  0.71039  0.52878  0.52542  1.0000
  C   C36       1.0  0.28961  0.47122  0.47458  1.0000
  C   C37       1.0  0.69985  0.74819  0.46441  1.0000
  C   C38       1.0  0.30015  0.25181  0.53559  1.0000
  C   C39       1.0  0.84384  0.84562  0.55085  1.0000
  C   C40       1.0  0.15616  0.15439  0.44915  1.0000
  C   C41       1.0  0.83764  0.98203  0.59785  1.0000
  C   C42       1.0  0.16236  0.01797  0.40215  1.0000
  C   C43       1.0  0.97083  0.07397  0.67611  1.0000
  C   C44       1.0  0.02917  0.92603  0.32389  1.0000
  C   C45       1.0  0.10534  0.02572  0.70696  1.0000
  C   C46       1.0  0.89466  0.97429  0.29304  1.0000
  C   C47       1.0  0.98470  0.80706  0.58605  1.0000
  C   C48       1.0  0.01530  0.19295  0.41395  1.0000
  Br  Br1       1.0  0.72461  0.13953  0.07405  1.0000
  Br  Br2       1.0  0.27539  0.86048  0.92595  1.0000
  Br  Br3       1.0  0.49907  0.97016  0.31704  1.0000
  Br  Br4       1.0  0.50090  0.02984  0.68295  1.0000
  N   N1        1.0  0.59673  0.78918  0.84727  1.0000
  N   N2        1.0  0.40327  0.21082  0.15273  1.0000
  N   N3        1.0  0.71744  0.38181  0.37488  1.0000
  N   N4        1.0  0.28257  0.61819  0.62512  1.0000
  N   N5        1.0  0.70017  0.59948  0.44707  1.0000
  N   N6        1.0  0.29984  0.40052  0.55293  1.0000
  N   N7        1.0  0.11195  0.89449  0.66295  1.0000
  N   N8        1.0  0.88804  0.10552  0.33705  1.0000
