data_image0
_chemical_formula_structural       Ba2H42C50N2O20
_chemical_formula_sum              "Ba2 H42 C50 N2 O20"
_cell_length_a       7.9227
_cell_length_b       12.6202
_cell_length_c       14.0827
_cell_angle_alpha    115.683
_cell_angle_beta     94.3595
_cell_angle_gamma    104.675

_space_group_name_H-M_alt    "P 1"
_space_group_IT_number       1

loop_
  _space_group_symop_operation_xyz
  'x, y, z'

loop_
  _atom_site_type_symbol
  _atom_site_label
  _atom_site_symmetry_multiplicity
  _atom_site_fract_x
  _atom_site_fract_y
  _atom_site_fract_z
  _atom_site_occupancy
  Ba  Ba1       1.0  0.53955  0.66408  0.17745  1.0000
  Ba  Ba2       1.0  0.46045  0.33592  0.82255  1.0000
  H   H1        1.0  0.71555  0.88728  0.10782  1.0000
  H   H2        1.0  0.28445  0.11272  0.89218  1.0000
  H   H3        1.0  0.48502  0.53918  0.72245  1.0000
  H   H4        1.0  0.51498  0.46082  0.27754  1.0000
  H   H5        1.0  0.22571  0.75854  0.17010  1.0000
  H   H6        1.0  0.77429  0.24146  0.82990  1.0000
  H   H7        1.0  0.10386  0.68743  0.22328  1.0000
  H   H8        1.0  0.89614  0.31257  0.77672  1.0000
  H   H9        1.0  0.46055  0.28491  0.12652  1.0000
  H   H10       1.0  0.53945  0.71509  0.87349  1.0000
  H   H11       1.0  0.62197  0.14056  0.12001  1.0000
  H   H12       1.0  0.37803  0.85944  0.87999  1.0000
  H   H13       1.0  0.03589  0.47652  0.07774  1.0000
  H   H14       1.0  0.96412  0.52348  0.92226  1.0000
  H   H15       1.0  0.60540  0.21989  0.46266  1.0000
  H   H16       1.0  0.39459  0.78011  0.53734  1.0000
  H   H17       1.0  0.90170  0.58141  0.41001  1.0000
  H   H18       1.0  0.09831  0.41858  0.58998  1.0000
  H   H19       1.0  0.00614  0.22388  0.26545  1.0000
  H   H20       1.0  0.99385  0.77612  0.73455  1.0000
  H   H21       1.0  0.75420  0.61061  0.56480  1.0000
  H   H22       1.0  0.24580  0.38940  0.43520  1.0000
  H   H23       1.0  0.73849  0.18757  0.30227  1.0000
  H   H24       1.0  0.26150  0.81243  0.69773  1.0000
  H   H25       1.0  0.13582  0.88223  0.10930  1.0000
  H   H26       1.0  0.86417  0.11776  0.89070  1.0000
  H   H27       1.0  0.97499  0.02873  0.11971  1.0000
  H   H28       1.0  0.02501  0.97127  0.88029  1.0000
  H   H29       1.0  0.98878  0.85872  0.28456  1.0000
  H   H30       1.0  0.01123  0.14129  0.71544  1.0000
  H   H31       1.0  0.00074  0.20913  0.43372  1.0000
  H   H32       1.0  0.99927  0.79087  0.56628  1.0000
  H   H33       1.0  0.08080  0.19418  0.54768  1.0000
  H   H34       1.0  0.91920  0.80582  0.45233  1.0000
  H   H35       1.0  0.85446  0.10973  0.47288  1.0000
  H   H36       1.0  0.14554  0.89027  0.52712  1.0000
  H   H37       1.0  0.25948  0.97424  0.34799  1.0000
  H   H38       1.0  0.74053  0.02576  0.65201  1.0000
  H   H39       1.0  0.31283  0.10205  0.48135  1.0000
  H   H40       1.0  0.68717  0.89795  0.51865  1.0000
  H   H41       1.0  0.28491  0.12737  0.36639  1.0000
  H   H42       1.0  0.71509  0.87263  0.63361  1.0000
  C   C1        1.0  0.22545  0.32713  0.00436  1.0000
  C   C2        1.0  0.77455  0.67287  0.99564  1.0000
  C   C3        1.0  0.12002  0.33321  0.09016  1.0000
  C   C4        1.0  0.87997  0.66679  0.90984  1.0000
  C   C5        1.0  0.48765  0.91524  0.11294  1.0000
  C   C6        1.0  0.51235  0.08476  0.88706  1.0000
  C   C7        1.0  0.66928  0.41660  0.52259  1.0000
  C   C8        1.0  0.33072  0.58341  0.47741  1.0000
  C   C9        1.0  0.81238  0.51953  0.20991  1.0000
  C   C10       1.0  0.18761  0.48047  0.79009  1.0000
  C   C11       1.0  0.10697  0.25763  0.14118  1.0000
  C   C12       1.0  0.89303  0.74237  0.85882  1.0000
  C   C13       1.0  0.38775  0.19740  0.12342  1.0000
  C   C14       1.0  0.61225  0.80260  0.87658  1.0000
  C   C15       1.0  0.57630  0.42900  0.61229  1.0000
  C   C16       1.0  0.42370  0.57100  0.38771  1.0000
  C   C17       1.0  0.48024  0.11654  0.12081  1.0000
  C   C18       1.0  0.51976  0.88346  0.87919  1.0000
  C   C19       1.0  0.02780  0.41999  0.11886  1.0000
  C   C20       1.0  0.97221  0.58001  0.88114  1.0000
  C   C21       1.0  0.66850  0.29802  0.44910  1.0000
  C   C22       1.0  0.33150  0.70198  0.55090  1.0000
  C   C23       1.0  0.82671  0.38213  0.34320  1.0000
  C   C24       1.0  0.17329  0.61787  0.65680  1.0000
  C   C25       1.0  0.83195  0.50128  0.41927  1.0000
  C   C26       1.0  0.16806  0.49872  0.58073  1.0000
  C   C27       1.0  0.00538  0.27594  0.22077  1.0000
  C   C28       1.0  0.99461  0.72406  0.77923  1.0000
  C   C29       1.0  0.39209  0.00319  0.11752  1.0000
  C   C30       1.0  0.60791  0.99681  0.88248  1.0000
  C   C31       1.0  0.91437  0.36322  0.25095  1.0000
  C   C32       1.0  0.08563  0.63677  0.74905  1.0000
  C   C33       1.0  0.92238  0.43454  0.19589  1.0000
  C   C34       1.0  0.07762  0.56546  0.80411  1.0000
  C   C35       1.0  0.75256  0.51839  0.50716  1.0000
  C   C36       1.0  0.24744  0.48161  0.49284  1.0000
  C   C37       1.0  0.74465  0.28089  0.36022  1.0000
  C   C38       1.0  0.25534  0.71911  0.63978  1.0000
  C   C39       1.0  0.20541  0.16818  0.12544  1.0000
  C   C40       1.0  0.79459  0.83182  0.87456  1.0000
  C   C41       1.0  0.20841  0.97152  0.11565  1.0000
  C   C42       1.0  0.79158  0.02848  0.88435  1.0000
  C   C43       1.0  0.11730  0.05377  0.12105  1.0000
  C   C44       1.0  0.88270  0.94622  0.87895  1.0000
  C   C45       1.0  0.92762  0.92798  0.33367  1.0000
  C   C46       1.0  0.07238  0.07203  0.66633  1.0000
  C   C47       1.0  0.99281  0.14426  0.46726  1.0000
  C   C48       1.0  0.00719  0.85574  0.53274  1.0000
  C   C49       1.0  0.23720  0.06227  0.39844  1.0000
  C   C50       1.0  0.76280  0.93774  0.60156  1.0000
  N   N1        1.0  0.04757  0.04003  0.39807  1.0000
  N   N2        1.0  0.95243  0.95997  0.60193  1.0000
  O   O1        1.0  0.32449  0.42972  0.01472  1.0000
  O   O2        1.0  0.67551  0.57027  0.98528  1.0000
  O   O3        1.0  0.20551  0.22252  0.92321  1.0000
  O   O4        1.0  0.79449  0.77748  0.07679  1.0000
  O   O5        1.0  0.64422  0.47531  0.20025  1.0000
  O   O6        1.0  0.35578  0.52469  0.79974  1.0000
  O   O7        1.0  0.66402  0.95866  0.12636  1.0000
  O   O8        1.0  0.33598  0.04134  0.87365  1.0000
  O   O9        1.0  0.88695  0.62876  0.22448  1.0000
  O   O10       1.0  0.11305  0.37124  0.77552  1.0000
  O   O11       1.0  0.40962  0.80813  0.09709  1.0000
  O   O12       1.0  0.59038  0.19187  0.90291  1.0000
  O   O13       1.0  0.56957  0.54267  0.67227  1.0000
  O   O14       1.0  0.43043  0.45733  0.32773  1.0000
  O   O15       1.0  0.50730  0.33984  0.62842  1.0000
  O   O16       1.0  0.49271  0.66016  0.37158  1.0000
  O   O17       1.0  0.22981  0.72837  0.22331  1.0000
  O   O18       1.0  0.77019  0.27163  0.77669  1.0000
  O   O19       1.0  0.76264  0.90065  0.32835  1.0000
  O   O20       1.0  0.23736  0.09935  0.67165  1.0000
