data_image0
_chemical_formula_structural       Cd2H30C38Br2N4O8
_chemical_formula_sum              "Cd2 H30 C38 Br2 N4 O8"
_cell_length_a       8.39835
_cell_length_b       11.4997
_cell_length_c       11.5293
_cell_angle_alpha    100.334
_cell_angle_beta     104.484
_cell_angle_gamma    99.8697

_space_group_name_H-M_alt    "P 1"
_space_group_IT_number       1

loop_
  _space_group_symop_operation_xyz
  'x, y, z'

loop_
  _atom_site_type_symbol
  _atom_site_label
  _atom_site_symmetry_multiplicity
  _atom_site_fract_x
  _atom_site_fract_y
  _atom_site_fract_z
  _atom_site_occupancy
  Cd  Cd1       1.0  0.38426  0.18940  0.20983  1.0000
  Cd  Cd2       1.0  0.61575  0.81060  0.79017  1.0000
  H   H1        1.0  0.14193  0.02114  0.96062  1.0000
  H   H2        1.0  0.85808  0.97887  0.03939  1.0000
  H   H3        1.0  0.04010  0.80534  0.84789  1.0000
  H   H4        1.0  0.95988  0.19466  0.15213  1.0000
  H   H5        1.0  0.82846  0.39794  0.74461  1.0000
  H   H6        1.0  0.17153  0.60206  0.25538  1.0000
  H   H7        1.0  0.43580  0.59000  0.91034  1.0000
  H   H8        1.0  0.56418  0.41002  0.08966  1.0000
  H   H9        1.0  0.02557  0.19684  0.75753  1.0000
  H   H10       1.0  0.97445  0.80317  0.24249  1.0000
  H   H11       1.0  0.10041  0.23509  0.63347  1.0000
  H   H12       1.0  0.89962  0.76492  0.36654  1.0000
  H   H13       1.0  0.88890  0.23902  0.63247  1.0000
  H   H14       1.0  0.11112  0.76097  0.36754  1.0000
  H   H15       1.0  0.91503  0.61163  0.87107  1.0000
  H   H16       1.0  0.08495  0.38836  0.12892  1.0000
  H   H17       1.0  0.53487  0.94838  0.21412  1.0000
  H   H18       1.0  0.46514  0.05162  0.78588  1.0000
  H   H19       1.0  0.45804  0.72830  0.10714  1.0000
  H   H20       1.0  0.54195  0.27169  0.89286  1.0000
  H   H21       1.0  0.32634  0.37810  0.78068  1.0000
  H   H22       1.0  0.67366  0.62193  0.21931  1.0000
  H   H23       1.0  0.72750  0.55608  0.50409  1.0000
  H   H24       1.0  0.27252  0.44392  0.49592  1.0000
  H   H25       1.0  0.99918  0.30134  0.37120  1.0000
  H   H26       1.0  0.00084  0.69866  0.62881  1.0000
  H   H27       1.0  0.12191  0.90662  0.67064  1.0000
  H   H28       1.0  0.87808  0.09338  0.32934  1.0000
  H   H29       1.0  0.30385  0.99231  0.55006  1.0000
  H   H30       1.0  0.69614  0.00769  0.44992  1.0000
  C   C1        1.0  0.20547  0.95223  0.99153  1.0000
  C   C2        1.0  0.79453  0.04778  0.00848  1.0000
  C   C3        1.0  0.14904  0.83109  0.92937  1.0000
  C   C4        1.0  0.85094  0.16892  0.07064  1.0000
  C   C5        1.0  0.96040  0.44524  0.78430  1.0000
  C   C6        1.0  0.03958  0.55474  0.21568  1.0000
  C   C7        1.0  0.30005  0.55055  0.87784  1.0000
  C   C8        1.0  0.69994  0.44947  0.12217  1.0000
  C   C9        1.0  0.18381  0.61881  0.90173  1.0000
  C   C10       1.0  0.81616  0.38119  0.09827  1.0000
  C   C11       1.0  0.01840  0.25478  0.69120  1.0000
  C   C12       1.0  0.98162  0.74523  0.30881  1.0000
  C   C13       1.0  0.01087  0.56324  0.85340  1.0000
  C   C14       1.0  0.98911  0.43677  0.14660  1.0000
  C   C15       1.0  0.23894  0.74700  0.97012  1.0000
  C   C16       1.0  0.76104  0.25300  0.02989  1.0000
  C   C17       1.0  0.42690  0.91206  0.13214  1.0000
  C   C18       1.0  0.57310  0.08794  0.86786  1.0000
  C   C19       1.0  0.38176  0.78939  0.07315  1.0000
  C   C20       1.0  0.61822  0.21060  0.92685  1.0000
  C   C21       1.0  0.24234  0.43344  0.80605  1.0000
  C   C22       1.0  0.75766  0.56656  0.19394  1.0000
  C   C23       1.0  0.84642  0.42034  0.42996  1.0000
  C   C24       1.0  0.15359  0.57966  0.57005  1.0000
  C   C25       1.0  0.84755  0.53264  0.50251  1.0000
  C   C26       1.0  0.15246  0.46736  0.49750  1.0000
  C   C27       1.0  0.99983  0.38811  0.42805  1.0000
  C   C28       1.0  0.00019  0.61189  0.57196  1.0000
  C   C29       1.0  0.68188  0.33769  0.35149  1.0000
  C   C30       1.0  0.31814  0.66230  0.64852  1.0000
  C   C31       1.0  0.06919  0.94848  0.59661  1.0000
  C   C32       1.0  0.93080  0.05152  0.40337  1.0000
  C   C33       1.0  0.10244  0.04794  0.43283  1.0000
  C   C34       1.0  0.89756  0.95206  0.56715  1.0000
  C   C35       1.0  0.17091  0.99607  0.52984  1.0000
  C   C36       1.0  0.82907  0.00393  0.47014  1.0000
  C   C37       1.0  0.21310  0.09720  0.36053  1.0000
  C   C38       1.0  0.78690  0.90280  0.63945  1.0000
  Br  Br1       1.0  0.25768  0.27692  0.01385  1.0000
  Br  Br2       1.0  0.74232  0.72308  0.98615  1.0000
  N   N1        1.0  0.34065  0.99221  0.09170  1.0000
  N   N2        1.0  0.65935  0.00779  0.90830  1.0000
  N   N3        1.0  0.07511  0.38222  0.76017  1.0000
  N   N4        1.0  0.92489  0.61779  0.23984  1.0000
  O   O1        1.0  0.68383  0.23501  0.28756  1.0000
  O   O2        1.0  0.31618  0.76499  0.71244  1.0000
  O   O3        1.0  0.54604  0.37423  0.34857  1.0000
  O   O4        1.0  0.45398  0.62576  0.65144  1.0000
  O   O5        1.0  0.35802  0.07483  0.37435  1.0000
  O   O6        1.0  0.64198  0.92517  0.62565  1.0000
  O   O7        1.0  0.15306  0.16034  0.28540  1.0000
  O   O8        1.0  0.84693  0.83965  0.71458  1.0000
