data_image0
_chemical_formula_structural       Ca4V4H32C8N4O36
_chemical_formula_sum              "Ca4 V4 H32 C8 N4 O36"
_cell_length_a       8.57348
_cell_length_b       8.95193
_cell_length_c       12.5694
_cell_angle_alpha    106.918
_cell_angle_beta     90
_cell_angle_gamma    89.9998

_space_group_name_H-M_alt    "P 1"
_space_group_IT_number       1

loop_
  _space_group_symop_operation_xyz
  'x, y, z'

loop_
  _atom_site_type_symbol
  _atom_site_label
  _atom_site_symmetry_multiplicity
  _atom_site_fract_x
  _atom_site_fract_y
  _atom_site_fract_z
  _atom_site_occupancy
  Ca  Ca1       1.0  0.71177  0.41190  0.71477  1.0000
  Ca  Ca2       1.0  0.21177  0.58810  0.78523  1.0000
  Ca  Ca3       1.0  0.28823  0.58811  0.28523  1.0000
  Ca  Ca4       1.0  0.78823  0.41189  0.21477  1.0000
  V   V1        1.0  0.52888  0.73879  0.90581  1.0000
  V   V2        1.0  0.02888  0.26121  0.59420  1.0000
  V   V3        1.0  0.47112  0.26121  0.09420  1.0000
  V   V4        1.0  0.97112  0.73879  0.40580  1.0000
  H   H1        1.0  0.81310  0.01523  0.95408  1.0000
  H   H2        1.0  0.31310  0.98478  0.54592  1.0000
  H   H3        1.0  0.18690  0.98477  0.04593  1.0000
  H   H4        1.0  0.68690  0.01523  0.45408  1.0000
  H   H5        1.0  0.84619  0.99500  0.81143  1.0000
  H   H6        1.0  0.34620  0.00500  0.68856  1.0000
  H   H7        1.0  0.15381  0.00500  0.18857  1.0000
  H   H8        1.0  0.65380  0.99500  0.31144  1.0000
  H   H9        1.0  0.56177  0.02453  0.89317  1.0000
  H   H10       1.0  0.06178  0.97546  0.60682  1.0000
  H   H11       1.0  0.43823  0.97546  0.10682  1.0000
  H   H12       1.0  0.93823  0.02454  0.39318  1.0000
  H   H13       1.0  0.59550  0.90253  0.76903  1.0000
  H   H14       1.0  0.09551  0.09747  0.73097  1.0000
  H   H15       1.0  0.40449  0.09747  0.23097  1.0000
  H   H16       1.0  0.90449  0.90253  0.26903  1.0000
  H   H17       1.0  0.58744  0.57303  0.56121  1.0000
  H   H18       1.0  0.08744  0.42697  0.93878  1.0000
  H   H19       1.0  0.41256  0.42697  0.43879  1.0000
  H   H20       1.0  0.91257  0.57303  0.06122  1.0000
  H   H21       1.0  0.76933  0.58001  0.54105  1.0000
  H   H22       1.0  0.26933  0.42000  0.95894  1.0000
  H   H23       1.0  0.23066  0.42000  0.45895  1.0000
  H   H24       1.0  0.73067  0.58000  0.04106  1.0000
  H   H25       1.0  0.77218  0.35074  0.92270  1.0000
  H   H26       1.0  0.27218  0.64926  0.57730  1.0000
  H   H27       1.0  0.22782  0.64926  0.07730  1.0000
  H   H28       1.0  0.72781  0.35074  0.42270  1.0000
  H   H29       1.0  0.60409  0.29331  0.88860  1.0000
  H   H30       1.0  0.10409  0.70670  0.61141  1.0000
  H   H31       1.0  0.39591  0.70669  0.11140  1.0000
  H   H32       1.0  0.89590  0.29330  0.38860  1.0000
  C   C1        1.0  0.86588  0.78118  0.85705  1.0000
  C   C2        1.0  0.36586  0.21882  0.64295  1.0000
  C   C3        1.0  0.13411  0.21881  0.14295  1.0000
  C   C4        1.0  0.63411  0.78118  0.35706  1.0000
  C   C5        1.0  0.79143  0.93982  0.86936  1.0000
  C   C6        1.0  0.29144  0.06017  0.63064  1.0000
  C   C7        1.0  0.20857  0.06017  0.13064  1.0000
  C   C8        1.0  0.70857  0.93983  0.36936  1.0000
  N   N1        1.0  0.62131  0.92430  0.85155  1.0000
  N   N2        1.0  0.12132  0.07571  0.64844  1.0000
  N   N3        1.0  0.37869  0.07571  0.14844  1.0000
  N   N4        1.0  0.87868  0.92430  0.35156  1.0000
  O   O1        1.0  0.35075  0.80659  0.92353  1.0000
  O   O2        1.0  0.85075  0.19340  0.57647  1.0000
  O   O3        1.0  0.64925  0.19340  0.07647  1.0000
  O   O4        1.0  0.14925  0.80660  0.42353  1.0000
  O   O5        1.0  0.49440  0.61862  0.74845  1.0000
  O   O6        1.0  0.99440  0.38138  0.75156  1.0000
  O   O7        1.0  0.50560  0.38139  0.25156  1.0000
  O   O8        1.0  0.00560  0.61862  0.24845  1.0000
  O   O9        1.0  0.48278  0.52681  0.82814  1.0000
  O   O10       1.0  0.98278  0.47319  0.67186  1.0000
  O   O11       1.0  0.51722  0.47319  0.17187  1.0000
  O   O12       1.0  0.01722  0.52681  0.32814  1.0000
  O   O13       1.0  0.57275  0.68387  0.03837  1.0000
  O   O14       1.0  0.07275  0.31613  0.46163  1.0000
  O   O15       1.0  0.42725  0.31613  0.96163  1.0000
  O   O16       1.0  0.92725  0.68387  0.53837  1.0000
  O   O17       1.0  0.62373  0.84156  0.04460  1.0000
  O   O18       1.0  0.12373  0.15843  0.45539  1.0000
  O   O19       1.0  0.37627  0.15843  0.95539  1.0000
  O   O20       1.0  0.87627  0.84157  0.54461  1.0000
  O   O21       1.0  0.77061  0.66709  0.85032  1.0000
  O   O22       1.0  0.27061  0.33289  0.64968  1.0000
  O   O23       1.0  0.22939  0.33290  0.14967  1.0000
  O   O24       1.0  0.72939  0.66710  0.35033  1.0000
  O   O25       1.0  0.01144  0.77122  0.85561  1.0000
  O   O26       1.0  0.51146  0.22879  0.64439  1.0000
  O   O27       1.0  0.98856  0.22878  0.14439  1.0000
  O   O28       1.0  0.48856  0.77122  0.35562  1.0000
  O   O29       1.0  0.68131  0.50915  0.54939  1.0000
  O   O30       1.0  0.18131  0.49085  0.95061  1.0000
  O   O31       1.0  0.31869  0.49085  0.45061  1.0000
  O   O32       1.0  0.81869  0.50915  0.04939  1.0000
  O   O33       1.0  0.71168  0.28859  0.85821  1.0000
  O   O34       1.0  0.21168  0.71141  0.64179  1.0000
  O   O35       1.0  0.28832  0.71141  0.14179  1.0000
  O   O36       1.0  0.78831  0.28860  0.35821  1.0000
