data_image0
_chemical_formula_structural       Pr4H16C8S4O30
_chemical_formula_sum              "Pr4 H16 C8 S4 O30"
_cell_length_a       6.65253
_cell_length_b       8.48835
_cell_length_c       13.0838
_cell_angle_alpha    86.8869
_cell_angle_beta     89.516
_cell_angle_gamma    68.8518

_space_group_name_H-M_alt    "P 1"
_space_group_IT_number       1

loop_
  _space_group_symop_operation_xyz
  'x, y, z'

loop_
  _atom_site_type_symbol
  _atom_site_label
  _atom_site_symmetry_multiplicity
  _atom_site_fract_x
  _atom_site_fract_y
  _atom_site_fract_z
  _atom_site_occupancy
  Pr  Pr1       1.0  0.39506  0.47328  0.66236  1.0000
  Pr  Pr2       1.0  0.60494  0.52672  0.33764  1.0000
  Pr  Pr3       1.0  0.25375  0.25347  0.00408  1.0000
  Pr  Pr4       1.0  0.74625  0.74653  0.99592  1.0000
  H   H1        1.0  0.64870  0.02248  0.51986  1.0000
  H   H2        1.0  0.35130  0.97753  0.48014  1.0000
  H   H3        1.0  0.90303  0.99626  0.57594  1.0000
  H   H4        1.0  0.09697  0.00374  0.42406  1.0000
  H   H5        1.0  0.80631  0.94559  0.74866  1.0000
  H   H6        1.0  0.19369  0.05441  0.25134  1.0000
  H   H7        1.0  0.56038  0.94315  0.69769  1.0000
  H   H8        1.0  0.43962  0.05685  0.30231  1.0000
  H   H9        1.0  0.26376  0.32345  0.46764  1.0000
  H   H10       1.0  0.73624  0.67655  0.53236  1.0000
  H   H11       1.0  0.08706  0.34847  0.55430  1.0000
  H   H12       1.0  0.91294  0.65153  0.44570  1.0000
  H   H13       1.0  0.93472  0.24321  0.83196  1.0000
  H   H14       1.0  0.06528  0.75679  0.16804  1.0000
  H   H15       1.0  0.03495  0.05323  0.88424  1.0000
  H   H16       1.0  0.96504  0.94677  0.11576  1.0000
  C   C1        1.0  0.74999  0.23242  0.48977  1.0000
  C   C2        1.0  0.25001  0.76758  0.51023  1.0000
  C   C3        1.0  0.73934  0.08816  0.55902  1.0000
  C   C4        1.0  0.26067  0.91184  0.44098  1.0000
  C   C5        1.0  0.64013  0.02613  0.72643  1.0000
  C   C6        1.0  0.35987  0.97387  0.27357  1.0000
  C   C7        1.0  0.51969  0.10909  0.81834  1.0000
  C   C8        1.0  0.48031  0.89091  0.18166  1.0000
  S   S1        1.0  0.79914  0.55813  0.73269  1.0000
  S   S2        1.0  0.20086  0.44187  0.26731  1.0000
  S   S3        1.0  0.77460  0.30522  0.08448  1.0000
  S   S4        1.0  0.22540  0.69478  0.91552  1.0000
  O   O1        1.0  0.68000  0.38128  0.52479  1.0000
  O   O2        1.0  0.32000  0.61872  0.47521  1.0000
  O   O3        1.0  0.82018  0.20827  0.40014  1.0000
  O   O4        1.0  0.17982  0.79173  0.59986  1.0000
  O   O5        1.0  0.63736  0.15479  0.65168  1.0000
  O   O6        1.0  0.36265  0.84521  0.34832  1.0000
  O   O7        1.0  0.40712  0.26631  0.81370  1.0000
  O   O8        1.0  0.59288  0.73369  0.18630  1.0000
  O   O9        1.0  0.52958  0.01807  0.90053  1.0000
  O   O10       1.0  0.47042  0.98193  0.09947  1.0000
  O   O11       1.0  0.74577  0.40517  0.76256  1.0000
  O   O12       1.0  0.25423  0.59483  0.23744  1.0000
  O   O13       1.0  0.63453  0.65721  0.65300  1.0000
  O   O14       1.0  0.36547  0.34279  0.34700  1.0000
  O   O15       1.0  0.01649  0.50664  0.68809  1.0000
  O   O16       1.0  0.98351  0.49337  0.31191  1.0000
  O   O17       1.0  0.78490  0.66072  0.82146  1.0000
  O   O18       1.0  0.21509  0.33928  0.17854  1.0000
  O   O19       1.0  0.24187  0.30596  0.54212  1.0000
  O   O20       1.0  0.75813  0.69404  0.45788  1.0000
  O   O21       1.0  0.84778  0.43695  0.02918  1.0000
  O   O22       1.0  0.15222  0.56305  0.97082  1.0000
  O   O23       1.0  0.97400  0.14841  0.09027  1.0000
  O   O24       1.0  0.02601  0.85159  0.90973  1.0000
  O   O25       1.0  0.60607  0.27891  0.02322  1.0000
  O   O26       1.0  0.39393  0.72110  0.97677  1.0000
  O   O27       1.0  0.69838  0.35716  0.18683  1.0000
  O   O28       1.0  0.30162  0.64284  0.81317  1.0000
  O   O29       1.0  0.05862  0.16133  0.87173  1.0000
  O   O30       1.0  0.94138  0.83867  0.12827  1.0000
