data_image0
_chemical_formula_structural       Cd4H32C48S8N16O16
_chemical_formula_sum              "Cd4 H32 C48 S8 N16 O16"
_cell_length_a       6.75925
_cell_length_b       13.7465
_cell_length_c       15.438
_cell_angle_alpha    90.6166
_cell_angle_beta     90
_cell_angle_gamma    90

_space_group_name_H-M_alt    "P 1"
_space_group_IT_number       1

loop_
  _space_group_symop_operation_xyz
  'x, y, z'

loop_
  _atom_site_type_symbol
  _atom_site_label
  _atom_site_symmetry_multiplicity
  _atom_site_fract_x
  _atom_site_fract_y
  _atom_site_fract_z
  _atom_site_occupancy
  Cd  Cd1       1.0  0.31943  0.39191  0.00776  1.0000
  Cd  Cd2       1.0  0.81943  0.10809  0.99224  1.0000
  Cd  Cd3       1.0  0.68057  0.60809  0.99224  1.0000
  Cd  Cd4       1.0  0.18057  0.89191  0.00776  1.0000
  H   H1        1.0  0.16847  0.50090  0.17769  1.0000
  H   H2        1.0  0.66846  0.99910  0.82231  1.0000
  H   H3        1.0  0.83153  0.49910  0.82231  1.0000
  H   H4        1.0  0.33154  0.00090  0.17769  1.0000
  H   H5        1.0  0.53640  0.26488  0.86678  1.0000
  H   H6        1.0  0.03640  0.23512  0.13322  1.0000
  H   H7        1.0  0.46360  0.73512  0.13322  1.0000
  H   H8        1.0  0.96360  0.76488  0.86678  1.0000
  H   H9        1.0  0.17256  0.50508  0.83967  1.0000
  H   H10       1.0  0.67256  0.99492  0.16034  1.0000
  H   H11       1.0  0.82744  0.49492  0.16034  1.0000
  H   H12       1.0  0.32744  0.00508  0.83966  1.0000
  H   H13       1.0  0.20352  0.49991  0.67774  1.0000
  H   H14       1.0  0.70352  0.00009  0.32226  1.0000
  H   H15       1.0  0.79647  0.50009  0.32226  1.0000
  H   H16       1.0  0.29648  0.99991  0.67774  1.0000
  H   H17       1.0  0.60927  0.25816  0.30788  1.0000
  H   H18       1.0  0.10927  0.24184  0.69212  1.0000
  H   H19       1.0  0.39073  0.74185  0.69212  1.0000
  H   H20       1.0  0.89073  0.75815  0.30788  1.0000
  H   H21       1.0  0.59024  0.25153  0.70625  1.0000
  H   H22       1.0  0.09024  0.24847  0.29375  1.0000
  H   H23       1.0  0.40976  0.74847  0.29375  1.0000
  H   H24       1.0  0.90976  0.75153  0.70625  1.0000
  H   H25       1.0  0.56980  0.27539  0.14697  1.0000
  H   H26       1.0  0.06980  0.22461  0.85303  1.0000
  H   H27       1.0  0.43020  0.72461  0.85303  1.0000
  H   H28       1.0  0.93020  0.77539  0.14697  1.0000
  H   H29       1.0  0.19049  0.49363  0.33949  1.0000
  H   H30       1.0  0.69049  0.00637  0.66051  1.0000
  H   H31       1.0  0.80950  0.50637  0.66051  1.0000
  H   H32       1.0  0.30951  0.99363  0.33949  1.0000
  C   C1        1.0  0.26110  0.44699  0.20975  1.0000
  C   C2        1.0  0.76111  0.05301  0.79025  1.0000
  C   C3        1.0  0.73889  0.55301  0.79025  1.0000
  C   C4        1.0  0.23890  0.94699  0.20975  1.0000
  C   C5        1.0  0.40173  0.37382  0.33692  1.0000
  C   C6        1.0  0.90173  0.12618  0.66308  1.0000
  C   C7        1.0  0.59827  0.62618  0.66308  1.0000
  C   C8        1.0  0.09827  0.87382  0.33692  1.0000
  C   C9        1.0  0.46819  0.31613  0.82239  1.0000
  C   C10       1.0  0.96820  0.18387  0.17761  1.0000
  C   C11       1.0  0.53180  0.68387  0.17761  1.0000
  C   C12       1.0  0.03180  0.81613  0.82239  1.0000
  C   C13       1.0  0.26169  0.44976  0.80676  1.0000
  C   C14       1.0  0.76169  0.05024  0.19324  1.0000
  C   C15       1.0  0.73830  0.55024  0.19324  1.0000
  C   C16       1.0  0.23831  0.94976  0.80676  1.0000
  C   C17       1.0  0.39995  0.37423  0.67892  1.0000
  C   C18       1.0  0.89995  0.12577  0.32108  1.0000
  C   C19       1.0  0.60005  0.62577  0.32108  1.0000
  C   C20       1.0  0.10005  0.87423  0.67892  1.0000
  C   C21       1.0  0.27911  0.44585  0.71699  1.0000
  C   C22       1.0  0.77911  0.05415  0.28301  1.0000
  C   C23       1.0  0.72089  0.55415  0.28301  1.0000
  C   C24       1.0  0.22089  0.94585  0.71699  1.0000
  C   C25       1.0  0.50993  0.31236  0.28136  1.0000
  C   C26       1.0  0.00993  0.18764  0.71864  1.0000
  C   C27       1.0  0.49007  0.68764  0.71864  1.0000
  C   C28       1.0  0.99008  0.81236  0.28136  1.0000
  C   C29       1.0  0.43024  0.36559  0.43034  1.0000
  C   C30       1.0  0.93024  0.13441  0.56966  1.0000
  C   C31       1.0  0.56975  0.63441  0.56966  1.0000
  C   C32       1.0  0.06976  0.86559  0.43034  1.0000
  C   C33       1.0  0.49605  0.30824  0.73344  1.0000
  C   C34       1.0  0.99605  0.19176  0.26656  1.0000
  C   C35       1.0  0.50395  0.69176  0.26656  1.0000
  C   C36       1.0  0.00395  0.80824  0.73344  1.0000
  C   C37       1.0  0.48902  0.32179  0.19236  1.0000
  C   C38       1.0  0.98902  0.17822  0.80764  1.0000
  C   C39       1.0  0.51098  0.67822  0.80764  1.0000
  C   C40       1.0  0.01098  0.82178  0.19236  1.0000
  C   C41       1.0  0.43054  0.36625  0.58544  1.0000
  C   C42       1.0  0.93054  0.13375  0.41456  1.0000
  C   C43       1.0  0.56946  0.63375  0.41456  1.0000
  C   C44       1.0  0.06946  0.86625  0.58544  1.0000
  C   C45       1.0  0.27435  0.44224  0.29960  1.0000
  C   C46       1.0  0.77435  0.05776  0.70040  1.0000
  C   C47       1.0  0.72565  0.55776  0.70040  1.0000
  C   C48       1.0  0.22565  0.94224  0.29960  1.0000
  S   S1        1.0  0.33354  0.13187  0.00954  1.0000
  S   S2        1.0  0.83354  0.36813  0.99046  1.0000
  S   S3        1.0  0.66646  0.86813  0.99046  1.0000
  S   S4        1.0  0.16646  0.63187  0.00954  1.0000
  S   S5        1.0  0.27654  0.41678  0.50823  1.0000
  S   S6        1.0  0.77654  0.08322  0.49177  1.0000
  S   S7        1.0  0.72346  0.58322  0.49177  1.0000
  S   S8        1.0  0.22346  0.91678  0.50823  1.0000
  N   N1        1.0  0.36660  0.38775  0.15732  1.0000
  N   N2        1.0  0.86660  0.11225  0.84268  1.0000
  N   N3        1.0  0.63340  0.61225  0.84268  1.0000
  N   N4        1.0  0.13340  0.88775  0.15733  1.0000
  N   N5        1.0  0.35407  0.38584  0.85814  1.0000
  N   N6        1.0  0.85407  0.11416  0.14186  1.0000
  N   N7        1.0  0.64593  0.61416  0.14186  1.0000
  N   N8        1.0  0.14593  0.88584  0.85814  1.0000
  N   N9        1.0  0.57987  0.31683  0.55111  1.0000
  N   N10       1.0  0.07987  0.18316  0.44889  1.0000
  N   N11       1.0  0.42013  0.68317  0.44889  1.0000
  N   N12       1.0  0.92013  0.81683  0.55111  1.0000
  N   N13       1.0  0.57984  0.31660  0.46400  1.0000
  N   N14       1.0  0.07984  0.18340  0.53600  1.0000
  N   N15       1.0  0.42016  0.68340  0.53600  1.0000
  N   N16       1.0  0.92016  0.81660  0.46400  1.0000
  O   O1        1.0  0.16440  0.06041  0.99681  1.0000
  O   O2        1.0  0.66440  0.43959  0.00319  1.0000
  O   O3        1.0  0.83559  0.93959  0.00319  1.0000
  O   O4        1.0  0.33560  0.56041  0.99681  1.0000
  O   O5        1.0  0.24810  0.22875  0.98772  1.0000
  O   O6        1.0  0.74810  0.27125  0.01228  1.0000
  O   O7        1.0  0.75191  0.77125  0.01228  1.0000
  O   O8        1.0  0.25191  0.72875  0.98772  1.0000
  O   O9        1.0  0.40724  0.12900  0.09887  1.0000
  O   O10       1.0  0.90723  0.37099  0.90113  1.0000
  O   O11       1.0  0.59276  0.87099  0.90113  1.0000
  O   O12       1.0  0.09276  0.62900  0.09887  1.0000
  O   O13       1.0  0.49098  0.10462  0.94562  1.0000
  O   O14       1.0  0.99098  0.39539  0.05438  1.0000
  O   O15       1.0  0.50902  0.89539  0.05438  1.0000
  O   O16       1.0  0.00902  0.60461  0.94562  1.0000
