data_image0
_chemical_formula_structural       CoH20C22S2N6O2
_chemical_formula_sum              "Co1 H20 C22 S2 N6 O2"
_cell_length_a       7.19281
_cell_length_b       8.88671
_cell_length_c       10.0041
_cell_angle_alpha    109.539
_cell_angle_beta     103.298
_cell_angle_gamma    97.5902

_space_group_name_H-M_alt    "P 1"
_space_group_IT_number       1

loop_
  _space_group_symop_operation_xyz
  'x, y, z'

loop_
  _atom_site_type_symbol
  _atom_site_label
  _atom_site_symmetry_multiplicity
  _atom_site_fract_x
  _atom_site_fract_y
  _atom_site_fract_z
  _atom_site_occupancy
  Co  Co1       1.0  0.50000  0.50000  0.50000  1.0000
  H   H1        1.0  0.20901  0.65001  0.40429  1.0000
  H   H2        1.0  0.79100  0.34999  0.59571  1.0000
  H   H3        1.0  0.39657  0.72916  0.37594  1.0000
  H   H4        1.0  0.60343  0.27084  0.62406  1.0000
  H   H5        1.0  0.24818  0.18362  0.44268  1.0000
  H   H6        1.0  0.75183  0.81638  0.55732  1.0000
  H   H7        1.0  0.02445  0.95453  0.22569  1.0000
  H   H8        1.0  0.97554  0.04548  0.77431  1.0000
  H   H9        1.0  0.14987  0.22999  0.95833  1.0000
  H   H10       1.0  0.85014  0.77002  0.04167  1.0000
  H   H11       1.0  0.36649  0.44603  0.18754  1.0000
  H   H12       1.0  0.63353  0.55398  0.81246  1.0000
  H   H13       1.0  0.63996  0.01783  0.41840  1.0000
  H   H14       1.0  0.36004  0.98217  0.58160  1.0000
  H   H15       1.0  0.68116  0.16079  0.25358  1.0000
  H   H16       1.0  0.31883  0.83921  0.74641  1.0000
  H   H17       1.0  0.28826  0.73270  0.88954  1.0000
  H   H18       1.0  0.71172  0.26730  0.11046  1.0000
  H   H19       1.0  0.25858  0.61065  0.07076  1.0000
  H   H20       1.0  0.74141  0.38935  0.92924  1.0000
  C   C1        1.0  0.22104  0.18875  0.33305  1.0000
  C   C2        1.0  0.77897  0.81126  0.66694  1.0000
  C   C3        1.0  0.09467  0.06062  0.20927  1.0000
  C   C4        1.0  0.90533  0.93939  0.79073  1.0000
  C   C5        1.0  0.06365  0.06784  0.06762  1.0000
  C   C6        1.0  0.93635  0.93216  0.93238  1.0000
  C   C7        1.0  0.16319  0.21173  0.06223  1.0000
  C   C8        1.0  0.83680  0.78828  0.93777  1.0000
  C   C9        1.0  0.28608  0.33549  0.19068  1.0000
  C   C10       1.0  0.71394  0.66451  0.80933  1.0000
  C   C11       1.0  0.77478  0.56610  0.32565  1.0000
  C   C12       1.0  0.22523  0.43391  0.67434  1.0000
  C   C13       1.0  0.56608  0.95635  0.29971  1.0000
  C   C14       1.0  0.43391  0.04364  0.70029  1.0000
  C   C15       1.0  0.58975  0.03697  0.20500  1.0000
  C   C16       1.0  0.41024  0.96302  0.79500  1.0000
  C   C17       1.0  0.49075  0.95979  0.05277  1.0000
  C   C18       1.0  0.50925  0.04021  0.94723  1.0000
  C   C19       1.0  0.37104  0.80231  0.00516  1.0000
  C   C20       1.0  0.62895  0.19768  0.99483  1.0000
  C   C21       1.0  0.35448  0.73190  0.10780  1.0000
  C   C22       1.0  0.64551  0.26809  0.89220  1.0000
  S   S1        1.0  0.91813  0.61834  0.23678  1.0000
  S   S2        1.0  0.08187  0.38167  0.76322  1.0000
  N   N1        1.0  0.66876  0.52737  0.38912  1.0000
  N   N2        1.0  0.33123  0.47263  0.61089  1.0000
  N   N3        1.0  0.31772  0.32567  0.32564  1.0000
  N   N4        1.0  0.68229  0.67433  0.67435  1.0000
  N   N5        1.0  0.45046  0.80633  0.25326  1.0000
  N   N6        1.0  0.54953  0.19367  0.74674  1.0000
  O   O1        1.0  0.35197  0.69016  0.45047  1.0000
  O   O2        1.0  0.64804  0.30984  0.54953  1.0000
