data_image0
_chemical_formula_structural       CoH8C10S2N6
_chemical_formula_sum              "Co1 H8 C10 S2 N6"
_cell_length_a       7.1693
_cell_length_b       6.71764
_cell_length_c       7.37871
_cell_angle_alpha    91.0764
_cell_angle_beta     110.247
_cell_angle_gamma    110.985

_space_group_name_H-M_alt    "P 1"
_space_group_IT_number       1

loop_
  _space_group_symop_operation_xyz
  'x, y, z'

loop_
  _atom_site_type_symbol
  _atom_site_label
  _atom_site_symmetry_multiplicity
  _atom_site_fract_x
  _atom_site_fract_y
  _atom_site_fract_z
  _atom_site_occupancy
  Co  Co1       1.0  0.00000  0.00001  0.00030  1.0000
  H   H1        1.0  0.72654  0.56981  0.73851  1.0000
  H   H2        1.0  0.33380  0.19828  0.45600  1.0000
  H   H3        1.0  0.27328  0.43015  0.26143  1.0000
  H   H4        1.0  0.66620  0.80145  0.54377  1.0000
  H   H5        1.0  0.26696  0.79593  0.25908  1.0000
  H   H6        1.0  0.68341  0.79909  0.20952  1.0000
  H   H7        1.0  0.73286  0.20400  0.74087  1.0000
  H   H8        1.0  0.31660  0.20079  0.79027  1.0000
  C   C1        1.0  0.48649  0.21874  0.19813  1.0000
  C   C2        1.0  0.51355  0.78131  0.80247  1.0000
  C   C3        1.0  0.84976  0.54072  0.85670  1.0000
  C   C4        1.0  0.18280  0.10961  0.47444  1.0000
  C   C5        1.0  0.15028  0.45935  0.14309  1.0000
  C   C6        1.0  0.81718  0.89041  0.52532  1.0000
  C   C7        1.0  0.14759  0.66457  0.14178  1.0000
  C   C8        1.0  0.82539  0.88898  0.33958  1.0000
  C   C9        1.0  0.85244  0.33537  0.85802  1.0000
  C   C10       1.0  0.17453  0.11107  0.66020  1.0000
  S   S1        1.0  0.73503  0.36068  0.33463  1.0000
  S   S2        1.0  0.26545  0.63964  0.66536  1.0000
  N   N1        1.0  0.99725  0.70855  0.99830  1.0000
  N   N2        1.0  0.00872  0.99934  0.31336  1.0000
  N   N3        1.0  0.00270  0.29145  0.00145  1.0000
  N   N4        1.0  0.99128  0.00082  0.68645  1.0000
  N   N5        1.0  0.30182  0.11558  0.10069  1.0000
  N   N6        1.0  0.69808  0.88431  0.90027  1.0000
