data_image0
_chemical_formula_structural       Ag4H28C20N4Cl4O24
_chemical_formula_sum              "Ag4 H28 C20 N4 Cl4 O24"
_cell_length_a       7.47556
_cell_length_b       10.5657
_cell_length_c       11.6698
_cell_angle_alpha    80.9094
_cell_angle_beta     88.2395
_cell_angle_gamma    77.1782

_space_group_name_H-M_alt    "P 1"
_space_group_IT_number       1

loop_
  _space_group_symop_operation_xyz
  'x, y, z'

loop_
  _atom_site_type_symbol
  _atom_site_label
  _atom_site_symmetry_multiplicity
  _atom_site_fract_x
  _atom_site_fract_y
  _atom_site_fract_z
  _atom_site_occupancy
  Ag  Ag1       1.0  0.08293  0.81844  0.02831  1.0000
  Ag  Ag2       1.0  0.91707  0.18156  0.97169  1.0000
  Ag  Ag3       1.0  0.50000  0.50000  0.00000  1.0000
  Ag  Ag4       1.0  0.00000  0.50000  0.00000  1.0000
  H   H1        1.0  0.91763  0.94439  0.23698  1.0000
  H   H2        1.0  0.08237  0.05561  0.76302  1.0000
  H   H3        1.0  0.89448  0.90262  0.45451  1.0000
  H   H4        1.0  0.10552  0.09738  0.54549  1.0000
  H   H5        1.0  0.73032  0.72920  0.54775  1.0000
  H   H6        1.0  0.26968  0.27080  0.45225  1.0000
  H   H7        1.0  0.58922  0.60879  0.41743  1.0000
  H   H8        1.0  0.41077  0.39121  0.58257  1.0000
  H   H9        1.0  0.61682  0.66619  0.20201  1.0000
  H   H10       1.0  0.38317  0.33381  0.79798  1.0000
  H   H11       1.0  0.08178  0.54724  0.76513  1.0000
  H   H12       1.0  0.91822  0.45276  0.23487  1.0000
  H   H13       1.0  0.10723  0.60833  0.54893  1.0000
  H   H14       1.0  0.89277  0.39167  0.45107  1.0000
  H   H15       1.0  0.27591  0.78445  0.47079  1.0000
  H   H16       1.0  0.72409  0.21555  0.52920  1.0000
  H   H17       1.0  0.41705  0.88977  0.61431  1.0000
  H   H18       1.0  0.58296  0.11023  0.38569  1.0000
  H   H19       1.0  0.38375  0.81387  0.82839  1.0000
  H   H20       1.0  0.61624  0.18613  0.17161  1.0000
  H   H21       1.0  0.36878  0.92432  0.07949  1.0000
  H   H22       1.0  0.63122  0.07568  0.92051  1.0000
  H   H23       1.0  0.29615  0.00305  0.95994  1.0000
  H   H24       1.0  0.70385  0.99695  0.04006  1.0000
  H   H25       1.0  0.27924  0.29776  0.11227  1.0000
  H   H26       1.0  0.72075  0.70224  0.88773  1.0000
  H   H27       1.0  0.27562  0.27403  0.98170  1.0000
  H   H28       1.0  0.72437  0.72597  0.01830  1.0000
  C   C1        1.0  0.84497  0.87332  0.28301  1.0000
  C   C2        1.0  0.15503  0.12668  0.71699  1.0000
  C   C3        1.0  0.83137  0.84756  0.40245  1.0000
  C   C4        1.0  0.16863  0.15244  0.59755  1.0000
  C   C5        1.0  0.73945  0.75182  0.45374  1.0000
  C   C6        1.0  0.26055  0.24818  0.54626  1.0000
  C   C7        1.0  0.66184  0.68465  0.38194  1.0000
  C   C8        1.0  0.33816  0.31535  0.61806  1.0000
  C   C9        1.0  0.67636  0.71367  0.26254  1.0000
  C   C10       1.0  0.32364  0.28633  0.73746  1.0000
  C   C11       1.0  0.15507  0.62108  0.72548  1.0000
  C   C12       1.0  0.84493  0.37892  0.27452  1.0000
  C   C13       1.0  0.16996  0.65729  0.60694  1.0000
  C   C14       1.0  0.83004  0.34271  0.39306  1.0000
  C   C15       1.0  0.26458  0.75449  0.56390  1.0000
  C   C16       1.0  0.73542  0.24551  0.43610  1.0000
  C   C17       1.0  0.34238  0.81314  0.64298  1.0000
  C   C18       1.0  0.65762  0.18687  0.35702  1.0000
  C   C19       1.0  0.32636  0.77411  0.76106  1.0000
  C   C20       1.0  0.67364  0.22589  0.23894  1.0000
  N   N1        1.0  0.76754  0.80661  0.21573  1.0000
  N   N2        1.0  0.23246  0.19339  0.78427  1.0000
  N   N3        1.0  0.23398  0.67880  0.80007  1.0000
  N   N4        1.0  0.76602  0.32120  0.19993  1.0000
  Cl  Cl1       1.0  0.76823  0.92455  0.74696  1.0000
  Cl  Cl2       1.0  0.23177  0.07545  0.25304  1.0000
  Cl  Cl3       1.0  0.24387  0.58882  0.26212  1.0000
  Cl  Cl4       1.0  0.75613  0.41118  0.73788  1.0000
  O   O1        1.0  0.78132  0.83390  0.09930  1.0000
  O   O2        1.0  0.21868  0.16610  0.90070  1.0000
  O   O3        1.0  0.22235  0.64034  0.91487  1.0000
  O   O4        1.0  0.77766  0.35966  0.08513  1.0000
  O   O5        1.0  0.33302  0.91147  0.00242  1.0000
  O   O6        1.0  0.66698  0.08853  0.99758  1.0000
  O   O7        1.0  0.28062  0.34234  0.03118  1.0000
  O   O8        1.0  0.71938  0.65766  0.96882  1.0000
  O   O9        1.0  0.91518  0.92267  0.82850  1.0000
  O   O10       1.0  0.08482  0.07733  0.17150  1.0000
  O   O11       1.0  0.59481  0.99983  0.78653  1.0000
  O   O12       1.0  0.40519  0.00017  0.21347  1.0000
  O   O13       1.0  0.81171  0.98288  0.63153  1.0000
  O   O14       1.0  0.18829  0.01712  0.36847  1.0000
  O   O15       1.0  0.75068  0.78889  0.74512  1.0000
  O   O16       1.0  0.24932  0.21111  0.25488  1.0000
  O   O17       1.0  0.41855  0.51974  0.21805  1.0000
  O   O18       1.0  0.58145  0.48026  0.78195  1.0000
  O   O19       1.0  0.20456  0.51900  0.37428  1.0000
  O   O20       1.0  0.79544  0.48100  0.62572  1.0000
  O   O21       1.0  0.25332  0.72337  0.27084  1.0000
  O   O22       1.0  0.74668  0.27663  0.72916  1.0000
  O   O23       1.0  0.09555  0.59309  0.17929  1.0000
  O   O24       1.0  0.90445  0.40691  0.82071  1.0000
