data_image0
_chemical_formula_structural       Ag4H20C24S4N4O16F12
_chemical_formula_sum              "Ag4 H20 C24 S4 N4 O16 F12"
_cell_length_a       8.23186
_cell_length_b       10.284
_cell_length_c       11.7658
_cell_angle_alpha    86.5382
_cell_angle_beta     81.4615
_cell_angle_gamma    88.6083

_space_group_name_H-M_alt    "P 1"
_space_group_IT_number       1

loop_
  _space_group_symop_operation_xyz
  'x, y, z'

loop_
  _atom_site_type_symbol
  _atom_site_label
  _atom_site_symmetry_multiplicity
  _atom_site_fract_x
  _atom_site_fract_y
  _atom_site_fract_z
  _atom_site_occupancy
  Ag  Ag1       1.0  0.11622  0.88861  0.08779  1.0000
  Ag  Ag2       1.0  0.88378  0.11139  0.91221  1.0000
  Ag  Ag3       1.0  0.38727  0.06569  0.91946  1.0000
  Ag  Ag4       1.0  0.61273  0.93431  0.08054  1.0000
  H   H1        1.0  0.03690  0.07060  0.23175  1.0000
  H   H2        1.0  0.96310  0.92940  0.76825  1.0000
  H   H3        1.0  0.01491  0.23874  0.37845  1.0000
  H   H4        1.0  0.98509  0.76126  0.62155  1.0000
  H   H5        1.0  0.05888  0.47535  0.31087  1.0000
  H   H6        1.0  0.94112  0.52465  0.68913  1.0000
  H   H7        1.0  0.12547  0.53034  0.09839  1.0000
  H   H8        1.0  0.87453  0.46966  0.90161  1.0000
  H   H9        1.0  0.14607  0.34754  0.96202  1.0000
  H   H10       1.0  0.85393  0.65245  0.03798  1.0000
  H   H11       1.0  0.67124  0.94582  0.64143  1.0000
  H   H12       1.0  0.32877  0.05418  0.35857  1.0000
  H   H13       1.0  0.69179  0.04575  0.43766  1.0000
  H   H14       1.0  0.30821  0.95425  0.56234  1.0000
  H   H15       1.0  0.69430  0.29049  0.40816  1.0000
  H   H16       1.0  0.30570  0.70951  0.59184  1.0000
  H   H17       1.0  0.68397  0.42353  0.58190  1.0000
  H   H18       1.0  0.31603  0.57647  0.41810  1.0000
  H   H19       1.0  0.66890  0.30627  0.77832  1.0000
  H   H20       1.0  0.33110  0.69373  0.22168  1.0000
  C   C1        1.0  0.05703  0.17366  0.20849  1.0000
  C   C2        1.0  0.94297  0.82634  0.79151  1.0000
  C   C3        1.0  0.04480  0.26881  0.28769  1.0000
  C   C4        1.0  0.95520  0.73119  0.71231  1.0000
  C   C5        1.0  0.06935  0.39895  0.25004  1.0000
  C   C6        1.0  0.93065  0.60105  0.74996  1.0000
  C   C7        1.0  0.10513  0.43036  0.13206  1.0000
  C   C8        1.0  0.89487  0.56964  0.86794  1.0000
  C   C9        1.0  0.11790  0.33282  0.05514  1.0000
  C   C10       1.0  0.88210  0.66718  0.94486  1.0000
  C   C11       1.0  0.67544  0.05008  0.62014  1.0000
  C   C12       1.0  0.32456  0.94992  0.37986  1.0000
  C   C13       1.0  0.68501  0.10791  0.51001  1.0000
  C   C14       1.0  0.31499  0.89209  0.48999  1.0000
  C   C15       1.0  0.68806  0.24347  0.49394  1.0000
  C   C16       1.0  0.31194  0.75653  0.50606  1.0000
  C   C17       1.0  0.68262  0.31761  0.59006  1.0000
  C   C18       1.0  0.31738  0.68239  0.40994  1.0000
  C   C19       1.0  0.67387  0.25672  0.69874  1.0000
  C   C20       1.0  0.32613  0.74328  0.30125  1.0000
  C   C21       1.0  0.78838  0.68154  0.42695  1.0000
  C   C22       1.0  0.21162  0.31847  0.57305  1.0000
  C   C23       1.0  0.43291  0.60758  0.81956  1.0000
  C   C24       1.0  0.56709  0.39242  0.18045  1.0000
  S   S1        1.0  0.84916  0.79738  0.30048  1.0000
  S   S2        1.0  0.15084  0.20263  0.69952  1.0000
  S   S3        1.0  0.39138  0.74499  0.91656  1.0000
  S   S4        1.0  0.60862  0.25501  0.08344  1.0000
  N   N1        1.0  0.09469  0.20697  0.09466  1.0000
  N   N2        1.0  0.90531  0.79303  0.90533  1.0000
  N   N3        1.0  0.67020  0.12467  0.71194  1.0000
  N   N4        1.0  0.32980  0.87533  0.28806  1.0000
  O   O1        1.0  0.10967  0.11397  0.01794  1.0000
  O   O2        1.0  0.89033  0.88603  0.98206  1.0000
  O   O3        1.0  0.66109  0.06604  0.81704  1.0000
  O   O4        1.0  0.33891  0.93395  0.18296  1.0000
  O   O5        1.0  0.69073  0.83718  0.26681  1.0000
  O   O6        1.0  0.30927  0.16282  0.73319  1.0000
  O   O7        1.0  0.93605  0.89813  0.34802  1.0000
  O   O8        1.0  0.06395  0.10188  0.65198  1.0000
  O   O9        1.0  0.95300  0.71655  0.21921  1.0000
  O   O10       1.0  0.04700  0.28345  0.78079  1.0000
  O   O11       1.0  0.54969  0.76485  0.95418  1.0000
  O   O12       1.0  0.45031  0.23515  0.04582  1.0000
  O   O13       1.0  0.33555  0.85114  0.84195  1.0000
  O   O14       1.0  0.66445  0.14886  0.15805  1.0000
  O   O15       1.0  0.26319  0.69328  0.00668  1.0000
  O   O16       1.0  0.73681  0.30672  0.99332  1.0000
  F   F1        1.0  0.70432  0.74517  0.51580  1.0000
  F   F2        1.0  0.29569  0.25484  0.48420  1.0000
  F   F3        1.0  0.69146  0.58571  0.40162  1.0000
  F   F4        1.0  0.30853  0.41430  0.59838  1.0000
  F   F5        1.0  0.92300  0.62307  0.46432  1.0000
  F   F6        1.0  0.07700  0.37693  0.53568  1.0000
  F   F7        1.0  0.29172  0.57312  0.78366  1.0000
  F   F8        1.0  0.70828  0.42688  0.21634  1.0000
  F   F9        1.0  0.49421  0.50213  0.87414  1.0000
  F   F10       1.0  0.50579  0.49787  0.12586  1.0000
  F   F11       1.0  0.54250  0.64262  0.72523  1.0000
  F   F12       1.0  0.45750  0.35738  0.27477  1.0000
