data_image0
_chemical_formula_structural       Zn2H60C68N4O12
_chemical_formula_sum              "Zn2 H60 C68 N4 O12"
_cell_length_a       6.87371
_cell_length_b       9.1036
_cell_length_c       25.51
_cell_angle_alpha    100.125
_cell_angle_beta     89.9643
_cell_angle_gamma    112.131

_space_group_name_H-M_alt    "P 1"
_space_group_IT_number       1

loop_
  _space_group_symop_operation_xyz
  'x, y, z'

loop_
  _atom_site_type_symbol
  _atom_site_label
  _atom_site_symmetry_multiplicity
  _atom_site_fract_x
  _atom_site_fract_y
  _atom_site_fract_z
  _atom_site_occupancy
  Zn  Zn1       1.0  0.00630  0.00025  0.75008  1.0000
  Zn  Zn2       1.0  0.99370  0.99975  0.24992  1.0000
  H   H1        1.0  0.02093  0.46930  0.53875  1.0000
  H   H2        1.0  0.55231  0.53137  0.96152  1.0000
  H   H3        1.0  0.97909  0.53070  0.46125  1.0000
  H   H4        1.0  0.44769  0.46863  0.03848  1.0000
  H   H5        1.0  0.60848  0.18053  0.67505  1.0000
  H   H6        1.0  0.42849  0.81969  0.82510  1.0000
  H   H7        1.0  0.39153  0.81948  0.32495  1.0000
  H   H8        1.0  0.57150  0.18030  0.17490  1.0000
  H   H9        1.0  0.44001  0.28931  0.61576  1.0000
  H   H10       1.0  0.15116  0.71089  0.88438  1.0000
  H   H11       1.0  0.56001  0.71071  0.38424  1.0000
  H   H12       1.0  0.84883  0.28911  0.11562  1.0000
  H   H13       1.0  0.18902  0.36272  0.59995  1.0000
  H   H14       1.0  0.82711  0.63794  0.90033  1.0000
  H   H15       1.0  0.81099  0.63727  0.40005  1.0000
  H   H16       1.0  0.17288  0.36206  0.09967  1.0000
  H   H17       1.0  0.54769  0.88039  0.47507  1.0000
  H   H18       1.0  0.66769  0.11936  0.02461  1.0000
  H   H19       1.0  0.45234  0.11962  0.52493  1.0000
  H   H20       1.0  0.33230  0.88063  0.97539  1.0000
  H   H21       1.0  0.84956  0.07498  0.53415  1.0000
  H   H22       1.0  0.77597  0.92512  0.96551  1.0000
  H   H23       1.0  0.15047  0.92503  0.46585  1.0000
  H   H24       1.0  0.22402  0.07488  0.03449  1.0000
  H   H25       1.0  0.92977  0.69132  0.59656  1.0000
  H   H26       1.0  0.24059  0.30927  0.90357  1.0000
  H   H27       1.0  0.07023  0.30869  0.40345  1.0000
  H   H28       1.0  0.75941  0.69073  0.09643  1.0000
  H   H29       1.0  0.04334  0.97993  0.59500  1.0000
  H   H30       1.0  0.06564  0.02042  0.90488  1.0000
  H   H31       1.0  0.95667  0.02008  0.40500  1.0000
  H   H32       1.0  0.93435  0.97958  0.09512  1.0000
  H   H33       1.0  0.44815  0.26870  0.74937  1.0000
  H   H34       1.0  0.17899  0.73135  0.75063  1.0000
  H   H35       1.0  0.55185  0.73130  0.25063  1.0000
  H   H36       1.0  0.82101  0.26864  0.24937  1.0000
  H   H37       1.0  0.68236  0.30906  0.89956  1.0000
  H   H38       1.0  0.37351  0.69121  0.60044  1.0000
  H   H39       1.0  0.31764  0.69094  0.10044  1.0000
  H   H40       1.0  0.62649  0.30879  0.39956  1.0000
  H   H41       1.0  0.71284  0.13408  0.86260  1.0000
  H   H42       1.0  0.57859  0.86601  0.63742  1.0000
  H   H43       1.0  0.28715  0.86592  0.13740  1.0000
  H   H44       1.0  0.42141  0.13399  0.36258  1.0000
  H   H45       1.0  0.45434  0.13208  0.87347  1.0000
  H   H46       1.0  0.32220  0.86825  0.62658  1.0000
  H   H47       1.0  0.54566  0.86792  0.12653  1.0000
  H   H48       1.0  0.67780  0.13175  0.37342  1.0000
  H   H49       1.0  0.92433  0.30540  0.79969  1.0000
  H   H50       1.0  0.61891  0.69490  0.70033  1.0000
  H   H51       1.0  0.07567  0.69461  0.20031  1.0000
  H   H52       1.0  0.38109  0.30510  0.29967  1.0000
  H   H53       1.0  0.87805  0.48386  0.82711  1.0000
  H   H54       1.0  0.39474  0.51635  0.67292  1.0000
  H   H55       1.0  0.12195  0.51614  0.17289  1.0000
  H   H56       1.0  0.60525  0.48365  0.32708  1.0000
  H   H57       1.0  0.79125  0.38604  0.75973  1.0000
  H   H58       1.0  0.40521  0.61421  0.74030  1.0000
  H   H59       1.0  0.20874  0.61396  0.24027  1.0000
  H   H60       1.0  0.59479  0.38579  0.25970  1.0000
  C   C1        1.0  0.91152  0.26719  0.64252  1.0000
  C   C2        1.0  0.64502  0.73328  0.85771  1.0000
  C   C3        1.0  0.08849  0.73281  0.35747  1.0000
  C   C4        1.0  0.35496  0.26672  0.14229  1.0000
  C   C5        1.0  0.93025  0.40889  0.56926  1.0000
  C   C6        1.0  0.52211  0.59180  0.93100  1.0000
  C   C7        1.0  0.06975  0.59111  0.43074  1.0000
  C   C8        1.0  0.47788  0.40820  0.06900  1.0000
  C   C9        1.0  0.43511  0.33272  0.50113  1.0000
  C   C10       1.0  0.10200  0.66734  0.99900  1.0000
  C   C11       1.0  0.56491  0.66729  0.49887  1.0000
  C   C12       1.0  0.89800  0.33266  0.00100  1.0000
  C   C13       1.0  0.67633  0.61254  0.53426  1.0000
  C   C14       1.0  0.06455  0.38763  0.96572  1.0000
  C   C15       1.0  0.32368  0.38747  0.46574  1.0000
  C   C16       1.0  0.93544  0.61236  0.03428  1.0000
  C   C17       1.0  0.71757  0.38817  0.57245  1.0000
  C   C18       1.0  0.33008  0.61236  0.92776  1.0000
  C   C19       1.0  0.28244  0.61184  0.42755  1.0000
  C   C20       1.0  0.66992  0.38763  0.07224  1.0000
  C   C21       1.0  0.69975  0.24672  0.64585  1.0000
  C   C22       1.0  0.45368  0.75367  0.85435  1.0000
  C   C23       1.0  0.30026  0.75329  0.35414  1.0000
  C   C24       1.0  0.54630  0.24632  0.14565  1.0000
  C   C25       1.0  0.60476  0.30711  0.61164  1.0000
  C   C26       1.0  0.29825  0.69329  0.88855  1.0000
  C   C27       1.0  0.39525  0.69289  0.38836  1.0000
  C   C28       1.0  0.70174  0.30670  0.11145  1.0000
  C   C29       1.0  0.02579  0.34964  0.60392  1.0000
  C   C30       1.0  0.67697  0.65097  0.89635  1.0000
  C   C31       1.0  0.97422  0.65036  0.39608  1.0000
  C   C32       1.0  0.32302  0.34902  0.10365  1.0000
  C   C33       1.0  0.60956  0.44583  0.53513  1.0000
  C   C34       1.0  0.16412  0.55445  0.96500  1.0000
  C   C35       1.0  0.39045  0.55419  0.46487  1.0000
  C   C36       1.0  0.83587  0.44555  0.03500  1.0000
  C   C37       1.0  0.63227  0.83728  0.50079  1.0000
  C   C38       1.0  0.79563  0.16260  0.99895  1.0000
  C   C39       1.0  0.36774  0.16272  0.49921  1.0000
  C   C40       1.0  0.20437  0.83739  0.00105  1.0000
  C   C41       1.0  0.01092  0.19741  0.67857  1.0000
  C   C42       1.0  0.81421  0.80303  0.82167  1.0000
  C   C43       1.0  0.98909  0.80260  0.32143  1.0000
  C   C44       1.0  0.18579  0.19697  0.17833  1.0000
  C   C45       1.0  0.80056  0.94640  0.53400  1.0000
  C   C46       1.0  0.85534  0.05369  0.96571  1.0000
  C   C47       1.0  0.19945  0.05361  0.46600  1.0000
  C   C48       1.0  0.14465  0.94630  0.03429  1.0000
  C   C49       1.0  0.84851  0.73092  0.56884  1.0000
  C   C50       1.0  0.11921  0.26943  0.93116  1.0000
  C   C51       1.0  0.15150  0.26909  0.43116  1.0000
  C   C52       1.0  0.88079  0.73056  0.06884  1.0000
  C   C53       1.0  0.91107  0.89262  0.56830  1.0000
  C   C54       1.0  0.02012  0.10764  0.93155  1.0000
  C   C55       1.0  0.08894  0.10738  0.43170  1.0000
  C   C56       1.0  0.97987  0.89236  0.06845  1.0000
  C   C57       1.0  0.43425  0.22418  0.78720  1.0000
  C   C58       1.0  0.20949  0.77575  0.71278  1.0000
  C   C59       1.0  0.56574  0.77582  0.21280  1.0000
  C   C60       1.0  0.79050  0.22425  0.28722  1.0000
  C   C61       1.0  0.61516  0.20646  0.86621  1.0000
  C   C62       1.0  0.40866  0.79377  0.63381  1.0000
  C   C63       1.0  0.38484  0.79355  0.13379  1.0000
  C   C64       1.0  0.59133  0.20623  0.36619  1.0000
  C   C65       1.0  0.81333  0.36613  0.80005  1.0000
  C   C66       1.0  0.44731  0.63409  0.69997  1.0000
  C   C67       1.0  0.18667  0.63387  0.19995  1.0000
  C   C68       1.0  0.55269  0.36590  0.30003  1.0000
  N   N1        1.0  0.61210  0.26470  0.81667  1.0000
  N   N2        1.0  0.34727  0.73545  0.68333  1.0000
  N   N3        1.0  0.38790  0.73531  0.18333  1.0000
  N   N4        1.0  0.65273  0.26454  0.31667  1.0000
  O   O1        1.0  0.87975  0.09996  0.70578  1.0000
  O   O2        1.0  0.78045  0.90059  0.79449  1.0000
  O   O3        1.0  0.12026  0.90005  0.29422  1.0000
  O   O4        1.0  0.21955  0.09941  0.20551  1.0000
  O   O5        1.0  0.20577  0.23281  0.68088  1.0000
  O   O6        1.0  0.97356  0.76740  0.81929  1.0000
  O   O7        1.0  0.79423  0.76719  0.31912  1.0000
  O   O8        1.0  0.02643  0.23260  0.18071  1.0000
  O   O9        1.0  0.25584  0.13903  0.80102  1.0000
  O   O10       1.0  0.11574  0.86062  0.69892  1.0000
  O   O11       1.0  0.74416  0.86097  0.19898  1.0000
  O   O12       1.0  0.88425  0.13938  0.30108  1.0000
