data_image0
_chemical_formula_structural       Cu2H36Au4C24N12
_chemical_formula_sum              "Cu2 H36 Au4 C24 N12"
_cell_length_a       8.49713
_cell_length_b       9.44851
_cell_length_c       10.8174
_cell_angle_alpha    89.9996
_cell_angle_beta     90.0002
_cell_angle_gamma    101.838

_space_group_name_H-M_alt    "P 1"
_space_group_IT_number       1

loop_
  _space_group_symop_operation_xyz
  'x, y, z'

loop_
  _atom_site_type_symbol
  _atom_site_label
  _atom_site_symmetry_multiplicity
  _atom_site_fract_x
  _atom_site_fract_y
  _atom_site_fract_z
  _atom_site_occupancy
  Cu  Cu1       1.0  0.56461  0.15594  0.77232  1.0000
  Cu  Cu2       1.0  0.43539  0.84407  0.27232  1.0000
  H   H1        1.0  0.34607  0.12990  0.92820  1.0000
  H   H2        1.0  0.65394  0.87011  0.42820  1.0000
  H   H3        1.0  0.42866  0.43927  0.87304  1.0000
  H   H4        1.0  0.57134  0.56073  0.37304  1.0000
  H   H5        1.0  0.55148  0.40176  0.69494  1.0000
  H   H6        1.0  0.44852  0.59824  0.19495  1.0000
  H   H7        1.0  0.21523  0.36549  0.03126  1.0000
  H   H8        1.0  0.78478  0.63450  0.53126  1.0000
  H   H9        1.0  0.11070  0.23080  0.93119  1.0000
  H   H10       1.0  0.88930  0.76919  0.43119  1.0000
  H   H11       1.0  0.16818  0.55905  0.88853  1.0000
  H   H12       1.0  0.83181  0.44095  0.38853  1.0000
  H   H13       1.0  0.98365  0.44234  0.92427  1.0000
  H   H14       1.0  0.01635  0.55765  0.42427  1.0000
  H   H15       1.0  0.00893  0.49800  0.69659  1.0000
  H   H16       1.0  0.99106  0.50199  0.19659  1.0000
  H   H17       1.0  0.98905  0.31162  0.72574  1.0000
  H   H18       1.0  0.01094  0.68838  0.22574  1.0000
  H   H19       1.0  0.30666  0.52772  0.67958  1.0000
  H   H20       1.0  0.69333  0.47228  0.17959  1.0000
  H   H21       1.0  0.20594  0.39891  0.57120  1.0000
  H   H22       1.0  0.79404  0.60109  0.07120  1.0000
  H   H23       1.0  0.23881  0.19905  0.71148  1.0000
  H   H24       1.0  0.76119  0.80095  0.21148  1.0000
  H   H25       1.0  0.56039  0.17667  0.06721  1.0000
  H   H26       1.0  0.43963  0.82334  0.56721  1.0000
  H   H27       1.0  0.44240  0.30852  0.09687  1.0000
  H   H28       1.0  0.55762  0.69150  0.59688  1.0000
  H   H29       1.0  0.62178  0.35432  0.00561  1.0000
  H   H30       1.0  0.37822  0.64569  0.50562  1.0000
  H   H31       1.0  0.59776  0.28621  0.50563  1.0000
  H   H32       1.0  0.40223  0.71379  0.00564  1.0000
  H   H33       1.0  0.42774  0.36841  0.48686  1.0000
  H   H34       1.0  0.57224  0.63159  0.98686  1.0000
  H   H35       1.0  0.40032  0.17898  0.51284  1.0000
  H   H36       1.0  0.59967  0.82102  0.01284  1.0000
  Au  Au1       1.0  0.01473  0.79625  0.76642  1.0000
  Au  Au2       1.0  0.98526  0.20375  0.26643  1.0000
  Au  Au3       1.0  0.99255  0.97226  0.01334  1.0000
  Au  Au4       1.0  0.00744  0.02774  0.51334  1.0000
  C   C1        1.0  0.23727  0.90818  0.75488  1.0000
  C   C2        1.0  0.76271  0.09181  0.25489  1.0000
  C   C3        1.0  0.80154  0.66449  0.77244  1.0000
  C   C4        1.0  0.19847  0.33552  0.27243  1.0000
  C   C5        1.0  0.81035  0.04048  0.93751  1.0000
  C   C6        1.0  0.18965  0.95952  0.43751  1.0000
  C   C7        1.0  0.82267  0.08845  0.59123  1.0000
  C   C8        1.0  0.17733  0.91155  0.09124  1.0000
  C   C9        1.0  0.34363  0.33482  0.86368  1.0000
  C   C10       1.0  0.65638  0.66518  0.36368  1.0000
  C   C11       1.0  0.18868  0.33984  0.93357  1.0000
  C   C12       1.0  0.81132  0.66015  0.43357  1.0000
  C   C13       1.0  0.09855  0.44783  0.87577  1.0000
  C   C14       1.0  0.90145  0.55216  0.37577  1.0000
  C   C15       1.0  0.06994  0.41769  0.73808  1.0000
  C   C16       1.0  0.93006  0.58231  0.23808  1.0000
  C   C17       1.0  0.22834  0.41992  0.67027  1.0000
  C   C18       1.0  0.77165  0.58008  0.17027  1.0000
  C   C19       1.0  0.31449  0.30758  0.72565  1.0000
  C   C20       1.0  0.68552  0.69243  0.22565  1.0000
  C   C21       1.0  0.51785  0.26854  0.02793  1.0000
  C   C22       1.0  0.48216  0.73147  0.52793  1.0000
  C   C23       1.0  0.47468  0.28447  0.53637  1.0000
  C   C24       1.0  0.52531  0.71553  0.03638  1.0000
  N   N1        1.0  0.37041  0.97273  0.74761  1.0000
  N   N2        1.0  0.62960  0.02728  0.24762  1.0000
  N   N3        1.0  0.68177  0.57669  0.77163  1.0000
  N   N4        1.0  0.31823  0.42329  0.27162  1.0000
  N   N5        1.0  0.70684  0.08486  0.88992  1.0000
  N   N6        1.0  0.29316  0.91514  0.38992  1.0000
  N   N7        1.0  0.71329  0.12186  0.64048  1.0000
  N   N8        1.0  0.28671  0.87814  0.14048  1.0000
  N   N9        1.0  0.42846  0.22410  0.91313  1.0000
  N   N10       1.0  0.57155  0.77591  0.41314  1.0000
  N   N11       1.0  0.47424  0.30574  0.67100  1.0000
  N   N12       1.0  0.52576  0.69426  0.17100  1.0000
