data_image0
_chemical_formula_structural       Cu2H36Au2C20N8Cl2O8
_chemical_formula_sum              "Cu2 H36 Au2 C20 N8 Cl2 O8"
_cell_length_a       7.14607
_cell_length_b       9.38586
_cell_length_c       12.8101
_cell_angle_alpha    90
_cell_angle_beta     90.0003
_cell_angle_gamma    112.372

_space_group_name_H-M_alt    "P 1"
_space_group_IT_number       1

loop_
  _space_group_symop_operation_xyz
  'x, y, z'

loop_
  _atom_site_type_symbol
  _atom_site_label
  _atom_site_symmetry_multiplicity
  _atom_site_fract_x
  _atom_site_fract_y
  _atom_site_fract_z
  _atom_site_occupancy
  Cu  Cu1       1.0  0.22661  0.45315  0.75001  1.0000
  Cu  Cu2       1.0  0.77339  0.54685  0.25001  1.0000
  H   H1        1.0  0.14865  0.63414  0.86528  1.0000
  H   H2        1.0  0.51424  0.36590  0.13471  1.0000
  H   H3        1.0  0.48576  0.63410  0.63471  1.0000
  H   H4        1.0  0.85136  0.36587  0.36528  1.0000
  H   H5        1.0  0.57687  0.77217  0.80416  1.0000
  H   H6        1.0  0.80439  0.22780  0.19580  1.0000
  H   H7        1.0  0.19561  0.77220  0.69580  1.0000
  H   H8        1.0  0.42313  0.22783  0.30416  1.0000
  H   H9        1.0  0.49088  0.91869  0.94329  1.0000
  H   H10       1.0  0.57181  0.08127  0.05669  1.0000
  H   H11       1.0  0.42819  0.91872  0.55669  1.0000
  H   H12       1.0  0.50913  0.08132  0.44329  1.0000
  H   H13       1.0  0.27781  0.91753  0.87196  1.0000
  H   H14       1.0  0.35994  0.08234  0.12809  1.0000
  H   H15       1.0  0.64007  0.91765  0.62808  1.0000
  H   H16       1.0  0.72220  0.08247  0.37196  1.0000
  H   H17       1.0  0.56555  0.16820  0.84673  1.0000
  H   H18       1.0  0.39744  0.83178  0.15330  1.0000
  H   H19       1.0  0.60256  0.16822  0.65329  1.0000
  H   H20       1.0  0.43445  0.83180  0.34673  1.0000
  H   H21       1.0  0.72488  0.07343  0.80730  1.0000
  H   H22       1.0  0.65152  0.92674  0.19268  1.0000
  H   H23       1.0  0.34848  0.07326  0.69268  1.0000
  H   H24       1.0  0.27512  0.92658  0.30731  1.0000
  H   H25       1.0  0.26362  0.49399  0.99143  1.0000
  H   H26       1.0  0.76924  0.50604  0.00852  1.0000
  H   H27       1.0  0.23076  0.49396  0.50852  1.0000
  H   H28       1.0  0.73639  0.50602  0.49143  1.0000
  H   H29       1.0  0.37452  0.69562  0.01474  1.0000
  H   H30       1.0  0.67864  0.30441  0.98521  1.0000
  H   H31       1.0  0.32136  0.69559  0.48521  1.0000
  H   H32       1.0  0.62548  0.30439  0.51474  1.0000
  H   H33       1.0  0.51604  0.60106  0.94938  1.0000
  H   H34       1.0  0.91468  0.39903  0.05056  1.0000
  H   H35       1.0  0.08532  0.60096  0.55056  1.0000
  H   H36       1.0  0.48397  0.39895  0.44938  1.0000
  Au  Au1       1.0  0.01107  0.99996  0.50007  1.0000
  Au  Au2       1.0  0.98891  0.00004  0.00007  1.0000
  C   C1        1.0  0.10426  0.18460  0.58905  1.0000
  C   C2        1.0  0.91990  0.81532  0.41109  1.0000
  C   C3        1.0  0.08007  0.18468  0.91109  1.0000
  C   C4        1.0  0.89574  0.81540  0.08905  1.0000
  C   C5        1.0  0.42401  0.77502  0.80589  1.0000
  C   C6        1.0  0.64869  0.22496  0.19407  1.0000
  C   C7        1.0  0.35132  0.77504  0.69406  1.0000
  C   C8        1.0  0.57599  0.22498  0.30589  1.0000
  C   C9        1.0  0.43283  0.91971  0.86410  1.0000
  C   C10       1.0  0.51283  0.08024  0.13590  1.0000
  C   C11       1.0  0.48718  0.91976  0.63590  1.0000
  C   C12       1.0  0.56717  0.08029  0.36410  1.0000
  C   C13       1.0  0.56712  0.06538  0.80632  1.0000
  C   C14       1.0  0.50173  0.93464  0.19369  1.0000
  C   C15       1.0  0.49828  0.06536  0.69369  1.0000
  C   C16       1.0  0.43288  0.93462  0.30633  1.0000
  C   C17       1.0  0.36530  0.60396  0.95927  1.0000
  C   C18       1.0  0.76101  0.39608  0.04068  1.0000
  C   C19       1.0  0.23899  0.60392  0.54068  1.0000
  C   C20       1.0  0.63470  0.39604  0.45927  1.0000
  N   N1        1.0  0.16121  0.29363  0.64254  1.0000
  N   N2        1.0  0.86779  0.70633  0.35756  1.0000
  N   N3        1.0  0.13220  0.29367  0.85756  1.0000
  N   N4        1.0  0.83879  0.70637  0.14255  1.0000
  N   N5        1.0  0.29002  0.62980  0.85677  1.0000
  N   N6        1.0  0.65994  0.37020  0.14319  1.0000
  N   N7        1.0  0.34006  0.62980  0.64319  1.0000
  N   N8        1.0  0.70998  0.37020  0.35677  1.0000
  Cl  Cl1       1.0  0.77549  0.55103  0.74999  1.0000
  Cl  Cl2       1.0  0.22451  0.44898  0.24999  1.0000
  O   O1        1.0  0.88147  0.45362  0.71547  1.0000
  O   O2        1.0  0.42796  0.54630  0.28448  1.0000
  O   O3        1.0  0.57204  0.45370  0.78448  1.0000
  O   O4        1.0  0.11853  0.54638  0.21547  1.0000
  O   O5        1.0  0.88565  0.64939  0.83684  1.0000
  O   O6        1.0  0.23614  0.35048  0.16318  1.0000
  O   O7        1.0  0.76385  0.64952  0.66318  1.0000
  O   O8        1.0  0.11435  0.35061  0.33684  1.0000
