data_image0
_chemical_formula_structural       Nd4H40C36S12N12O32
_chemical_formula_sum              "Nd4 H40 C36 S12 N12 O32"
_cell_length_a       8.70599
_cell_length_b       13.1952
_cell_length_c       14.4031
_cell_angle_alpha    90.0001
_cell_angle_beta     89.9999
_cell_angle_gamma    94.1029

_space_group_name_H-M_alt    "P 1"
_space_group_IT_number       1

loop_
  _space_group_symop_operation_xyz
  'x, y, z'

loop_
  _atom_site_type_symbol
  _atom_site_label
  _atom_site_symmetry_multiplicity
  _atom_site_fract_x
  _atom_site_fract_y
  _atom_site_fract_z
  _atom_site_occupancy
  Nd  Nd1       1.0  0.24939  0.49839  0.50094  1.0000
  Nd  Nd2       1.0  0.25061  0.00161  0.00094  1.0000
  Nd  Nd3       1.0  0.75061  0.50161  0.49906  1.0000
  Nd  Nd4       1.0  0.74938  0.99839  0.99906  1.0000
  H   H1        1.0  0.24522  0.37925  0.83078  1.0000
  H   H2        1.0  0.25478  0.12075  0.33078  1.0000
  H   H3        1.0  0.75478  0.62075  0.16922  1.0000
  H   H4        1.0  0.74522  0.87925  0.66922  1.0000
  H   H5        1.0  0.09259  0.46174  0.82427  1.0000
  H   H6        1.0  0.40741  0.03826  0.32427  1.0000
  H   H7        1.0  0.90741  0.53826  0.17573  1.0000
  H   H8        1.0  0.59259  0.96174  0.67573  1.0000
  H   H9        1.0  0.62635  0.79394  0.16889  1.0000
  H   H10       1.0  0.87365  0.70606  0.66889  1.0000
  H   H11       1.0  0.37365  0.20606  0.83111  1.0000
  H   H12       1.0  0.12635  0.29394  0.33111  1.0000
  H   H13       1.0  0.58012  0.71795  0.07011  1.0000
  H   H14       1.0  0.91988  0.78205  0.57011  1.0000
  H   H15       1.0  0.41988  0.28205  0.92989  1.0000
  H   H16       1.0  0.08012  0.21795  0.42989  1.0000
  H   H17       1.0  0.85816  0.26115  0.04951  1.0000
  H   H18       1.0  0.64184  0.23885  0.54951  1.0000
  H   H19       1.0  0.14184  0.73885  0.95049  1.0000
  H   H20       1.0  0.35816  0.76115  0.45049  1.0000
  H   H21       1.0  0.99874  0.33194  0.97964  1.0000
  H   H22       1.0  0.50127  0.16806  0.47964  1.0000
  H   H23       1.0  0.00127  0.66806  0.02036  1.0000
  H   H24       1.0  0.49874  0.83194  0.52036  1.0000
  H   H25       1.0  0.23083  0.64473  0.32544  1.0000
  H   H26       1.0  0.26917  0.85527  0.82544  1.0000
  H   H27       1.0  0.76917  0.35527  0.67456  1.0000
  H   H28       1.0  0.73083  0.14473  0.17456  1.0000
  H   H29       1.0  0.06098  0.61436  0.35988  1.0000
  H   H30       1.0  0.43902  0.88564  0.85988  1.0000
  H   H31       1.0  0.93902  0.38564  0.64012  1.0000
  H   H32       1.0  0.56098  0.11436  0.14012  1.0000
  H   H33       1.0  0.29015  0.46509  0.28162  1.0000
  H   H34       1.0  0.20985  0.03491  0.78161  1.0000
  H   H35       1.0  0.70985  0.53491  0.71839  1.0000
  H   H36       1.0  0.79015  0.96509  0.21839  1.0000
  H   H37       1.0  0.44860  0.45538  0.33169  1.0000
  H   H38       1.0  0.05140  0.04462  0.83169  1.0000
  H   H39       1.0  0.55140  0.54462  0.66831  1.0000
  H   H40       1.0  0.94860  0.95538  0.16831  1.0000
  C   C1        1.0  0.29462  0.53155  0.97507  1.0000
  C   C2        1.0  0.20538  0.96845  0.47507  1.0000
  C   C3        1.0  0.70538  0.46845  0.02493  1.0000
  C   C4        1.0  0.79462  0.03155  0.52493  1.0000
  C   C5        1.0  0.34144  0.58342  0.12215  1.0000
  C   C6        1.0  0.15856  0.91658  0.62215  1.0000
  C   C7        1.0  0.65856  0.41658  0.87785  1.0000
  C   C8        1.0  0.84144  0.08342  0.37785  1.0000
  C   C9        1.0  0.17830  0.44536  0.09380  1.0000
  C   C10       1.0  0.32170  0.05464  0.59380  1.0000
  C   C11       1.0  0.82170  0.55464  0.90620  1.0000
  C   C12       1.0  0.67830  0.94536  0.40620  1.0000
  C   C13       1.0  0.21322  0.45357  0.80591  1.0000
  C   C14       1.0  0.28678  0.04643  0.30591  1.0000
  C   C15       1.0  0.78678  0.54643  0.19409  1.0000
  C   C16       1.0  0.71322  0.95357  0.69409  1.0000
  C   C17       1.0  0.23311  0.45947  0.70176  1.0000
  C   C18       1.0  0.26689  0.04052  0.20176  1.0000
  C   C19       1.0  0.76689  0.54052  0.29824  1.0000
  C   C20       1.0  0.73311  0.95947  0.79824  1.0000
  C   C21       1.0  0.53033  0.75779  0.12870  1.0000
  C   C22       1.0  0.96966  0.74221  0.62870  1.0000
  C   C23       1.0  0.46966  0.24221  0.87130  1.0000
  C   C24       1.0  0.03034  0.25779  0.37130  1.0000
  C   C25       1.0  0.43301  0.83835  0.08885  1.0000
  C   C26       1.0  0.06698  0.66166  0.58885  1.0000
  C   C27       1.0  0.56698  0.16165  0.91115  1.0000
  C   C28       1.0  0.93302  0.33834  0.41115  1.0000
  C   C29       1.0  0.98145  0.28079  0.03955  1.0000
  C   C30       1.0  0.51855  0.21921  0.53955  1.0000
  C   C31       1.0  0.01856  0.71921  0.96045  1.0000
  C   C32       1.0  0.48145  0.78079  0.46045  1.0000
  C   C33       1.0  0.06877  0.18667  0.02322  1.0000
  C   C34       1.0  0.43123  0.31333  0.52322  1.0000
  C   C35       1.0  0.93123  0.81333  0.97678  1.0000
  C   C36       1.0  0.56877  0.68667  0.47678  1.0000
  S   S1        1.0  0.33568  0.55364  0.85883  1.0000
  S   S2        1.0  0.16432  0.94636  0.35883  1.0000
  S   S3        1.0  0.66432  0.44636  0.14117  1.0000
  S   S4        1.0  0.83568  0.05364  0.64117  1.0000
  S   S5        1.0  0.43100  0.66584  0.20348  1.0000
  S   S6        1.0  0.06900  0.83416  0.70348  1.0000
  S   S7        1.0  0.56900  0.33416  0.79652  1.0000
  S   S8        1.0  0.93100  0.16584  0.29652  1.0000
  S   S9        1.0  0.05054  0.35120  0.14039  1.0000
  S   S10       1.0  0.44946  0.14880  0.64039  1.0000
  S   S11       1.0  0.94946  0.64880  0.85961  1.0000
  S   S12       1.0  0.55054  0.85120  0.35961  1.0000
  N   N1        1.0  0.36983  0.59888  0.03224  1.0000
  N   N2        1.0  0.13017  0.90112  0.53223  1.0000
  N   N3        1.0  0.63016  0.40112  0.96777  1.0000
  N   N4        1.0  0.86983  0.09888  0.46776  1.0000
  N   N5        1.0  0.24826  0.50698  0.15833  1.0000
  N   N6        1.0  0.25174  0.99302  0.65833  1.0000
  N   N7        1.0  0.75174  0.49302  0.84167  1.0000
  N   N8        1.0  0.74826  0.00698  0.34167  1.0000
  N   N9        1.0  0.19579  0.45423  0.00172  1.0000
  N   N10       1.0  0.30421  0.04577  0.50172  1.0000
  N   N11       1.0  0.80421  0.54577  0.99828  1.0000
  N   N12       1.0  0.69579  0.95423  0.49828  1.0000
  O   O1        1.0  0.35752  0.49867  0.66647  1.0000
  O   O2        1.0  0.14248  0.00133  0.16647  1.0000
  O   O3        1.0  0.64248  0.50133  0.33353  1.0000
  O   O4        1.0  0.85752  0.99867  0.83353  1.0000
  O   O5        1.0  0.12250  0.42521  0.65054  1.0000
  O   O6        1.0  0.37750  0.07479  0.15054  1.0000
  O   O7        1.0  0.87750  0.57478  0.34946  1.0000
  O   O8        1.0  0.62250  0.92521  0.84946  1.0000
  O   O9        1.0  0.50844  0.91514  0.05101  1.0000
  O   O10       1.0  0.99156  0.58486  0.55101  1.0000
  O   O11       1.0  0.49156  0.08485  0.94899  1.0000
  O   O12       1.0  0.00844  0.41514  0.44899  1.0000
  O   O13       1.0  0.28877  0.83109  0.09110  1.0000
  O   O14       1.0  0.21123  0.66891  0.59110  1.0000
  O   O15       1.0  0.71123  0.16892  0.90890  1.0000
  O   O16       1.0  0.78877  0.33109  0.40890  1.0000
  O   O17       1.0  0.21341  0.19312  0.01922  1.0000
  O   O18       1.0  0.28659  0.30688  0.51922  1.0000
  O   O19       1.0  0.78659  0.80688  0.98078  1.0000
  O   O20       1.0  0.71341  0.69312  0.48078  1.0000
  O   O21       1.0  0.99074  0.10090  0.01359  1.0000
  O   O22       1.0  0.50926  0.39910  0.51359  1.0000
  O   O23       1.0  0.00926  0.89910  0.98641  1.0000
  O   O24       1.0  0.49074  0.60090  0.48641  1.0000
  O   O25       1.0  0.17011  0.62720  0.38085  1.0000
  O   O26       1.0  0.32989  0.87280  0.88085  1.0000
  O   O27       1.0  0.82989  0.37280  0.61915  1.0000
  O   O28       1.0  0.67011  0.12720  0.11915  1.0000
  O   O29       1.0  0.33595  0.44318  0.34084  1.0000
  O   O30       1.0  0.16405  0.05682  0.84084  1.0000
  O   O31       1.0  0.66405  0.55682  0.65916  1.0000
  O   O32       1.0  0.83595  0.94318  0.15916  1.0000
