data_image0
_chemical_formula_structural       Tb2H20C18S6N6O16
_chemical_formula_sum              "Tb2 H20 C18 S6 N6 O16"
_cell_length_a       8.54867
_cell_length_b       8.70341
_cell_length_c       11.3375
_cell_angle_alpha    104.976
_cell_angle_beta     97.363
_cell_angle_gamma    94.5955

_space_group_name_H-M_alt    "P 1"
_space_group_IT_number       1

loop_
  _space_group_symop_operation_xyz
  'x, y, z'

loop_
  _atom_site_type_symbol
  _atom_site_label
  _atom_site_symmetry_multiplicity
  _atom_site_fract_x
  _atom_site_fract_y
  _atom_site_fract_z
  _atom_site_occupancy
  Tb  Tb1       1.0  0.54496  0.16543  0.41548  1.0000
  Tb  Tb2       1.0  0.45505  0.83457  0.58452  1.0000
  H   H1        1.0  0.02137  0.92239  0.22171  1.0000
  H   H2        1.0  0.97863  0.07760  0.77828  1.0000
  H   H3        1.0  0.94781  0.01651  0.35691  1.0000
  H   H4        1.0  0.05218  0.98349  0.64308  1.0000
  H   H5        1.0  0.56758  0.74399  0.15732  1.0000
  H   H6        1.0  0.43241  0.25602  0.84268  1.0000
  H   H7        1.0  0.37177  0.79807  0.16480  1.0000
  H   H8        1.0  0.62821  0.20194  0.83521  1.0000
  H   H9        1.0  0.63695  0.27619  0.06484  1.0000
  H   H10       1.0  0.36305  0.72380  0.93516  1.0000
  H   H11       1.0  0.59681  0.06861  0.98584  1.0000
  H   H12       1.0  0.40319  0.93138  0.01416  1.0000
  H   H13       1.0  0.76571  0.41666  0.34434  1.0000
  H   H14       1.0  0.23430  0.58334  0.65567  1.0000
  H   H15       1.0  0.70011  0.51134  0.46687  1.0000
  H   H16       1.0  0.29989  0.48866  0.53314  1.0000
  H   H17       1.0  0.26348  0.27788  0.33510  1.0000
  H   H18       1.0  0.73652  0.72211  0.66491  1.0000
  H   H19       1.0  0.37739  0.44426  0.35624  1.0000
  H   H20       1.0  0.62261  0.55574  0.64377  1.0000
  C   C1        1.0  0.98188  0.58911  0.22630  1.0000
  C   C2        1.0  0.01811  0.41089  0.77369  1.0000
  C   C3        1.0  0.18667  0.49657  0.13423  1.0000
  C   C4        1.0  0.81333  0.50342  0.86577  1.0000
  C   C5        1.0  0.96469  0.32879  0.11787  1.0000
  C   C6        1.0  0.03531  0.67121  0.88213  1.0000
  C   C7        1.0  0.01442  0.91784  0.31669  1.0000
  C   C8        1.0  0.98558  0.08215  0.68330  1.0000
  C   C9        1.0  0.18184  0.94566  0.38927  1.0000
  C   C10       1.0  0.81816  0.05433  0.61072  1.0000
  C   C11       1.0  0.45391  0.71526  0.18715  1.0000
  C   C12       1.0  0.54608  0.28475  0.81285  1.0000
  C   C13       1.0  0.48054  0.74627  0.32587  1.0000
  C   C14       1.0  0.51945  0.25373  0.67413  1.0000
  C   C15       1.0  0.66697  0.15626  0.06670  1.0000
  C   C16       1.0  0.33303  0.84373  0.93330  1.0000
  C   C17       1.0  0.62275  0.12441  0.18369  1.0000
  C   C18       1.0  0.37727  0.87559  0.81631  1.0000
  S   S1        1.0  0.38106  0.51258  0.10223  1.0000
  S   S2        1.0  0.61894  0.48742  0.89777  1.0000
  S   S3        1.0  0.88864  0.74005  0.31284  1.0000
  S   S4        1.0  0.11135  0.25995  0.68715  1.0000
  S   S5        1.0  0.86808  0.13896  0.04207  1.0000
  S   S6        1.0  0.13192  0.86103  0.95792  1.0000
  N   N1        1.0  0.12540  0.62425  0.19732  1.0000
  N   N2        1.0  0.87459  0.37575  0.80267  1.0000
  N   N3        1.0  0.11147  0.34805  0.08842  1.0000
  N   N4        1.0  0.88854  0.65195  0.91159  1.0000
  N   N5        1.0  0.89762  0.44141  0.19411  1.0000
  N   N6        1.0  0.10237  0.55859  0.80588  1.0000
  O   O1        1.0  0.27195  0.05461  0.36620  1.0000
  O   O2        1.0  0.72805  0.94537  0.63379  1.0000
  O   O3        1.0  0.21936  0.86626  0.46547  1.0000
  O   O4        1.0  0.78065  0.13375  0.53454  1.0000
  O   O5        1.0  0.53501  0.88864  0.39016  1.0000
  O   O6        1.0  0.46500  0.11137  0.60985  1.0000
  O   O7        1.0  0.44712  0.64013  0.37949  1.0000
  O   O8        1.0  0.55287  0.35987  0.62051  1.0000
  O   O9        1.0  0.72662  0.10494  0.26743  1.0000
  O   O10       1.0  0.27340  0.89508  0.73257  1.0000
  O   O11       1.0  0.47600  0.12470  0.19634  1.0000
  O   O12       1.0  0.52402  0.87530  0.80366  1.0000
  O   O13       1.0  0.69873  0.40628  0.40666  1.0000
  O   O14       1.0  0.30126  0.59373  0.59334  1.0000
  O   O15       1.0  0.34701  0.35494  0.39193  1.0000
  O   O16       1.0  0.65299  0.64506  0.60807  1.0000
