data_image0
_chemical_formula_structural       Pr4H40C36S12N12O32
_chemical_formula_sum              "Pr4 H40 C36 S12 N12 O32"
_cell_length_a       8.72551
_cell_length_b       13.2157
_cell_length_c       14.4307
_cell_angle_alpha    90
_cell_angle_beta     90.0001
_cell_angle_gamma    94.3081

_space_group_name_H-M_alt    "P 1"
_space_group_IT_number       1

loop_
  _space_group_symop_operation_xyz
  'x, y, z'

loop_
  _atom_site_type_symbol
  _atom_site_label
  _atom_site_symmetry_multiplicity
  _atom_site_fract_x
  _atom_site_fract_y
  _atom_site_fract_z
  _atom_site_occupancy
  Pr  Pr1       1.0  0.24937  0.49865  0.50082  1.0000
  Pr  Pr2       1.0  0.25063  0.00135  0.00082  1.0000
  Pr  Pr3       1.0  0.75063  0.50135  0.49918  1.0000
  Pr  Pr4       1.0  0.74937  0.99865  0.99918  1.0000
  H   H1        1.0  0.24514  0.38042  0.83210  1.0000
  H   H2        1.0  0.25486  0.11957  0.33211  1.0000
  H   H3        1.0  0.75486  0.61957  0.16790  1.0000
  H   H4        1.0  0.74514  0.88043  0.66789  1.0000
  H   H5        1.0  0.09344  0.46285  0.82561  1.0000
  H   H6        1.0  0.40656  0.03715  0.32561  1.0000
  H   H7        1.0  0.90656  0.53715  0.17439  1.0000
  H   H8        1.0  0.59344  0.96285  0.67439  1.0000
  H   H9        1.0  0.62473  0.79604  0.17021  1.0000
  H   H10       1.0  0.87527  0.70396  0.67020  1.0000
  H   H11       1.0  0.37527  0.20396  0.82980  1.0000
  H   H12       1.0  0.12472  0.29604  0.32979  1.0000
  H   H13       1.0  0.58239  0.71968  0.07145  1.0000
  H   H14       1.0  0.91760  0.78032  0.57145  1.0000
  H   H15       1.0  0.41760  0.28032  0.92855  1.0000
  H   H16       1.0  0.08240  0.21968  0.42854  1.0000
  H   H17       1.0  0.85980  0.26120  0.04886  1.0000
  H   H18       1.0  0.64020  0.23881  0.54886  1.0000
  H   H19       1.0  0.14020  0.73880  0.95114  1.0000
  H   H20       1.0  0.35980  0.76120  0.45114  1.0000
  H   H21       1.0  0.00053  0.33247  0.97965  1.0000
  H   H22       1.0  0.49947  0.16753  0.47965  1.0000
  H   H23       1.0  0.99948  0.66753  0.02035  1.0000
  H   H24       1.0  0.50053  0.83247  0.52035  1.0000
  H   H25       1.0  0.23135  0.64644  0.32414  1.0000
  H   H26       1.0  0.26865  0.85356  0.82414  1.0000
  H   H27       1.0  0.76866  0.35356  0.67586  1.0000
  H   H28       1.0  0.73134  0.14644  0.17586  1.0000
  H   H29       1.0  0.06144  0.61526  0.35780  1.0000
  H   H30       1.0  0.43856  0.88474  0.85780  1.0000
  H   H31       1.0  0.93856  0.38474  0.64220  1.0000
  H   H32       1.0  0.56144  0.11526  0.14220  1.0000
  H   H33       1.0  0.29079  0.46505  0.28081  1.0000
  H   H34       1.0  0.20921  0.03495  0.78081  1.0000
  H   H35       1.0  0.70921  0.53495  0.71919  1.0000
  H   H36       1.0  0.79079  0.96505  0.21919  1.0000
  H   H37       1.0  0.44854  0.45368  0.33055  1.0000
  H   H38       1.0  0.05146  0.04632  0.83055  1.0000
  H   H39       1.0  0.55146  0.54632  0.66945  1.0000
  H   H40       1.0  0.94854  0.95368  0.16945  1.0000
  C   C1        1.0  0.29546  0.53250  0.97561  1.0000
  C   C2        1.0  0.20454  0.96750  0.47561  1.0000
  C   C3        1.0  0.70454  0.46750  0.02439  1.0000
  C   C4        1.0  0.79546  0.03250  0.52439  1.0000
  C   C5        1.0  0.34266  0.58372  0.12255  1.0000
  C   C6        1.0  0.15734  0.91628  0.62255  1.0000
  C   C7        1.0  0.65734  0.41628  0.87745  1.0000
  C   C8        1.0  0.84266  0.08372  0.37745  1.0000
  C   C9        1.0  0.17925  0.44586  0.09398  1.0000
  C   C10       1.0  0.32075  0.05414  0.59398  1.0000
  C   C11       1.0  0.82075  0.55414  0.90602  1.0000
  C   C12       1.0  0.67925  0.94586  0.40602  1.0000
  C   C13       1.0  0.21359  0.45460  0.80705  1.0000
  C   C14       1.0  0.28641  0.04540  0.30705  1.0000
  C   C15       1.0  0.78641  0.54540  0.19295  1.0000
  C   C16       1.0  0.71359  0.95460  0.69295  1.0000
  C   C17       1.0  0.23315  0.46016  0.70301  1.0000
  C   C18       1.0  0.26685  0.03984  0.20301  1.0000
  C   C19       1.0  0.76685  0.53984  0.29699  1.0000
  C   C20       1.0  0.73315  0.96016  0.79699  1.0000
  C   C21       1.0  0.53043  0.75863  0.12957  1.0000
  C   C22       1.0  0.96957  0.74137  0.62956  1.0000
  C   C23       1.0  0.46957  0.24138  0.87044  1.0000
  C   C24       1.0  0.03043  0.25862  0.37044  1.0000
  C   C25       1.0  0.43190  0.83767  0.08915  1.0000
  C   C26       1.0  0.06811  0.66234  0.58915  1.0000
  C   C27       1.0  0.56811  0.16234  0.91085  1.0000
  C   C28       1.0  0.93189  0.33766  0.41085  1.0000
  C   C29       1.0  0.98290  0.28129  0.03936  1.0000
  C   C30       1.0  0.51709  0.21871  0.53936  1.0000
  C   C31       1.0  0.01710  0.71871  0.96064  1.0000
  C   C32       1.0  0.48290  0.78129  0.46064  1.0000
  C   C33       1.0  0.07055  0.18761  0.02347  1.0000
  C   C34       1.0  0.42944  0.31239  0.52347  1.0000
  C   C35       1.0  0.92945  0.81239  0.97653  1.0000
  C   C36       1.0  0.57055  0.68761  0.47652  1.0000
  S   S1        1.0  0.33654  0.55468  0.85958  1.0000
  S   S2        1.0  0.16346  0.94532  0.35958  1.0000
  S   S3        1.0  0.66346  0.44531  0.14042  1.0000
  S   S4        1.0  0.83654  0.05469  0.64042  1.0000
  S   S5        1.0  0.43264  0.66579  0.20396  1.0000
  S   S6        1.0  0.06736  0.83421  0.70396  1.0000
  S   S7        1.0  0.56736  0.33421  0.79604  1.0000
  S   S8        1.0  0.93264  0.16579  0.29604  1.0000
  S   S9        1.0  0.05084  0.35180  0.14020  1.0000
  S   S10       1.0  0.44916  0.14820  0.64020  1.0000
  S   S11       1.0  0.94917  0.64820  0.85980  1.0000
  S   S12       1.0  0.55084  0.85180  0.35980  1.0000
  N   N1        1.0  0.37071  0.59971  0.03284  1.0000
  N   N2        1.0  0.12929  0.90029  0.53284  1.0000
  N   N3        1.0  0.62929  0.40029  0.96716  1.0000
  N   N4        1.0  0.87071  0.09971  0.46716  1.0000
  N   N5        1.0  0.24971  0.50708  0.15846  1.0000
  N   N6        1.0  0.25029  0.99292  0.65846  1.0000
  N   N7        1.0  0.75029  0.49292  0.84154  1.0000
  N   N8        1.0  0.74971  0.00708  0.34154  1.0000
  N   N9        1.0  0.19652  0.45508  0.00210  1.0000
  N   N10       1.0  0.30349  0.04492  0.50211  1.0000
  N   N11       1.0  0.80349  0.54492  0.99789  1.0000
  N   N12       1.0  0.69651  0.95508  0.49789  1.0000
  O   O1        1.0  0.35669  0.50060  0.66777  1.0000
  O   O2        1.0  0.14330  0.99940  0.16777  1.0000
  O   O3        1.0  0.64331  0.49940  0.33223  1.0000
  O   O4        1.0  0.85669  0.00060  0.83223  1.0000
  O   O5        1.0  0.12320  0.42438  0.65215  1.0000
  O   O6        1.0  0.37680  0.07562  0.15215  1.0000
  O   O7        1.0  0.87680  0.57562  0.34785  1.0000
  O   O8        1.0  0.62320  0.92438  0.84785  1.0000
  O   O9        1.0  0.50641  0.91502  0.05154  1.0000
  O   O10       1.0  0.99359  0.58498  0.55154  1.0000
  O   O11       1.0  0.49359  0.08498  0.94846  1.0000
  O   O12       1.0  0.00641  0.41502  0.44846  1.0000
  O   O13       1.0  0.28796  0.82902  0.09086  1.0000
  O   O14       1.0  0.21205  0.67099  0.59086  1.0000
  O   O15       1.0  0.71205  0.17099  0.90914  1.0000
  O   O16       1.0  0.78795  0.32901  0.40914  1.0000
  O   O17       1.0  0.21486  0.19465  0.01922  1.0000
  O   O18       1.0  0.28514  0.30535  0.51922  1.0000
  O   O19       1.0  0.78515  0.80535  0.98078  1.0000
  O   O20       1.0  0.71485  0.69465  0.48078  1.0000
  O   O21       1.0  0.99281  0.10156  0.01455  1.0000
  O   O22       1.0  0.50719  0.39844  0.51455  1.0000
  O   O23       1.0  0.00719  0.89844  0.98545  1.0000
  O   O24       1.0  0.49281  0.60156  0.48545  1.0000
  O   O25       1.0  0.17022  0.62778  0.37904  1.0000
  O   O26       1.0  0.32978  0.87222  0.87904  1.0000
  O   O27       1.0  0.82978  0.37222  0.62096  1.0000
  O   O28       1.0  0.67022  0.12778  0.12096  1.0000
  O   O29       1.0  0.33599  0.44244  0.33984  1.0000
  O   O30       1.0  0.16400  0.05756  0.83984  1.0000
  O   O31       1.0  0.66400  0.55756  0.66016  1.0000
  O   O32       1.0  0.83599  0.94244  0.16016  1.0000
