data_image0
_chemical_formula_structural       Sm2H20C18S6N6O16
_chemical_formula_sum              "Sm2 H20 C18 S6 N6 O16"
_cell_length_a       8.58998
_cell_length_b       8.7377
_cell_length_c       11.3953
_cell_angle_alpha    105.444
_cell_angle_beta     96.9166
_cell_angle_gamma    94.4936

_space_group_name_H-M_alt    "P 1"
_space_group_IT_number       1

loop_
  _space_group_symop_operation_xyz
  'x, y, z'

loop_
  _atom_site_type_symbol
  _atom_site_label
  _atom_site_symmetry_multiplicity
  _atom_site_fract_x
  _atom_site_fract_y
  _atom_site_fract_z
  _atom_site_occupancy
  Sm  Sm1       1.0  0.54666  0.16395  0.41295  1.0000
  Sm  Sm2       1.0  0.45334  0.83604  0.58705  1.0000
  H   H1        1.0  0.02243  0.91612  0.21936  1.0000
  H   H2        1.0  0.97758  0.08389  0.78064  1.0000
  H   H3        1.0  0.94743  0.01223  0.35388  1.0000
  H   H4        1.0  0.05257  0.98778  0.64612  1.0000
  H   H5        1.0  0.56704  0.73721  0.15706  1.0000
  H   H6        1.0  0.43296  0.26278  0.84294  1.0000
  H   H7        1.0  0.37187  0.79086  0.16548  1.0000
  H   H8        1.0  0.62814  0.20912  0.83452  1.0000
  H   H9        1.0  0.63874  0.27300  0.06060  1.0000
  H   H10       1.0  0.36128  0.72704  0.93942  1.0000
  H   H11       1.0  0.60132  0.06528  0.98148  1.0000
  H   H12       1.0  0.39866  0.93477  0.01851  1.0000
  H   H13       1.0  0.76682  0.41727  0.33756  1.0000
  H   H14       1.0  0.23319  0.58272  0.66245  1.0000
  H   H15       1.0  0.70451  0.51271  0.46164  1.0000
  H   H16       1.0  0.29550  0.48727  0.53838  1.0000
  H   H17       1.0  0.25965  0.27643  0.33654  1.0000
  H   H18       1.0  0.74034  0.72356  0.66348  1.0000
  H   H19       1.0  0.37082  0.44329  0.35797  1.0000
  H   H20       1.0  0.62917  0.55670  0.64204  1.0000
  C   C1        1.0  0.98332  0.58537  0.22494  1.0000
  C   C2        1.0  0.01669  0.41464  0.77506  1.0000
  C   C3        1.0  0.18814  0.49161  0.13363  1.0000
  C   C4        1.0  0.81186  0.50839  0.86637  1.0000
  C   C5        1.0  0.96629  0.32551  0.11539  1.0000
  C   C6        1.0  0.03370  0.67449  0.88459  1.0000
  C   C7        1.0  0.01450  0.91360  0.31419  1.0000
  C   C8        1.0  0.98550  0.08641  0.68580  1.0000
  C   C9        1.0  0.18012  0.94299  0.38701  1.0000
  C   C10       1.0  0.81987  0.05701  0.61299  1.0000
  C   C11       1.0  0.45402  0.70866  0.18720  1.0000
  C   C12       1.0  0.54599  0.29132  0.81280  1.0000
  C   C13       1.0  0.47976  0.74058  0.32543  1.0000
  C   C14       1.0  0.52026  0.25941  0.67457  1.0000
  C   C15       1.0  0.66993  0.15385  0.06211  1.0000
  C   C16       1.0  0.33006  0.84618  0.93789  1.0000
  C   C17       1.0  0.62563  0.12173  0.17841  1.0000
  C   C18       1.0  0.37436  0.87828  0.82159  1.0000
  S   S1        1.0  0.38214  0.50627  0.10230  1.0000
  S   S2        1.0  0.61787  0.49372  0.89771  1.0000
  S   S3        1.0  0.88958  0.73676  0.31106  1.0000
  S   S4        1.0  0.11042  0.26324  0.68893  1.0000
  S   S5        1.0  0.87007  0.13720  0.03736  1.0000
  S   S6        1.0  0.12992  0.86281  0.96264  1.0000
  N   N1        1.0  0.12694  0.61965  0.19685  1.0000
  N   N2        1.0  0.87307  0.38036  0.80315  1.0000
  N   N3        1.0  0.11312  0.34386  0.08703  1.0000
  N   N4        1.0  0.88687  0.65616  0.91294  1.0000
  N   N5        1.0  0.89907  0.43835  0.19187  1.0000
  N   N6        1.0  0.10094  0.56166  0.80812  1.0000
  O   O1        1.0  0.27111  0.04823  0.36152  1.0000
  O   O2        1.0  0.72890  0.95176  0.63849  1.0000
  O   O3        1.0  0.21557  0.86869  0.46602  1.0000
  O   O4        1.0  0.78442  0.13130  0.53399  1.0000
  O   O5        1.0  0.53694  0.88222  0.38917  1.0000
  O   O6        1.0  0.46308  0.11776  0.61083  1.0000
  O   O7        1.0  0.44320  0.63614  0.37873  1.0000
  O   O8        1.0  0.55681  0.36385  0.62127  1.0000
  O   O9        1.0  0.72838  0.09964  0.26026  1.0000
  O   O10       1.0  0.27159  0.90034  0.73972  1.0000
  O   O11       1.0  0.47967  0.12391  0.19167  1.0000
  O   O12       1.0  0.52032  0.87611  0.80833  1.0000
  O   O13       1.0  0.70198  0.40764  0.40125  1.0000
  O   O14       1.0  0.29802  0.59236  0.59875  1.0000
  O   O15       1.0  0.34187  0.35391  0.39320  1.0000
  O   O16       1.0  0.65813  0.64609  0.60682  1.0000
