data_image0
_chemical_formula_structural       Zn4H36C56N8O16
_chemical_formula_sum              "Zn4 H36 C56 N8 O16"
_cell_length_a       9.16627
_cell_length_b       10.7666
_cell_length_c       14.8301
_cell_angle_alpha    90
_cell_angle_beta     90
_cell_angle_gamma    108.123

_space_group_name_H-M_alt    "P 1"
_space_group_IT_number       1

loop_
  _space_group_symop_operation_xyz
  'x, y, z'

loop_
  _atom_site_type_symbol
  _atom_site_label
  _atom_site_symmetry_multiplicity
  _atom_site_fract_x
  _atom_site_fract_y
  _atom_site_fract_z
  _atom_site_occupancy
  Zn  Zn1       1.0  0.35897  0.88783  0.00186  1.0000
  Zn  Zn2       1.0  0.14104  0.61217  0.50186  1.0000
  Zn  Zn3       1.0  0.64103  0.11217  0.99814  1.0000
  Zn  Zn4       1.0  0.85897  0.38782  0.49814  1.0000
  H   H1        1.0  0.64867  0.43230  0.08558  1.0000
  H   H2        1.0  0.85133  0.06770  0.58558  1.0000
  H   H3        1.0  0.35132  0.56770  0.91443  1.0000
  H   H4        1.0  0.14867  0.93230  0.41442  1.0000
  H   H5        1.0  0.19285  0.66190  0.12289  1.0000
  H   H6        1.0  0.30715  0.83809  0.62289  1.0000
  H   H7        1.0  0.80715  0.33809  0.87711  1.0000
  H   H8        1.0  0.69285  0.16190  0.37711  1.0000
  H   H9        1.0  0.36701  0.47502  0.69692  1.0000
  H   H10       1.0  0.13299  0.02498  0.19692  1.0000
  H   H11       1.0  0.63299  0.52498  0.30309  1.0000
  H   H12       1.0  0.86701  0.97502  0.80308  1.0000
  H   H13       1.0  0.92294  0.51382  0.14272  1.0000
  H   H14       1.0  0.57706  0.98618  0.64272  1.0000
  H   H15       1.0  0.07706  0.48617  0.85728  1.0000
  H   H16       1.0  0.42294  0.01383  0.35728  1.0000
  H   H17       1.0  0.50364  0.37112  0.80791  1.0000
  H   H18       1.0  0.99636  0.12888  0.30791  1.0000
  H   H19       1.0  0.49636  0.62888  0.19209  1.0000
  H   H20       1.0  0.00364  0.87112  0.69208  1.0000
  H   H21       1.0  0.09393  0.04573  0.83324  1.0000
  H   H22       1.0  0.40607  0.45427  0.33324  1.0000
  H   H23       1.0  0.90607  0.95427  0.16676  1.0000
  H   H24       1.0  0.59393  0.54573  0.66676  1.0000
  H   H25       1.0  0.95849  0.15091  0.72302  1.0000
  H   H26       1.0  0.54151  0.34909  0.22302  1.0000
  H   H27       1.0  0.04151  0.84909  0.27699  1.0000
  H   H28       1.0  0.45849  0.65091  0.77698  1.0000
  H   H29       1.0  0.79632  0.70115  0.91117  1.0000
  H   H30       1.0  0.70368  0.79885  0.41117  1.0000
  H   H31       1.0  0.20368  0.29885  0.08883  1.0000
  H   H32       1.0  0.29632  0.20115  0.58883  1.0000
  H   H33       1.0  0.07236  0.84043  0.90041  1.0000
  H   H34       1.0  0.42764  0.65957  0.40041  1.0000
  H   H35       1.0  0.92764  0.15956  0.09959  1.0000
  H   H36       1.0  0.57236  0.34043  0.59959  1.0000
  C   C1        1.0  0.15675  0.31879  0.70345  1.0000
  C   C2        1.0  0.34324  0.18121  0.20345  1.0000
  C   C3        1.0  0.84324  0.68121  0.29655  1.0000
  C   C4        1.0  0.65676  0.81879  0.79654  1.0000
  C   C5        1.0  0.30639  0.20072  0.82559  1.0000
  C   C6        1.0  0.19361  0.29928  0.32558  1.0000
  C   C7        1.0  0.69361  0.79928  0.17442  1.0000
  C   C8        1.0  0.80639  0.70072  0.67442  1.0000
  C   C9        1.0  0.10085  0.66693  0.07779  1.0000
  C   C10       1.0  0.39915  0.83307  0.57779  1.0000
  C   C11       1.0  0.89915  0.33307  0.92221  1.0000
  C   C12       1.0  0.60085  0.16693  0.42221  1.0000
  C   C13       1.0  0.30985  0.38090  0.72781  1.0000
  C   C14       1.0  0.19015  0.11910  0.22781  1.0000
  C   C15       1.0  0.69015  0.61910  0.27219  1.0000
  C   C16       1.0  0.80985  0.88091  0.77219  1.0000
  C   C17       1.0  0.38453  0.13478  0.89032  1.0000
  C   C18       1.0  0.11547  0.36522  0.39032  1.0000
  C   C19       1.0  0.61547  0.86521  0.10968  1.0000
  C   C20       1.0  0.88454  0.63479  0.60968  1.0000
  C   C21       1.0  0.95081  0.58510  0.08813  1.0000
  C   C22       1.0  0.54919  0.91490  0.58813  1.0000
  C   C23       1.0  0.04920  0.41490  0.91187  1.0000
  C   C24       1.0  0.45080  0.08510  0.41186  1.0000
  C   C25       1.0  0.38479  0.32294  0.78835  1.0000
  C   C26       1.0  0.11521  0.17706  0.28835  1.0000
  C   C27       1.0  0.61521  0.67706  0.21165  1.0000
  C   C28       1.0  0.88480  0.82294  0.71165  1.0000
  C   C29       1.0  0.83699  0.59665  0.02844  1.0000
  C   C30       1.0  0.66300  0.90335  0.52844  1.0000
  C   C31       1.0  0.16301  0.40335  0.97156  1.0000
  C   C32       1.0  0.33699  0.09666  0.47156  1.0000
  C   C33       1.0  0.15260  0.13959  0.80224  1.0000
  C   C34       1.0  0.34740  0.36041  0.30224  1.0000
  C   C35       1.0  0.84740  0.86041  0.19776  1.0000
  C   C36       1.0  0.65260  0.63959  0.69776  1.0000
  C   C37       1.0  0.08269  0.38188  0.63464  1.0000
  C   C38       1.0  0.41732  0.11812  0.13464  1.0000
  C   C39       1.0  0.91732  0.61813  0.36536  1.0000
  C   C40       1.0  0.58269  0.88188  0.86536  1.0000
  C   C41       1.0  0.07789  0.19774  0.74168  1.0000
  C   C42       1.0  0.42211  0.30226  0.24168  1.0000
  C   C43       1.0  0.92211  0.80226  0.25832  1.0000
  C   C44       1.0  0.57789  0.69774  0.75832  1.0000
  C   C45       1.0  0.67754  0.51490  0.03825  1.0000
  C   C46       1.0  0.82246  0.98509  0.53825  1.0000
  C   C47       1.0  0.32246  0.48509  0.96175  1.0000
  C   C48       1.0  0.17754  0.01491  0.46175  1.0000
  C   C49       1.0  0.88115  0.68992  0.95911  1.0000
  C   C50       1.0  0.61886  0.81008  0.45911  1.0000
  C   C51       1.0  0.11886  0.31008  0.04089  1.0000
  C   C52       1.0  0.38114  0.18992  0.54089  1.0000
  C   C53       1.0  0.03295  0.76675  0.95284  1.0000
  C   C54       1.0  0.46705  0.73325  0.45284  1.0000
  C   C55       1.0  0.96705  0.23325  0.04717  1.0000
  C   C56       1.0  0.53295  0.26675  0.54716  1.0000
  N   N1        1.0  0.57260  0.54162  0.99067  1.0000
  N   N2        1.0  0.92739  0.95838  0.49067  1.0000
  N   N3        1.0  0.42740  0.45838  0.00933  1.0000
  N   N4        1.0  0.07260  0.04162  0.50933  1.0000
  N   N5        1.0  0.14159  0.75644  0.01142  1.0000
  N   N6        1.0  0.35842  0.74356  0.51142  1.0000
  N   N7        1.0  0.85842  0.24355  0.98858  1.0000
  N   N8        1.0  0.64158  0.25644  0.48858  1.0000
  O   O1        1.0  0.94864  0.31737  0.60727  1.0000
  O   O2        1.0  0.55137  0.18263  0.10728  1.0000
  O   O3        1.0  0.05136  0.68263  0.39272  1.0000
  O   O4        1.0  0.44865  0.81737  0.89273  1.0000
  O   O5        1.0  0.52169  0.19716  0.91323  1.0000
  O   O6        1.0  0.97830  0.30283  0.41324  1.0000
  O   O7        1.0  0.47831  0.80283  0.08677  1.0000
  O   O8        1.0  0.02169  0.69717  0.58677  1.0000
  O   O9        1.0  0.16225  0.49510  0.60829  1.0000
  O   O10       1.0  0.33776  0.00490  0.10829  1.0000
  O   O11       1.0  0.83775  0.50490  0.39171  1.0000
  O   O12       1.0  0.66225  0.99510  0.89171  1.0000
  O   O13       1.0  0.30651  0.02102  0.91689  1.0000
  O   O14       1.0  0.19349  0.47898  0.41689  1.0000
  O   O15       1.0  0.69349  0.97898  0.08311  1.0000
  O   O16       1.0  0.80651  0.52102  0.58310  1.0000
