data_image0
_chemical_formula_structural       Cd2H60C54N16O12
_chemical_formula_sum              "Cd2 H60 C54 N16 O12"
_cell_length_a       9.2235
_cell_length_b       11.5635
_cell_length_c       14.347
_cell_angle_alpha    79.581
_cell_angle_beta     80.792
_cell_angle_gamma    78.0317

_space_group_name_H-M_alt    "P 1"
_space_group_IT_number       1

loop_
  _space_group_symop_operation_xyz
  'x, y, z'

loop_
  _atom_site_type_symbol
  _atom_site_label
  _atom_site_symmetry_multiplicity
  _atom_site_fract_x
  _atom_site_fract_y
  _atom_site_fract_z
  _atom_site_occupancy
  Cd  Cd1       1.0  0.51893  0.71257  0.74749  1.0000
  Cd  Cd2       1.0  0.48107  0.28743  0.25251  1.0000
  H   H1        1.0  0.26944  0.56909  0.74230  1.0000
  H   H2        1.0  0.73056  0.43092  0.25770  1.0000
  H   H3        1.0  0.93656  0.76794  0.56563  1.0000
  H   H4        1.0  0.06344  0.23206  0.43436  1.0000
  H   H5        1.0  0.08410  0.93522  0.53046  1.0000
  H   H6        1.0  0.91589  0.06478  0.46954  1.0000
  H   H7        1.0  0.31527  0.91106  0.60603  1.0000
  H   H8        1.0  0.68473  0.08894  0.39397  1.0000
  H   H9        1.0  0.90831  0.56204  0.65612  1.0000
  H   H10       1.0  0.09169  0.43796  0.34388  1.0000
  H   H11       1.0  0.91293  0.36688  0.69585  1.0000
  H   H12       1.0  0.08707  0.63312  0.30416  1.0000
  H   H13       1.0  0.23528  0.23239  0.65801  1.0000
  H   H14       1.0  0.76472  0.76761  0.34199  1.0000
  H   H15       1.0  0.11642  0.29690  0.56994  1.0000
  H   H16       1.0  0.88357  0.70310  0.43006  1.0000
  H   H17       1.0  0.96630  0.34383  0.86276  1.0000
  H   H18       1.0  0.03371  0.65617  0.13724  1.0000
  H   H19       1.0  0.14810  0.26237  0.83179  1.0000
  H   H20       1.0  0.85191  0.73763  0.16821  1.0000
  H   H21       1.0  0.93568  0.16127  0.64374  1.0000
  H   H22       1.0  0.06432  0.83873  0.35626  1.0000
  H   H23       1.0  0.11618  0.07876  0.61335  1.0000
  H   H24       1.0  0.88381  0.92124  0.38665  1.0000
  H   H25       1.0  0.16365  0.04554  0.78270  1.0000
  H   H26       1.0  0.83634  0.95446  0.21730  1.0000
  H   H27       1.0  0.97213  0.12310  0.90802  1.0000
  H   H28       1.0  0.02788  0.87691  0.09198  1.0000
  H   H29       1.0  0.84733  0.18915  0.82460  1.0000
  H   H30       1.0  0.15267  0.81085  0.17540  1.0000
  H   H31       1.0  0.11102  0.87068  0.87078  1.0000
  H   H32       1.0  0.88898  0.12932  0.12922  1.0000
  H   H33       1.0  0.03916  0.69149  0.97641  1.0000
  H   H34       1.0  0.96084  0.30851  0.02359  1.0000
  H   H35       1.0  0.87018  0.53804  0.01804  1.0000
  H   H36       1.0  0.12981  0.46196  0.98196  1.0000
  H   H37       1.0  0.67044  0.55044  0.91838  1.0000
  H   H38       1.0  0.32956  0.44956  0.08162  1.0000
  H   H39       1.0  0.77771  0.86245  0.75009  1.0000
  H   H40       1.0  0.22229  0.13755  0.24991  1.0000
  H   H41       1.0  0.53272  0.42020  0.81790  1.0000
  H   H42       1.0  0.46728  0.57980  0.18210  1.0000
  H   H43       1.0  0.64402  0.24116  0.57040  1.0000
  H   H44       1.0  0.35598  0.75884  0.42960  1.0000
  H   H45       1.0  0.69301  0.43777  0.47245  1.0000
  H   H46       1.0  0.30699  0.56223  0.52755  1.0000
  H   H47       1.0  0.65451  0.61633  0.55419  1.0000
  H   H48       1.0  0.34548  0.38367  0.44581  1.0000
  H   H49       1.0  0.56783  0.12656  0.72132  1.0000
  H   H50       1.0  0.43217  0.87344  0.27867  1.0000
  H   H51       1.0  0.49555  0.01507  0.85706  1.0000
  H   H52       1.0  0.50446  0.98493  0.14293  1.0000
  H   H53       1.0  0.26722  0.12539  0.94365  1.0000
  H   H54       1.0  0.73279  0.87461  0.05634  1.0000
  H   H55       1.0  0.37834  0.16053  0.02055  1.0000
  H   H56       1.0  0.62166  0.83947  0.97945  1.0000
  H   H57       1.0  0.66395  0.09271  0.99577  1.0000
  H   H58       1.0  0.33606  0.90729  0.00423  1.0000
  H   H59       1.0  0.74358  0.01276  0.90007  1.0000
  H   H60       1.0  0.25642  0.98724  0.09993  1.0000
  C   C1        1.0  0.22559  0.64926  0.69494  1.0000
  C   C2        1.0  0.77441  0.35074  0.30506  1.0000
  C   C3        1.0  0.09557  0.65410  0.65452  1.0000
  C   C4        1.0  0.90444  0.34590  0.34547  1.0000
  C   C5        1.0  0.04003  0.75971  0.59615  1.0000
  C   C6        1.0  0.95997  0.24029  0.40385  1.0000
  C   C7        1.0  0.11977  0.85290  0.57766  1.0000
  C   C8        1.0  0.88023  0.14710  0.42234  1.0000
  C   C9        1.0  0.24988  0.84011  0.61906  1.0000
  C   C10       1.0  0.75012  0.15989  0.38093  1.0000
  C   C11       1.0  0.02550  0.54806  0.67056  1.0000
  C   C12       1.0  0.97450  0.45194  0.32944  1.0000
  C   C13       1.0  0.03055  0.34151  0.71148  1.0000
  C   C14       1.0  0.96945  0.65849  0.28852  1.0000
  C   C15       1.0  0.11743  0.25382  0.64485  1.0000
  C   C16       1.0  0.88257  0.74618  0.35515  1.0000
  C   C17       1.0  0.03177  0.28120  0.81578  1.0000
  C   C18       1.0  0.96824  0.71880  0.18422  1.0000
  C   C19       1.0  0.05125  0.14021  0.66135  1.0000
  C   C20       1.0  0.94875  0.85979  0.33865  1.0000
  C   C21       1.0  0.04759  0.07824  0.76554  1.0000
  C   C22       1.0  0.95240  0.92176  0.23447  1.0000
  C   C23       1.0  0.96669  0.16705  0.83359  1.0000
  C   C24       1.0  0.03331  0.83295  0.16641  1.0000
  C   C25       1.0  0.00895  0.88490  0.83576  1.0000
  C   C26       1.0  0.99105  0.11510  0.16424  1.0000
  C   C27       1.0  0.92107  0.78840  0.85912  1.0000
  C   C28       1.0  0.07893  0.21160  0.14088  1.0000
  C   C29       1.0  0.94833  0.69513  0.93498  1.0000
  C   C30       1.0  0.05166  0.30487  0.06502  1.0000
  C   C31       1.0  0.85668  0.60959  0.95766  1.0000
  C   C32       1.0  0.14332  0.39041  0.04235  1.0000
  C   C33       1.0  0.74325  0.61648  0.90266  1.0000
  C   C34       1.0  0.25675  0.38352  0.09734  1.0000
  C   C35       1.0  0.80304  0.78969  0.80821  1.0000
  C   C36       1.0  0.19696  0.21031  0.19179  1.0000
  C   C37       1.0  0.56805  0.42144  0.74150  1.0000
  C   C38       1.0  0.43195  0.57856  0.25850  1.0000
  C   C39       1.0  0.58503  0.31618  0.70161  1.0000
  C   C40       1.0  0.41497  0.68382  0.29839  1.0000
  C   C41       1.0  0.63045  0.32155  0.60321  1.0000
  C   C42       1.0  0.36955  0.67846  0.39679  1.0000
  C   C43       1.0  0.65767  0.42955  0.54904  1.0000
  C   C44       1.0  0.34233  0.57046  0.45096  1.0000
  C   C45       1.0  0.63699  0.52960  0.59407  1.0000
  C   C46       1.0  0.36301  0.47041  0.40593  1.0000
  C   C47       1.0  0.55694  0.20283  0.76034  1.0000
  C   C48       1.0  0.44306  0.79717  0.23966  1.0000
  C   C49       1.0  0.50655  0.07752  0.90476  1.0000
  C   C50       1.0  0.49345  0.92248  0.09524  1.0000
  C   C51       1.0  0.36818  0.09161  0.97938  1.0000
  C   C52       1.0  0.63183  0.90839  0.02062  1.0000
  C   C53       1.0  0.64661  0.02597  0.95487  1.0000
  C   C54       1.0  0.35339  0.97402  0.04513  1.0000
  N   N1        1.0  0.30087  0.73996  0.67762  1.0000
  N   N2        1.0  0.69913  0.26004  0.32238  1.0000
  N   N3        1.0  0.10101  0.44491  0.69746  1.0000
  N   N4        1.0  0.89899  0.55509  0.30254  1.0000
  N   N5        1.0  0.96489  0.98090  0.77983  1.0000
  N   N6        1.0  0.03511  0.01910  0.22017  1.0000
  N   N7        1.0  0.71779  0.70533  0.82853  1.0000
  N   N8        1.0  0.28221  0.29467  0.17147  1.0000
  N   N9        1.0  0.59231  0.52571  0.68886  1.0000
  N   N10       1.0  0.40769  0.47430  0.31114  1.0000
  N   N11       1.0  0.52429  0.19396  0.85099  1.0000
  N   N12       1.0  0.47571  0.80604  0.14901  1.0000
  N   N13       1.0  0.62800  0.90511  0.60940  1.0000
  N   N14       1.0  0.37200  0.09489  0.39060  1.0000
  N   N15       1.0  0.34157  0.67764  0.93385  1.0000
  N   N16       1.0  0.65843  0.32235  0.06615  1.0000
  O   O1        1.0  0.35929  0.78085  0.88750  1.0000
  O   O2        1.0  0.64070  0.21916  0.11250  1.0000
  O   O3        1.0  0.40232  0.58520  0.89444  1.0000
  O   O4        1.0  0.59768  0.41480  0.10556  1.0000
  O   O5        1.0  0.26591  0.66838  0.01408  1.0000
  O   O6        1.0  0.73410  0.33162  0.98592  1.0000
  O   O7        1.0  0.52685  0.92673  0.67990  1.0000
  O   O8        1.0  0.47317  0.07326  0.32011  1.0000
  O   O9        1.0  0.67315  0.79554  0.59661  1.0000
  O   O10       1.0  0.32685  0.20446  0.40338  1.0000
  O   O11       1.0  0.68224  0.98722  0.55611  1.0000
  O   O12       1.0  0.31776  0.01278  0.44390  1.0000
