data_image0
_chemical_formula_structural       Cu2H10C14I2N4O2
_chemical_formula_sum              "Cu2 H10 C14 I2 N4 O2"
_cell_length_a       4.1471
_cell_length_b       7.9109
_cell_length_c       12.727
_cell_angle_alpha    74.5568
_cell_angle_beta     83.8796
_cell_angle_gamma    80.0236

_space_group_name_H-M_alt    "P 1"
_space_group_IT_number       1

loop_
  _space_group_symop_operation_xyz
  'x, y, z'

loop_
  _atom_site_type_symbol
  _atom_site_label
  _atom_site_symmetry_multiplicity
  _atom_site_fract_x
  _atom_site_fract_y
  _atom_site_fract_z
  _atom_site_occupancy
  Cu  Cu1       1.0  0.28192  0.88945  0.02726  1.0000
  Cu  Cu2       1.0  0.71811  0.11055  0.97274  1.0000
  H   H1        1.0  0.61476  0.51470  0.12950  1.0000
  H   H2        1.0  0.38525  0.48530  0.87051  1.0000
  H   H3        1.0  0.80978  0.65012  0.41508  1.0000
  H   H4        1.0  0.19020  0.34989  0.58492  1.0000
  H   H5        1.0  0.87962  0.87631  0.23370  1.0000
  H   H6        1.0  0.12038  0.12370  0.76630  1.0000
  H   H7        1.0  0.77441  0.25592  0.50080  1.0000
  H   H8        1.0  0.22559  0.74408  0.49920  1.0000
  H   H9        1.0  0.29041  0.98733  0.32642  1.0000
  H   H10       1.0  0.70959  0.01267  0.67358  1.0000
  C   C1        1.0  0.43228  0.54582  0.19276  1.0000
  C   C2        1.0  0.56771  0.45418  0.80725  1.0000
  C   C3        1.0  0.38593  0.42189  0.29350  1.0000
  C   C4        1.0  0.61406  0.57811  0.70650  1.0000
  C   C5        1.0  0.98741  0.62007  0.35035  1.0000
  C   C6        1.0  0.01259  0.37993  0.64965  1.0000
  C   C7        1.0  0.02629  0.74480  0.25202  1.0000
  C   C8        1.0  0.97370  0.25520  0.74798  1.0000
  C   C9        1.0  0.64992  0.14495  0.50215  1.0000
  C   C10       1.0  0.35008  0.85505  0.49785  1.0000
  C   C11       1.0  0.53172  0.13278  0.40649  1.0000
  C   C12       1.0  0.46828  0.86722  0.59351  1.0000
  C   C13       1.0  0.38300  0.98979  0.40291  1.0000
  C   C14       1.0  0.61700  0.01021  0.59709  1.0000
  I   I1        1.0  0.83822  0.80271  0.92113  1.0000
  I   I2        1.0  0.16178  0.19728  0.07887  1.0000
  N   N1        1.0  0.25212  0.70698  0.17322  1.0000
  N   N2        1.0  0.74789  0.29302  0.82678  1.0000
  N   N3        1.0  0.16805  0.45743  0.37198  1.0000
  N   N4        1.0  0.83193  0.54257  0.62802  1.0000
  O   O1        1.0  0.57762  0.26097  0.30820  1.0000
  O   O2        1.0  0.42237  0.73903  0.69180  1.0000
