data_image0
_chemical_formula_structural       Cu4H28C44I4N8O4
_chemical_formula_sum              "Cu4 H28 C44 I4 N8 O4"
_cell_length_a       4.26608
_cell_length_b       13.8797
_cell_length_c       17.5914
_cell_angle_alpha    90.0003
_cell_angle_beta     90.0001
_cell_angle_gamma    97.5877

_space_group_name_H-M_alt    "P 1"
_space_group_IT_number       1

loop_
  _space_group_symop_operation_xyz
  'x, y, z'

loop_
  _atom_site_type_symbol
  _atom_site_label
  _atom_site_symmetry_multiplicity
  _atom_site_fract_x
  _atom_site_fract_y
  _atom_site_fract_z
  _atom_site_occupancy
  Cu  Cu1       1.0  0.82508  0.49142  0.55937  1.0000
  Cu  Cu2       1.0  0.67492  0.00858  0.05937  1.0000
  Cu  Cu3       1.0  0.17492  0.50858  0.44063  1.0000
  Cu  Cu4       1.0  0.32508  0.99142  0.94063  1.0000
  H   H1        1.0  0.48581  0.43285  0.70024  1.0000
  H   H2        1.0  0.01419  0.06715  0.20024  1.0000
  H   H3        1.0  0.51421  0.56715  0.29976  1.0000
  H   H4        1.0  0.98580  0.93285  0.79976  1.0000
  H   H5        1.0  0.21800  0.76560  0.84674  1.0000
  H   H6        1.0  0.28200  0.73440  0.34674  1.0000
  H   H7        1.0  0.78201  0.23440  0.15326  1.0000
  H   H8        1.0  0.71800  0.26560  0.65326  1.0000
  H   H9        1.0  0.58319  0.85506  0.75280  1.0000
  H   H10       1.0  0.91680  0.64494  0.25279  1.0000
  H   H11       1.0  0.41680  0.14494  0.24720  1.0000
  H   H12       1.0  0.08320  0.35506  0.74721  1.0000
  H   H13       1.0  0.61287  0.79397  0.62064  1.0000
  H   H14       1.0  0.88711  0.70602  0.12064  1.0000
  H   H15       1.0  0.38712  0.20603  0.37936  1.0000
  H   H16       1.0  0.11288  0.29397  0.87936  1.0000
  H   H17       1.0  0.25915  0.64598  0.57928  1.0000
  H   H18       1.0  0.24084  0.85401  0.07928  1.0000
  H   H19       1.0  0.74084  0.35402  0.42072  1.0000
  H   H20       1.0  0.75915  0.14598  0.92072  1.0000
  H   H21       1.0  0.31205  0.62713  0.91785  1.0000
  H   H22       1.0  0.18796  0.87287  0.41785  1.0000
  H   H23       1.0  0.68795  0.37287  0.08215  1.0000
  H   H24       1.0  0.81204  0.12713  0.58215  1.0000
  H   H25       1.0  0.66252  0.35172  0.94090  1.0000
  H   H26       1.0  0.83747  0.14827  0.44090  1.0000
  H   H27       1.0  0.33748  0.64828  0.05910  1.0000
  H   H28       1.0  0.16252  0.85172  0.55910  1.0000
  C   C1        1.0  0.64836  0.49588  0.71843  1.0000
  C   C2        1.0  0.85164  0.00411  0.21843  1.0000
  C   C3        1.0  0.35165  0.50411  0.28157  1.0000
  C   C4        1.0  0.14836  0.99589  0.78157  1.0000
  C   C5        1.0  0.65928  0.52744  0.79553  1.0000
  C   C6        1.0  0.84072  0.97256  0.29553  1.0000
  C   C7        1.0  0.34072  0.47256  0.20446  1.0000
  C   C8        1.0  0.15928  0.02744  0.70446  1.0000
  C   C9        1.0  0.02984  0.65523  0.76636  1.0000
  C   C10       1.0  0.47016  0.84477  0.26636  1.0000
  C   C11       1.0  0.97017  0.34476  0.23364  1.0000
  C   C12       1.0  0.52984  0.15523  0.73364  1.0000
  C   C13       1.0  0.22722  0.74065  0.78809  1.0000
  C   C14       1.0  0.27277  0.75935  0.28809  1.0000
  C   C15       1.0  0.77278  0.25935  0.21191  1.0000
  C   C16       1.0  0.72722  0.24065  0.71191  1.0000
  C   C17       1.0  0.42950  0.78984  0.73570  1.0000
  C   C18       1.0  0.07049  0.71016  0.23570  1.0000
  C   C19       1.0  0.57050  0.21016  0.26430  1.0000
  C   C20       1.0  0.92951  0.28984  0.76430  1.0000
  C   C21       1.0  0.44431  0.75576  0.66038  1.0000
  C   C22       1.0  0.05568  0.74424  0.16038  1.0000
  C   C23       1.0  0.55568  0.24424  0.33962  1.0000
  C   C24       1.0  0.94432  0.25576  0.83962  1.0000
  C   C25       1.0  0.24942  0.67357  0.63720  1.0000
  C   C26       1.0  0.25058  0.82643  0.13719  1.0000
  C   C27       1.0  0.75058  0.32643  0.36280  1.0000
  C   C28       1.0  0.74942  0.17357  0.86280  1.0000
  C   C29       1.0  0.03718  0.62277  0.68923  1.0000
  C   C30       1.0  0.46282  0.87723  0.18923  1.0000
  C   C31       1.0  0.96283  0.37723  0.31077  1.0000
  C   C32       1.0  0.53718  0.12277  0.81077  1.0000
  C   C33       1.0  0.39577  0.57224  0.95380  1.0000
  C   C34       1.0  0.10422  0.92776  0.45380  1.0000
  C   C35       1.0  0.60423  0.42776  0.04620  1.0000
  C   C36       1.0  0.89577  0.07224  0.54620  1.0000
  C   C37       1.0  0.48850  0.48841  0.92246  1.0000
  C   C38       1.0  0.01150  0.01159  0.42246  1.0000
  C   C39       1.0  0.51149  0.51159  0.07754  1.0000
  C   C40       1.0  0.98850  0.98841  0.57754  1.0000
  C   C41       1.0  0.59175  0.41631  0.96750  1.0000
  C   C42       1.0  0.90825  0.08369  0.46750  1.0000
  C   C43       1.0  0.40826  0.58369  0.03251  1.0000
  C   C44       1.0  0.09175  0.91631  0.53250  1.0000
  I   I1        1.0  0.26008  0.37434  0.54420  1.0000
  I   I2        1.0  0.23992  0.12566  0.04420  1.0000
  I   I3        1.0  0.73993  0.62566  0.45580  1.0000
  I   I4        1.0  0.76008  0.87434  0.95580  1.0000
  N   N1        1.0  0.83601  0.54173  0.66645  1.0000
  N   N2        1.0  0.66399  0.95827  0.16645  1.0000
  N   N3        1.0  0.16400  0.45827  0.33355  1.0000
  N   N4        1.0  0.33600  0.04173  0.83355  1.0000
  N   N5        1.0  0.84028  0.60486  0.81943  1.0000
  N   N6        1.0  0.65971  0.89514  0.31943  1.0000
  N   N7        1.0  0.15972  0.39514  0.18057  1.0000
  N   N8        1.0  0.34029  0.10486  0.68057  1.0000
  O   O1        1.0  0.46676  0.47001  0.84371  1.0000
  O   O2        1.0  0.03325  0.02999  0.34371  1.0000
  O   O3        1.0  0.53324  0.52999  0.15629  1.0000
  O   O4        1.0  0.96675  0.97001  0.65629  1.0000
