data_image0
_chemical_formula_structural       Cu4H40C20S8I4
_chemical_formula_sum              "Cu4 H40 C20 S8 I4"
_cell_length_a       8.32295
_cell_length_b       8.59572
_cell_length_c       12.3716
_cell_angle_alpha    90.0003
_cell_angle_beta     94.3946
_cell_angle_gamma    90.0006

_space_group_name_H-M_alt    "P 1"
_space_group_IT_number       1

loop_
  _space_group_symop_operation_xyz
  'x, y, z'

loop_
  _atom_site_type_symbol
  _atom_site_label
  _atom_site_symmetry_multiplicity
  _atom_site_fract_x
  _atom_site_fract_y
  _atom_site_fract_z
  _atom_site_occupancy
  Cu  Cu1       1.0  0.37343  0.41166  0.51650  1.0000
  Cu  Cu2       1.0  0.62658  0.91166  0.98350  1.0000
  Cu  Cu3       1.0  0.62658  0.58834  0.48350  1.0000
  Cu  Cu4       1.0  0.37343  0.08834  0.01650  1.0000
  H   H1        1.0  0.27290  0.00635  0.68181  1.0000
  H   H2        1.0  0.72711  0.50634  0.81820  1.0000
  H   H3        1.0  0.72711  0.99365  0.31820  1.0000
  H   H4        1.0  0.27290  0.49366  0.18180  1.0000
  H   H5        1.0  0.44224  0.00140  0.77855  1.0000
  H   H6        1.0  0.55775  0.50139  0.72145  1.0000
  H   H7        1.0  0.55776  0.99860  0.22145  1.0000
  H   H8        1.0  0.44225  0.49860  0.27855  1.0000
  H   H9        1.0  0.45793  0.09108  0.64862  1.0000
  H   H10       1.0  0.54207  0.59107  0.85139  1.0000
  H   H11       1.0  0.54208  0.90892  0.35139  1.0000
  H   H12       1.0  0.45793  0.40893  0.14861  1.0000
  H   H13       1.0  0.29267  0.57495  0.75923  1.0000
  H   H14       1.0  0.70732  0.07494  0.74077  1.0000
  H   H15       1.0  0.70732  0.42505  0.24076  1.0000
  H   H16       1.0  0.29268  0.92506  0.25923  1.0000
  H   H17       1.0  0.11420  0.59143  0.67196  1.0000
  H   H18       1.0  0.88579  0.09142  0.82804  1.0000
  H   H19       1.0  0.88578  0.40857  0.32804  1.0000
  H   H20       1.0  0.11421  0.90858  0.17196  1.0000
  H   H21       1.0  0.43964  0.29078  0.79512  1.0000
  H   H22       1.0  0.56036  0.79078  0.70488  1.0000
  H   H23       1.0  0.56036  0.70922  0.20488  1.0000
  H   H24       1.0  0.43964  0.20921  0.29512  1.0000
  H   H25       1.0  0.96541  0.42480  0.79653  1.0000
  H   H26       1.0  0.03459  0.92481  0.70348  1.0000
  H   H27       1.0  0.03459  0.57519  0.20347  1.0000
  H   H28       1.0  0.96541  0.07519  0.29653  1.0000
  H   H29       1.0  0.04522  0.59578  0.86046  1.0000
  H   H30       1.0  0.95478  0.09578  0.63955  1.0000
  H   H31       1.0  0.95477  0.40421  0.13955  1.0000
  H   H32       1.0  0.04522  0.90422  0.36045  1.0000
  H   H33       1.0  0.09115  0.37097  0.98446  1.0000
  H   H34       1.0  0.90885  0.87096  0.51555  1.0000
  H   H35       1.0  0.90885  0.62904  0.01555  1.0000
  H   H36       1.0  0.09114  0.12904  0.48445  1.0000
  H   H37       1.0  0.27978  0.44070  0.94577  1.0000
  H   H38       1.0  0.72022  0.94068  0.55423  1.0000
  H   H39       1.0  0.72023  0.55931  0.05423  1.0000
  H   H40       1.0  0.27978  0.05932  0.44576  1.0000
  C   C1        1.0  0.37881  0.07180  0.71446  1.0000
  C   C2        1.0  0.62119  0.57179  0.78555  1.0000
  C   C3        1.0  0.62119  0.92820  0.28555  1.0000
  C   C4        1.0  0.37882  0.42821  0.21445  1.0000
  C   C5        1.0  0.17951  0.51642  0.73212  1.0000
  C   C6        1.0  0.82049  0.01642  0.76789  1.0000
  C   C7        1.0  0.82049  0.48358  0.26788  1.0000
  C   C8        1.0  0.17951  0.98358  0.23211  1.0000
  C   C9        1.0  0.33245  0.22672  0.76205  1.0000
  C   C10       1.0  0.66755  0.72671  0.73796  1.0000
  C   C11       1.0  0.66755  0.77329  0.23795  1.0000
  C   C12       1.0  0.33245  0.27329  0.26204  1.0000
  C   C13       1.0  0.07805  0.48274  0.82628  1.0000
  C   C14       1.0  0.92195  0.98274  0.67372  1.0000
  C   C15       1.0  0.92195  0.51726  0.17372  1.0000
  C   C16       1.0  0.07805  0.01726  0.32628  1.0000
  C   C17       1.0  0.16540  0.38608  0.91552  1.0000
  C   C18       1.0  0.83461  0.88608  0.58448  1.0000
  C   C19       1.0  0.83461  0.61392  0.08448  1.0000
  C   C20       1.0  0.16539  0.11393  0.41552  1.0000
  S   S1        1.0  0.22413  0.34302  0.65652  1.0000
  S   S2        1.0  0.77586  0.84302  0.84349  1.0000
  S   S3        1.0  0.77587  0.65698  0.34348  1.0000
  S   S4        1.0  0.22413  0.15698  0.15651  1.0000
  S   S5        1.0  0.20669  0.18855  0.87340  1.0000
  S   S6        1.0  0.79331  0.68855  0.62660  1.0000
  S   S7        1.0  0.79331  0.81145  0.12660  1.0000
  S   S8        1.0  0.20670  0.31146  0.37340  1.0000
  I   I1        1.0  0.65804  0.28476  0.50818  1.0000
  I   I2        1.0  0.34196  0.78476  0.99182  1.0000
  I   I3        1.0  0.34196  0.71523  0.49182  1.0000
  I   I4        1.0  0.65805  0.21523  0.00818  1.0000
