data_image0
_chemical_formula_structural       K4B4H24C24N24O16
_chemical_formula_sum              "K4 B4 H24 C24 N24 O16"
_cell_length_a       6.1539
_cell_length_b       7.70294
_cell_length_c       23.068
_cell_angle_alpha    90.0023
_cell_angle_beta     90.0001
_cell_angle_gamma    92.8611

_space_group_name_H-M_alt    "P 1"
_space_group_IT_number       1

loop_
  _space_group_symop_operation_xyz
  'x, y, z'

loop_
  _atom_site_type_symbol
  _atom_site_label
  _atom_site_symmetry_multiplicity
  _atom_site_fract_x
  _atom_site_fract_y
  _atom_site_fract_z
  _atom_site_occupancy
  K   K1        1.0  0.80690  0.72882  0.44539  1.0000
  K   K2        1.0  0.19310  0.77125  0.94541  1.0000
  K   K3        1.0  0.19309  0.27120  0.55458  1.0000
  K   K4        1.0  0.80691  0.22880  0.05460  1.0000
  B   B1        1.0  0.23331  0.79300  0.37094  1.0000
  B   B2        1.0  0.76672  0.70696  0.87096  1.0000
  B   B3        1.0  0.76666  0.20695  0.62905  1.0000
  B   B4        1.0  0.23334  0.29304  0.12905  1.0000
  H   H1        1.0  0.36131  0.40124  0.40385  1.0000
  H   H2        1.0  0.63867  0.09875  0.90386  1.0000
  H   H3        1.0  0.63858  0.59874  0.59612  1.0000
  H   H4        1.0  0.36135  0.90124  0.09613  1.0000
  H   H5        1.0  0.09375  0.14275  0.35405  1.0000
  H   H6        1.0  0.90621  0.35720  0.85406  1.0000
  H   H7        1.0  0.90618  0.85717  0.64593  1.0000
  H   H8        1.0  0.09379  0.64279  0.14593  1.0000
  H   H9        1.0  0.60368  0.63115  0.19953  1.0000
  H   H10       1.0  0.39633  0.86887  0.69955  1.0000
  H   H11       1.0  0.39633  0.36889  0.80046  1.0000
  H   H12       1.0  0.60371  0.13113  0.30047  1.0000
  H   H13       1.0  0.24824  0.79376  0.24600  1.0000
  H   H14       1.0  0.75180  0.70625  0.74601  1.0000
  H   H15       1.0  0.75176  0.20625  0.75400  1.0000
  H   H16       1.0  0.24821  0.29373  0.25400  1.0000
  H   H17       1.0  0.05818  0.81257  0.34868  1.0000
  H   H18       1.0  0.94184  0.68739  0.84869  1.0000
  H   H19       1.0  0.94178  0.18737  0.65131  1.0000
  H   H20       1.0  0.05823  0.31263  0.15131  1.0000
  H   H21       1.0  0.22671  0.69818  0.41301  1.0000
  H   H22       1.0  0.77331  0.80181  0.91302  1.0000
  H   H23       1.0  0.77324  0.30179  0.58699  1.0000
  H   H24       1.0  0.22674  0.19820  0.08699  1.0000
  C   C1        1.0  0.54041  0.16570  0.42966  1.0000
  C   C2        1.0  0.45960  0.33432  0.92968  1.0000
  C   C3        1.0  0.45951  0.83431  0.57031  1.0000
  C   C4        1.0  0.54044  0.66569  0.07033  1.0000
  C   C5        1.0  0.37458  0.26163  0.40490  1.0000
  C   C6        1.0  0.62541  0.23837  0.90492  1.0000
  C   C7        1.0  0.62534  0.73835  0.59507  1.0000
  C   C8        1.0  0.37463  0.76163  0.09508  1.0000
  C   C9        1.0  0.24062  0.13334  0.37954  1.0000
  C   C10       1.0  0.75936  0.36663  0.87955  1.0000
  C   C11       1.0  0.75927  0.86661  0.62044  1.0000
  C   C12       1.0  0.24068  0.63335  0.12044  1.0000
  C   C13       1.0  0.66456  0.59115  0.29420  1.0000
  C   C14       1.0  0.33547  0.90883  0.79421  1.0000
  C   C15       1.0  0.33543  0.40883  0.70580  1.0000
  C   C16       1.0  0.66459  0.09119  0.20580  1.0000
  C   C17       1.0  0.55774  0.64855  0.24433  1.0000
  C   C18       1.0  0.44229  0.85145  0.74435  1.0000
  C   C19       1.0  0.44228  0.35144  0.75567  1.0000
  C   C20       1.0  0.55773  0.14856  0.25567  1.0000
  C   C21       1.0  0.37999  0.72875  0.26677  1.0000
  C   C22       1.0  0.62004  0.77126  0.76679  1.0000
  C   C23       1.0  0.62000  0.27124  0.73323  1.0000
  C   C24       1.0  0.37998  0.22875  0.23323  1.0000
  N   N1        1.0  0.32630  0.97595  0.39015  1.0000
  N   N2        1.0  0.67372  0.52403  0.89016  1.0000
  N   N3        1.0  0.67366  0.02405  0.60984  1.0000
  N   N4        1.0  0.32635  0.47597  0.10985  1.0000
  N   N5        1.0  0.51080  0.99317  0.42085  1.0000
  N   N6        1.0  0.48924  0.50684  0.92087  1.0000
  N   N7        1.0  0.48915  0.00683  0.57914  1.0000
  N   N8        1.0  0.51084  0.49317  0.07915  1.0000
  N   N9        1.0  0.72539  0.23013  0.46139  1.0000
  N   N10       1.0  0.27460  0.26990  0.96140  1.0000
  N   N11       1.0  0.27451  0.76991  0.53859  1.0000
  N   N12       1.0  0.72545  0.73011  0.03861  1.0000
  N   N13       1.0  0.38874  0.71678  0.32594  1.0000
  N   N14       1.0  0.61129  0.78320  0.82595  1.0000
  N   N15       1.0  0.61124  0.28318  0.67405  1.0000
  N   N16       1.0  0.38879  0.21680  0.17407  1.0000
  N   N17       1.0  0.56284  0.63235  0.34352  1.0000
  N   N18       1.0  0.43720  0.86760  0.84353  1.0000
  N   N19       1.0  0.43715  0.36760  0.65648  1.0000
  N   N20       1.0  0.56287  0.13241  0.15649  1.0000
  N   N21       1.0  0.85609  0.49449  0.29651  1.0000
  N   N22       1.0  0.14395  0.00551  0.79653  1.0000
  N   N23       1.0  0.14393  0.50550  0.70349  1.0000
  N   N24       1.0  0.85610  0.99452  0.20351  1.0000
  O   O1        1.0  0.87029  0.12858  0.47395  1.0000
  O   O2        1.0  0.12973  0.37149  0.97398  1.0000
  O   O3        1.0  0.12966  0.87152  0.52601  1.0000
  O   O4        1.0  0.87034  0.62853  0.02603  1.0000
  O   O5        1.0  0.73401  0.38670  0.47581  1.0000
  O   O6        1.0  0.26590  0.11333  0.97580  1.0000
  O   O7        1.0  0.26578  0.61335  0.52419  1.0000
  O   O8        1.0  0.73413  0.88669  0.02420  1.0000
  O   O9        1.0  0.91590  0.43627  0.34415  1.0000
  O   O10       1.0  0.08410  0.06369  0.84417  1.0000
  O   O11       1.0  0.08406  0.56371  0.65585  1.0000
  O   O12       1.0  0.91597  0.93628  0.15586  1.0000
  O   O13       1.0  0.95337  0.47158  0.24989  1.0000
  O   O14       1.0  0.04672  0.02843  0.74990  1.0000
  O   O15       1.0  0.04668  0.52843  0.75012  1.0000
  O   O16       1.0  0.95334  0.97160  0.25014  1.0000
