data_image0
_chemical_formula_structural       Gd4H36C64O36
_chemical_formula_sum              "Gd4 H36 C64 O36"
_cell_length_a       6.63009
_cell_length_b       13.0512
_cell_length_c       16.3958
_cell_angle_alpha    108.77
_cell_angle_beta     90
_cell_angle_gamma    90

_space_group_name_H-M_alt    "P 1"
_space_group_IT_number       1

loop_
  _space_group_symop_operation_xyz
  'x, y, z'

loop_
  _atom_site_type_symbol
  _atom_site_label
  _atom_site_symmetry_multiplicity
  _atom_site_fract_x
  _atom_site_fract_y
  _atom_site_fract_z
  _atom_site_occupancy
  Gd  Gd1       1.0  0.81459  0.52978  0.90672  1.0000
  Gd  Gd2       1.0  0.31459  0.47022  0.59328  1.0000
  Gd  Gd3       1.0  0.18541  0.47022  0.09328  1.0000
  Gd  Gd4       1.0  0.68541  0.52978  0.40672  1.0000
  H   H1        1.0  0.62538  0.88382  0.60151  1.0000
  H   H2        1.0  0.12538  0.11618  0.89849  1.0000
  H   H3        1.0  0.37462  0.11617  0.39849  1.0000
  H   H4        1.0  0.87462  0.88383  0.10151  1.0000
  H   H5        1.0  0.64801  0.04072  0.73523  1.0000
  H   H6        1.0  0.14801  0.95928  0.76477  1.0000
  H   H7        1.0  0.35198  0.95928  0.26477  1.0000
  H   H8        1.0  0.85198  0.04072  0.23523  1.0000
  H   H9        1.0  0.62766  0.81879  0.88131  1.0000
  H   H10       1.0  0.12766  0.18121  0.61869  1.0000
  H   H11       1.0  0.37234  0.18121  0.11869  1.0000
  H   H12       1.0  0.87234  0.81879  0.38130  1.0000
  H   H13       1.0  0.56552  0.15957  0.85356  1.0000
  H   H14       1.0  0.06551  0.84043  0.64644  1.0000
  H   H15       1.0  0.43449  0.84043  0.14644  1.0000
  H   H16       1.0  0.93449  0.15957  0.35356  1.0000
  H   H17       1.0  0.77782  0.92816  0.97211  1.0000
  H   H18       1.0  0.27782  0.07184  0.52790  1.0000
  H   H19       1.0  0.22218  0.07184  0.02790  1.0000
  H   H20       1.0  0.72218  0.92816  0.47210  1.0000
  H   H21       1.0  0.85597  0.07754  0.10396  1.0000
  H   H22       1.0  0.35597  0.92246  0.39604  1.0000
  H   H23       1.0  0.14403  0.92246  0.89604  1.0000
  H   H24       1.0  0.64403  0.07754  0.60396  1.0000
  H   H25       1.0  0.39704  0.44210  0.86087  1.0000
  H   H26       1.0  0.89704  0.55790  0.63913  1.0000
  H   H27       1.0  0.60296  0.55790  0.13913  1.0000
  H   H28       1.0  0.10296  0.44210  0.36087  1.0000
  H   H29       1.0  0.46474  0.48680  0.78560  1.0000
  H   H30       1.0  0.96474  0.51320  0.71440  1.0000
  H   H31       1.0  0.53526  0.51320  0.21440  1.0000
  H   H32       1.0  0.03526  0.48680  0.28560  1.0000
  H   H33       1.0  0.93398  0.32710  0.24517  1.0000
  H   H34       1.0  0.43398  0.67290  0.25483  1.0000
  H   H35       1.0  0.06602  0.67290  0.75483  1.0000
  H   H36       1.0  0.56602  0.32710  0.74517  1.0000
  C   C1        1.0  0.60810  0.74723  0.74549  1.0000
  C   C2        1.0  0.10809  0.25277  0.75451  1.0000
  C   C3        1.0  0.39191  0.25277  0.25451  1.0000
  C   C4        1.0  0.89191  0.74723  0.24549  1.0000
  C   C5        1.0  0.61007  0.76428  0.66490  1.0000
  C   C6        1.0  0.11007  0.23572  0.83510  1.0000
  C   C7        1.0  0.38993  0.23572  0.33510  1.0000
  C   C8        1.0  0.88993  0.76428  0.16490  1.0000
  C   C9        1.0  0.62186  0.87164  0.66412  1.0000
  C   C10       1.0  0.12186  0.12836  0.83588  1.0000
  C   C11       1.0  0.37814  0.12836  0.33588  1.0000
  C   C12       1.0  0.87814  0.87164  0.16412  1.0000
  C   C13       1.0  0.63427  0.95930  0.73935  1.0000
  C   C14       1.0  0.13427  0.04070  0.76066  1.0000
  C   C15       1.0  0.36573  0.04070  0.26066  1.0000
  C   C16       1.0  0.86573  0.95930  0.23935  1.0000
  C   C17       1.0  0.63904  0.94266  0.82003  1.0000
  C   C18       1.0  0.13904  0.05734  0.67997  1.0000
  C   C19       1.0  0.36096  0.05734  0.17997  1.0000
  C   C20       1.0  0.86096  0.94266  0.32003  1.0000
  C   C21       1.0  0.62561  0.83588  0.82066  1.0000
  C   C22       1.0  0.12561  0.16412  0.67934  1.0000
  C   C23       1.0  0.37439  0.16412  0.17934  1.0000
  C   C24       1.0  0.87439  0.83588  0.32066  1.0000
  C   C25       1.0  0.58948  0.64132  0.76273  1.0000
  C   C26       1.0  0.08948  0.35868  0.73727  1.0000
  C   C27       1.0  0.41052  0.35868  0.23727  1.0000
  C   C28       1.0  0.91052  0.64132  0.26273  1.0000
  C   C29       1.0  0.61835  0.67714  0.57946  1.0000
  C   C30       1.0  0.11835  0.32286  0.92054  1.0000
  C   C31       1.0  0.38165  0.32286  0.42054  1.0000
  C   C32       1.0  0.88165  0.67714  0.07946  1.0000
  C   C33       1.0  0.75803  0.20262  0.05413  1.0000
  C   C34       1.0  0.25803  0.79738  0.44587  1.0000
  C   C35       1.0  0.24198  0.79738  0.94587  1.0000
  C   C36       1.0  0.74197  0.20262  0.55413  1.0000
  C   C37       1.0  0.67129  0.22527  0.98340  1.0000
  C   C38       1.0  0.17129  0.77473  0.51660  1.0000
  C   C39       1.0  0.32871  0.77473  0.01660  1.0000
  C   C40       1.0  0.82871  0.22527  0.48340  1.0000
  C   C41       1.0  0.62853  0.14027  0.90824  1.0000
  C   C42       1.0  0.12853  0.85973  0.59176  1.0000
  C   C43       1.0  0.37147  0.85973  0.09176  1.0000
  C   C44       1.0  0.87147  0.14027  0.40824  1.0000
  C   C45       1.0  0.66780  0.03203  0.90158  1.0000
  C   C46       1.0  0.16779  0.96797  0.59842  1.0000
  C   C47       1.0  0.33221  0.96797  0.09842  1.0000
  C   C48       1.0  0.83221  0.03203  0.40158  1.0000
  C   C49       1.0  0.74426  0.01074  0.97459  1.0000
  C   C50       1.0  0.24425  0.98926  0.52541  1.0000
  C   C51       1.0  0.25575  0.98926  0.02541  1.0000
  C   C52       1.0  0.75574  0.01074  0.47459  1.0000
  C   C53       1.0  0.78841  0.09455  0.04924  1.0000
  C   C54       1.0  0.28841  0.90545  0.45076  1.0000
  C   C55       1.0  0.21159  0.90545  0.95076  1.0000
  C   C56       1.0  0.71159  0.09455  0.54924  1.0000
  C   C57       1.0  0.84034  0.29012  0.12827  1.0000
  C   C58       1.0  0.34034  0.70988  0.37173  1.0000
  C   C59       1.0  0.15966  0.70988  0.87173  1.0000
  C   C60       1.0  0.65966  0.29012  0.62827  1.0000
  C   C61       1.0  0.62620  0.33886  0.98415  1.0000
  C   C62       1.0  0.12621  0.66114  0.51585  1.0000
  C   C63       1.0  0.37379  0.66114  0.01585  1.0000
  C   C64       1.0  0.87379  0.33886  0.48415  1.0000
  O   O1        1.0  0.71354  0.62766  0.81695  1.0000
  O   O2        1.0  0.21354  0.37234  0.68305  1.0000
  O   O3        1.0  0.28647  0.37234  0.18305  1.0000
  O   O4        1.0  0.78646  0.62766  0.31695  1.0000
  O   O5        1.0  0.44584  0.57570  0.73001  1.0000
  O   O6        1.0  0.94583  0.42430  0.76999  1.0000
  O   O7        1.0  0.55417  0.42430  0.26999  1.0000
  O   O8        1.0  0.05417  0.57570  0.23001  1.0000
  O   O9        1.0  0.62884  0.57515  0.57295  1.0000
  O   O10       1.0  0.12884  0.42485  0.92705  1.0000
  O   O11       1.0  0.37116  0.42485  0.42705  1.0000
  O   O12       1.0  0.87116  0.57515  0.07295  1.0000
  O   O13       1.0  0.62723  0.70518  0.51262  1.0000
  O   O14       1.0  0.12723  0.29482  0.98738  1.0000
  O   O15       1.0  0.37277  0.29482  0.48738  1.0000
  O   O16       1.0  0.87278  0.70518  0.01262  1.0000
  O   O17       1.0  0.87937  0.26168  0.19721  1.0000
  O   O18       1.0  0.37937  0.73832  0.30279  1.0000
  O   O19       1.0  0.12063  0.73832  0.80279  1.0000
  O   O20       1.0  0.62063  0.26168  0.69721  1.0000
  O   O21       1.0  0.87515  0.38229  0.12462  1.0000
  O   O22       1.0  0.37515  0.61770  0.37538  1.0000
  O   O23       1.0  0.12485  0.61770  0.87538  1.0000
  O   O24       1.0  0.62485  0.38230  0.62462  1.0000
  O   O25       1.0  0.49035  0.39276  0.03296  1.0000
  O   O26       1.0  0.99034  0.60724  0.46704  1.0000
  O   O27       1.0  0.50966  0.60724  0.96704  1.0000
  O   O28       1.0  0.00965  0.39276  0.53296  1.0000
  O   O29       1.0  0.72603  0.37044  0.93053  1.0000
  O   O30       1.0  0.22603  0.62956  0.56947  1.0000
  O   O31       1.0  0.27397  0.62956  0.06947  1.0000
  O   O32       1.0  0.77397  0.37044  0.43053  1.0000
  O   O33       1.0  0.50677  0.43827  0.81949  1.0000
  O   O34       1.0  0.00677  0.56173  0.68051  1.0000
  O   O35       1.0  0.49323  0.56173  0.18051  1.0000
  O   O36       1.0  0.99323  0.43827  0.31949  1.0000
