data_image0
_chemical_formula_structural       Fe4Ag8H32C56N24Cl8
_chemical_formula_sum              "Fe4 Ag8 H32 C56 N24 Cl8"
_cell_length_a       9.09514
_cell_length_b       12.1537
_cell_length_c       15.9067
_cell_angle_alpha    90.0001
_cell_angle_beta     99.4716
_cell_angle_gamma    90.0001

_space_group_name_H-M_alt    "P 1"
_space_group_IT_number       1

loop_
  _space_group_symop_operation_xyz
  'x, y, z'

loop_
  _atom_site_type_symbol
  _atom_site_label
  _atom_site_symmetry_multiplicity
  _atom_site_fract_x
  _atom_site_fract_y
  _atom_site_fract_z
  _atom_site_occupancy
  Fe  Fe1       1.0  0.65180  0.49589  0.23800  1.0000
  Fe  Fe2       1.0  0.34820  0.99589  0.26200  1.0000
  Fe  Fe3       1.0  0.34819  0.50411  0.76200  1.0000
  Fe  Fe4       1.0  0.65181  0.00411  0.73801  1.0000
  Ag  Ag1       1.0  0.73492  0.27911  0.97810  1.0000
  Ag  Ag2       1.0  0.26508  0.77911  0.52189  1.0000
  Ag  Ag3       1.0  0.26509  0.72089  0.02190  1.0000
  Ag  Ag4       1.0  0.73492  0.22089  0.47811  1.0000
  Ag  Ag5       1.0  0.57512  0.72981  0.49370  1.0000
  Ag  Ag6       1.0  0.42488  0.22981  0.00630  1.0000
  Ag  Ag7       1.0  0.42488  0.27019  0.50630  1.0000
  Ag  Ag8       1.0  0.57511  0.77019  0.99370  1.0000
  H   H1        1.0  0.41380  0.47144  0.08559  1.0000
  H   H2        1.0  0.58620  0.97144  0.41441  1.0000
  H   H3        1.0  0.58620  0.52856  0.91441  1.0000
  H   H4        1.0  0.41381  0.02856  0.58559  1.0000
  H   H5        1.0  0.04255  0.31517  0.17668  1.0000
  H   H6        1.0  0.95745  0.81517  0.32332  1.0000
  H   H7        1.0  0.95745  0.68483  0.82331  1.0000
  H   H8        1.0  0.04255  0.18483  0.67668  1.0000
  H   H9        1.0  0.19631  0.32111  0.32435  1.0000
  H   H10       1.0  0.80369  0.82110  0.17565  1.0000
  H   H11       1.0  0.80369  0.67890  0.67565  1.0000
  H   H12       1.0  0.19631  0.17889  0.82435  1.0000
  H   H13       1.0  0.44885  0.40392  0.34398  1.0000
  H   H14       1.0  0.55114  0.90392  0.15602  1.0000
  H   H15       1.0  0.55114  0.59608  0.65601  1.0000
  H   H16       1.0  0.44886  0.09607  0.84398  1.0000
  H   H17       1.0  0.89375  0.49293  0.38824  1.0000
  H   H18       1.0  0.10625  0.99293  0.11176  1.0000
  H   H19       1.0  0.10624  0.50707  0.61176  1.0000
  H   H20       1.0  0.89376  0.00707  0.88824  1.0000
  H   H21       1.0  0.27852  0.64165  0.30687  1.0000
  H   H22       1.0  0.72148  0.14165  0.19312  1.0000
  H   H23       1.0  0.72148  0.35835  0.69312  1.0000
  H   H24       1.0  0.27852  0.85834  0.80688  1.0000
  H   H25       1.0  0.11904  0.67177  0.16401  1.0000
  H   H26       1.0  0.88096  0.17177  0.33599  1.0000
  H   H27       1.0  0.88096  0.32823  0.83599  1.0000
  H   H28       1.0  0.11904  0.82823  0.66401  1.0000
  H   H29       1.0  0.85653  0.60296  0.13921  1.0000
  H   H30       1.0  0.14347  0.10296  0.36079  1.0000
  H   H31       1.0  0.14346  0.39704  0.86079  1.0000
  H   H32       1.0  0.85654  0.89704  0.63921  1.0000
  C   C1        1.0  0.36204  0.43782  0.13693  1.0000
  C   C2        1.0  0.63796  0.93782  0.36307  1.0000
  C   C3        1.0  0.63796  0.56219  0.86307  1.0000
  C   C4        1.0  0.36205  0.06219  0.63693  1.0000
  C   C5        1.0  0.21851  0.39356  0.12197  1.0000
  C   C6        1.0  0.78148  0.89355  0.37803  1.0000
  C   C7        1.0  0.78148  0.60645  0.87803  1.0000
  C   C8        1.0  0.21852  0.10645  0.62197  1.0000
  C   C9        1.0  0.15439  0.34998  0.18847  1.0000
  C   C10       1.0  0.84561  0.84998  0.31153  1.0000
  C   C11       1.0  0.84561  0.65002  0.81153  1.0000
  C   C12       1.0  0.15440  0.15002  0.68847  1.0000
  C   C13       1.0  0.23895  0.35395  0.26947  1.0000
  C   C14       1.0  0.76104  0.85394  0.23053  1.0000
  C   C15       1.0  0.76104  0.64606  0.73052  1.0000
  C   C16       1.0  0.23896  0.14605  0.76948  1.0000
  C   C17       1.0  0.38082  0.39987  0.28126  1.0000
  C   C18       1.0  0.61917  0.89987  0.21874  1.0000
  C   C19       1.0  0.61917  0.60013  0.71874  1.0000
  C   C20       1.0  0.38083  0.10012  0.78126  1.0000
  C   C21       1.0  0.94674  0.53181  0.33961  1.0000
  C   C22       1.0  0.05326  0.03181  0.16039  1.0000
  C   C23       1.0  0.05326  0.46819  0.66039  1.0000
  C   C24       1.0  0.94674  0.96819  0.83961  1.0000
  C   C25       1.0  0.09666  0.56171  0.35603  1.0000
  C   C26       1.0  0.90334  0.06171  0.14397  1.0000
  C   C27       1.0  0.90334  0.43829  0.64397  1.0000
  C   C28       1.0  0.09666  0.93828  0.85604  1.0000
  C   C29       1.0  0.16241  0.61553  0.29428  1.0000
  C   C30       1.0  0.83759  0.11553  0.20572  1.0000
  C   C31       1.0  0.83759  0.38447  0.70572  1.0000
  C   C32       1.0  0.16242  0.88447  0.79428  1.0000
  C   C33       1.0  0.07357  0.63136  0.21518  1.0000
  C   C34       1.0  0.92643  0.13136  0.28482  1.0000
  C   C35       1.0  0.92643  0.36864  0.78482  1.0000
  C   C36       1.0  0.07357  0.86863  0.71519  1.0000
  C   C37       1.0  0.92708  0.59457  0.20081  1.0000
  C   C38       1.0  0.07292  0.09457  0.29919  1.0000
  C   C39       1.0  0.07292  0.40543  0.79919  1.0000
  C   C40       1.0  0.92709  0.90543  0.70081  1.0000
  C   C41       1.0  0.58947  0.63575  0.38888  1.0000
  C   C42       1.0  0.41053  0.13575  0.11111  1.0000
  C   C43       1.0  0.41052  0.36425  0.61112  1.0000
  C   C44       1.0  0.58947  0.86425  0.88888  1.0000
  C   C45       1.0  0.58534  0.67158  0.09918  1.0000
  C   C46       1.0  0.41466  0.17158  0.40082  1.0000
  C   C47       1.0  0.41466  0.32842  0.90082  1.0000
  C   C48       1.0  0.58534  0.82842  0.59918  1.0000
  C   C49       1.0  0.72770  0.36207  0.08839  1.0000
  C   C50       1.0  0.27230  0.86207  0.41161  1.0000
  C   C51       1.0  0.27231  0.63793  0.91161  1.0000
  C   C52       1.0  0.72770  0.13793  0.58839  1.0000
  C   C53       1.0  0.72647  0.31353  0.37031  1.0000
  C   C54       1.0  0.27353  0.81353  0.12969  1.0000
  C   C55       1.0  0.27352  0.68647  0.62969  1.0000
  C   C56       1.0  0.72648  0.18647  0.87031  1.0000
  N   N1        1.0  0.44265  0.44047  0.21620  1.0000
  N   N2        1.0  0.55734  0.94047  0.28380  1.0000
  N   N3        1.0  0.55734  0.55953  0.78380  1.0000
  N   N4        1.0  0.44266  0.05953  0.71620  1.0000
  N   N5        1.0  0.86275  0.54713  0.26238  1.0000
  N   N6        1.0  0.13725  0.04714  0.23762  1.0000
  N   N7        1.0  0.13725  0.45287  0.73762  1.0000
  N   N8        1.0  0.86275  0.95287  0.76238  1.0000
  N   N9        1.0  0.70134  0.37958  0.31606  1.0000
  N   N10       1.0  0.29866  0.87958  0.18395  1.0000
  N   N11       1.0  0.29865  0.62042  0.68394  1.0000
  N   N12       1.0  0.70135  0.12042  0.81606  1.0000
  N   N13       1.0  0.60271  0.60948  0.15653  1.0000
  N   N14       1.0  0.39729  0.10948  0.34347  1.0000
  N   N15       1.0  0.39729  0.39052  0.84347  1.0000
  N   N16       1.0  0.60271  0.89052  0.65653  1.0000
  N   N17       1.0  0.70026  0.40941  0.14816  1.0000
  N   N18       1.0  0.29974  0.90941  0.35184  1.0000
  N   N19       1.0  0.29973  0.59059  0.85184  1.0000
  N   N20       1.0  0.70027  0.09059  0.64816  1.0000
  N   N21       1.0  0.60776  0.58452  0.32894  1.0000
  N   N22       1.0  0.39224  0.08452  0.17106  1.0000
  N   N23       1.0  0.39224  0.41548  0.67106  1.0000
  N   N24       1.0  0.60776  0.91548  0.82894  1.0000
  Cl  Cl1       1.0  0.12050  0.39111  0.01962  1.0000
  Cl  Cl2       1.0  0.87950  0.89111  0.48038  1.0000
  Cl  Cl3       1.0  0.87950  0.60889  0.98038  1.0000
  Cl  Cl4       1.0  0.12051  0.10889  0.51962  1.0000
  Cl  Cl5       1.0  0.20125  0.52455  0.45248  1.0000
  Cl  Cl6       1.0  0.79875  0.02455  0.04752  1.0000
  Cl  Cl7       1.0  0.79874  0.47545  0.54752  1.0000
  Cl  Cl8       1.0  0.20125  0.97545  0.95249  1.0000
