data_image0
_chemical_formula_structural       Sr2Zn2H36C28N4O28
_chemical_formula_sum              "Sr2 Zn2 H36 C28 N4 O28"
_cell_length_a       7.08182
_cell_length_b       9.86591
_cell_length_c       16.6723
_cell_angle_alpha    81.5387
_cell_angle_beta     77.7335
_cell_angle_gamma    68.9494

_space_group_name_H-M_alt    "P 1"
_space_group_IT_number       1

loop_
  _space_group_symop_operation_xyz
  'x, y, z'

loop_
  _atom_site_type_symbol
  _atom_site_label
  _atom_site_symmetry_multiplicity
  _atom_site_fract_x
  _atom_site_fract_y
  _atom_site_fract_z
  _atom_site_occupancy
  Sr  Sr1       1.0  0.47911  0.25014  0.75004  1.0000
  Sr  Sr2       1.0  0.52089  0.74986  0.24997  1.0000
  Zn  Zn1       1.0  1.00000  0.50000  0.50000  1.0000
  Zn  Zn2       1.0  0.00000  1.00000  1.00000  1.0000
  H   H1        1.0  0.27391  0.02390  0.81936  1.0000
  H   H2        1.0  0.11684  0.47634  0.68057  1.0000
  H   H3        1.0  0.72610  0.97610  0.18063  1.0000
  H   H4        1.0  0.88316  0.52366  0.31943  1.0000
  H   H5        1.0  0.13572  0.09848  0.75089  1.0000
  H   H6        1.0  0.98485  0.40166  0.74899  1.0000
  H   H7        1.0  0.86428  0.90152  0.24912  1.0000
  H   H8        1.0  0.01515  0.59834  0.25101  1.0000
  H   H9        1.0  0.83940  0.99502  0.73550  1.0000
  H   H10       1.0  0.56980  0.50502  0.76460  1.0000
  H   H11       1.0  0.16060  0.00498  0.26450  1.0000
  H   H12       1.0  0.43020  0.49498  0.23540  1.0000
  H   H13       1.0  0.79266  0.02263  0.82805  1.0000
  H   H14       1.0  0.64297  0.47764  0.67201  1.0000
  H   H15       1.0  0.20734  0.97737  0.17195  1.0000
  H   H16       1.0  0.35703  0.52236  0.32799  1.0000
  H   H17       1.0  0.88292  0.03184  0.41336  1.0000
  H   H18       1.0  0.32842  0.46816  0.08646  1.0000
  H   H19       1.0  0.11707  0.96816  0.58664  1.0000
  H   H20       1.0  0.67160  0.53184  0.91354  1.0000
  H   H21       1.0  0.51857  0.97446  0.65006  1.0000
  H   H22       1.0  0.14241  0.52569  0.84998  1.0000
  H   H23       1.0  0.48142  0.02554  0.34994  1.0000
  H   H24       1.0  0.85759  0.47430  0.15002  1.0000
  H   H25       1.0  0.27361  0.58680  0.55457  1.0000
  H   H26       1.0  0.41502  0.91339  0.94547  1.0000
  H   H27       1.0  0.72639  0.41321  0.44543  1.0000
  H   H28       1.0  0.58499  0.08661  0.05453  1.0000
  H   H29       1.0  0.33809  0.41123  0.57472  1.0000
  H   H30       1.0  0.32371  0.08897  0.92529  1.0000
  H   H31       1.0  0.66190  0.58878  0.42528  1.0000
  H   H32       1.0  0.67630  0.91102  0.07471  1.0000
  H   H33       1.0  0.65722  0.70685  0.63473  1.0000
  H   H34       1.0  0.99828  0.79327  0.86529  1.0000
  H   H35       1.0  0.34278  0.29315  0.36527  1.0000
  H   H36       1.0  0.00173  0.20671  0.13470  1.0000
  C   C1        1.0  0.90548  0.81216  0.46095  1.0000
  C   C2        1.0  0.17872  0.68787  0.03894  1.0000
  C   C3        1.0  0.09451  0.18784  0.53905  1.0000
  C   C4        1.0  0.82130  0.31213  0.96105  1.0000
  C   C5        1.0  0.83239  0.96246  0.46376  1.0000
  C   C6        1.0  0.25868  0.53756  0.03612  1.0000
  C   C7        1.0  0.16759  0.03754  0.53624  1.0000
  C   C8        1.0  0.74132  0.46244  0.96388  1.0000
  C   C9        1.0  0.69344  0.02423  0.53254  1.0000
  C   C10       1.0  0.24995  0.47582  0.96742  1.0000
  C   C11       1.0  0.30655  0.97577  0.46746  1.0000
  C   C12       1.0  0.75005  0.52418  0.03258  1.0000
  C   C13       1.0  0.63035  0.93181  0.59578  1.0000
  C   C14       1.0  0.15738  0.56828  0.90425  1.0000
  C   C15       1.0  0.36965  0.06820  0.40422  1.0000
  C   C16       1.0  0.84262  0.43171  0.09575  1.0000
  C   C17       1.0  0.70785  0.78177  0.58770  1.0000
  C   C18       1.0  0.07698  0.71833  0.91230  1.0000
  C   C19       1.0  0.29214  0.21824  0.41230  1.0000
  C   C20       1.0  0.92302  0.28167  0.08770  1.0000
  C   C21       1.0  0.06527  0.74064  0.39023  1.0000
  C   C22       1.0  0.19662  0.75924  0.10963  1.0000
  C   C23       1.0  0.93472  0.25937  0.60977  1.0000
  C   C24       1.0  0.80339  0.24075  0.89037  1.0000
  C   C25       1.0  0.61455  0.18860  0.53412  1.0000
  C   C26       1.0  0.33703  0.31147  0.96578  1.0000
  C   C27       1.0  0.38546  0.81140  0.46587  1.0000
  C   C28       1.0  0.66298  0.68853  0.03423  1.0000
  N   N1        1.0  0.84333  0.72323  0.52188  1.0000
  N   N2        1.0  0.08844  0.77686  0.97805  1.0000
  N   N3        1.0  0.15667  0.27677  0.47812  1.0000
  N   N4        1.0  0.91156  0.22314  0.02195  1.0000
  O   O1        1.0  0.27508  0.07000  0.76207  1.0000
  O   O2        1.0  0.10669  0.43035  0.73789  1.0000
  O   O3        1.0  0.72493  0.93000  0.23793  1.0000
  O   O4        1.0  0.89330  0.56964  0.26211  1.0000
  O   O5        1.0  0.74141  0.98924  0.78586  1.0000
  O   O6        1.0  0.51623  0.51096  0.71427  1.0000
  O   O7        1.0  0.25859  0.01076  0.21414  1.0000
  O   O8        1.0  0.48377  0.48904  0.28573  1.0000
  O   O9        1.0  0.13648  0.60072  0.39516  1.0000
  O   O10       1.0  0.13243  0.89916  0.10480  1.0000
  O   O11       1.0  0.86351  0.39929  0.60484  1.0000
  O   O12       1.0  0.86758  0.10084  0.89520  1.0000
  O   O13       1.0  0.12350  0.82061  0.33148  1.0000
  O   O14       1.0  0.27671  0.67919  0.16824  1.0000
  O   O15       1.0  0.87650  0.17939  0.66851  1.0000
  O   O16       1.0  0.72329  0.32081  0.83176  1.0000
  O   O17       1.0  0.48743  0.24299  0.59796  1.0000
  O   O18       1.0  0.32746  0.25717  0.90204  1.0000
  O   O19       1.0  0.51257  0.75701  0.40204  1.0000
  O   O20       1.0  0.67252  0.74282  0.09796  1.0000
  O   O21       1.0  0.67851  0.25934  0.47209  1.0000
  O   O22       1.0  0.41016  0.24065  0.02771  1.0000
  O   O23       1.0  0.32148  0.74067  0.52791  1.0000
  O   O24       1.0  0.58985  0.75935  0.97229  1.0000
  O   O25       1.0  0.21817  0.50486  0.57355  1.0000
  O   O26       1.0  0.29657  0.99524  0.92646  1.0000
  O   O27       1.0  0.78182  0.49515  0.42645  1.0000
  O   O28       1.0  0.70345  0.00476  0.07354  1.0000
