data_image0
_chemical_formula_structural       Cd4H40C44N8O24
_chemical_formula_sum              "Cd4 H40 C44 N8 O24"
_cell_length_a       7.96614
_cell_length_b       12.0768
_cell_length_c       13.3127
_cell_angle_alpha    91.0295
_cell_angle_beta     89.9997
_cell_angle_gamma    89.9996

_space_group_name_H-M_alt    "P 1"
_space_group_IT_number       1

loop_
  _space_group_symop_operation_xyz
  'x, y, z'

loop_
  _atom_site_type_symbol
  _atom_site_label
  _atom_site_symmetry_multiplicity
  _atom_site_fract_x
  _atom_site_fract_y
  _atom_site_fract_z
  _atom_site_occupancy
  Cd  Cd1       1.0  0.99503  0.75004  0.05367  1.0000
  Cd  Cd2       1.0  0.49503  0.74996  0.44633  1.0000
  Cd  Cd3       1.0  0.00498  0.24996  0.94633  1.0000
  Cd  Cd4       1.0  0.50497  0.25004  0.55367  1.0000
  H   H1        1.0  0.81391  0.95786  0.06020  1.0000
  H   H2        1.0  0.31390  0.54214  0.43980  1.0000
  H   H3        1.0  0.18610  0.04213  0.93979  1.0000
  H   H4        1.0  0.68609  0.45787  0.56021  1.0000
  H   H5        1.0  0.30819  0.08563  0.08187  1.0000
  H   H6        1.0  0.80818  0.41437  0.41813  1.0000
  H   H7        1.0  0.69182  0.91437  0.91813  1.0000
  H   H8        1.0  0.19181  0.58563  0.58187  1.0000
  H   H9        1.0  0.47994  0.99371  0.08737  1.0000
  H   H10       1.0  0.97994  0.50629  0.41263  1.0000
  H   H11       1.0  0.52006  0.00629  0.91263  1.0000
  H   H12       1.0  0.02006  0.49371  0.58737  1.0000
  H   H13       1.0  0.06037  0.12774  0.21642  1.0000
  H   H14       1.0  0.56037  0.37226  0.28358  1.0000
  H   H15       1.0  0.93963  0.87226  0.78358  1.0000
  H   H16       1.0  0.43963  0.62774  0.71643  1.0000
  H   H17       1.0  0.80506  0.08076  0.32094  1.0000
  H   H18       1.0  0.30506  0.41924  0.17905  1.0000
  H   H19       1.0  0.19494  0.91924  0.67905  1.0000
  H   H20       1.0  0.69494  0.58076  0.82095  1.0000
  H   H21       1.0  0.09114  0.81547  0.45396  1.0000
  H   H22       1.0  0.59114  0.68453  0.04604  1.0000
  H   H23       1.0  0.90885  0.18453  0.54604  1.0000
  H   H24       1.0  0.40886  0.31547  0.95396  1.0000
  H   H25       1.0  0.82173  0.92045  0.43820  1.0000
  H   H26       1.0  0.32172  0.57955  0.06180  1.0000
  H   H27       1.0  0.17828  0.07955  0.56180  1.0000
  H   H28       1.0  0.67828  0.42045  0.93820  1.0000
  H   H29       1.0  0.55495  0.14234  0.20936  1.0000
  H   H30       1.0  0.05495  0.35766  0.29064  1.0000
  H   H31       1.0  0.44505  0.85767  0.79064  1.0000
  H   H32       1.0  0.94505  0.64234  0.70936  1.0000
  H   H33       1.0  0.35082  0.19813  0.22120  1.0000
  H   H34       1.0  0.85082  0.30187  0.27880  1.0000
  H   H35       1.0  0.64917  0.80187  0.77880  1.0000
  H   H36       1.0  0.14917  0.69813  0.72120  1.0000
  H   H37       1.0  0.73708  0.88798  0.15097  1.0000
  H   H38       1.0  0.23708  0.61202  0.34903  1.0000
  H   H39       1.0  0.26292  0.11202  0.84903  1.0000
  H   H40       1.0  0.76292  0.38798  0.65097  1.0000
  C   C1        1.0  0.24088  0.91354  0.07581  1.0000
  C   C2        1.0  0.74088  0.58645  0.42419  1.0000
  C   C3        1.0  0.75913  0.08645  0.92419  1.0000
  C   C4        1.0  0.25912  0.41355  0.57581  1.0000
  C   C5        1.0  0.35093  0.00776  0.11461  1.0000
  C   C6        1.0  0.85093  0.49224  0.38539  1.0000
  C   C7        1.0  0.64908  0.99224  0.88539  1.0000
  C   C8        1.0  0.14907  0.50776  0.61461  1.0000
  C   C9        1.0  0.36263  0.02076  0.22932  1.0000
  C   C10       1.0  0.86263  0.47924  0.27068  1.0000
  C   C11       1.0  0.63737  0.97924  0.77068  1.0000
  C   C12       1.0  0.13737  0.52076  0.72932  1.0000
  C   C13       1.0  0.05785  0.06109  0.27079  1.0000
  C   C14       1.0  0.55786  0.43891  0.22921  1.0000
  C   C15       1.0  0.94215  0.93891  0.72921  1.0000
  C   C16       1.0  0.44215  0.56109  0.77079  1.0000
  C   C17       1.0  0.92033  0.03357  0.32796  1.0000
  C   C18       1.0  0.42032  0.46643  0.17204  1.0000
  C   C19       1.0  0.07968  0.96643  0.67204  1.0000
  C   C20       1.0  0.57968  0.53356  0.82796  1.0000
  C   C21       1.0  0.47002  0.16797  0.36148  1.0000
  C   C22       1.0  0.97002  0.33203  0.13852  1.0000
  C   C23       1.0  0.52998  0.83204  0.63852  1.0000
  C   C24       1.0  0.02998  0.66797  0.86148  1.0000
  C   C25       1.0  0.46850  0.92812  0.27694  1.0000
  C   C26       1.0  0.96849  0.57188  0.22306  1.0000
  C   C27       1.0  0.53150  0.07188  0.72306  1.0000
  C   C28       1.0  0.03151  0.42812  0.77694  1.0000
  C   C29       1.0  0.43757  0.13608  0.25210  1.0000
  C   C30       1.0  0.93756  0.36392  0.24791  1.0000
  C   C31       1.0  0.56243  0.86392  0.74791  1.0000
  C   C32       1.0  0.06243  0.63608  0.75210  1.0000
  C   C33       1.0  0.21805  0.91749  0.34716  1.0000
  C   C34       1.0  0.71805  0.58251  0.15284  1.0000
  C   C35       1.0  0.78195  0.08251  0.65284  1.0000
  C   C36       1.0  0.28195  0.41749  0.84716  1.0000
  C   C37       1.0  0.07892  0.88501  0.40355  1.0000
  C   C38       1.0  0.57891  0.61499  0.09645  1.0000
  C   C39       1.0  0.92108  0.11499  0.59645  1.0000
  C   C40       1.0  0.42109  0.38500  0.90355  1.0000
  C   C41       1.0  0.93061  0.94379  0.39376  1.0000
  C   C42       1.0  0.43061  0.55621  0.10624  1.0000
  C   C43       1.0  0.06939  0.05622  0.60624  1.0000
  C   C44       1.0  0.56939  0.44378  0.89376  1.0000
  N   N1        1.0  0.20137  0.00286  0.28130  1.0000
  N   N2        1.0  0.70136  0.49714  0.21869  1.0000
  N   N3        1.0  0.79863  0.99714  0.71869  1.0000
  N   N4        1.0  0.29864  0.50286  0.78131  1.0000
  N   N5        1.0  0.37614  0.87511  0.34697  1.0000
  N   N6        1.0  0.87614  0.62489  0.15302  1.0000
  N   N7        1.0  0.62386  0.12489  0.65303  1.0000
  N   N8        1.0  0.12386  0.37511  0.84698  1.0000
  O   O1        1.0  0.17319  0.92188  0.98969  1.0000
  O   O2        1.0  0.67318  0.57812  0.51031  1.0000
  O   O3        1.0  0.82683  0.07812  0.01030  1.0000
  O   O4        1.0  0.32681  0.42188  0.48969  1.0000
  O   O5        1.0  0.21825  0.83082  0.13226  1.0000
  O   O6        1.0  0.71825  0.66918  0.36774  1.0000
  O   O7        1.0  0.78175  0.16918  0.86774  1.0000
  O   O8        1.0  0.28175  0.33082  0.63226  1.0000
  O   O9        1.0  0.79385  0.88033  0.08498  1.0000
  O   O10       1.0  0.29384  0.61967  0.41502  1.0000
  O   O11       1.0  0.20616  0.11967  0.91502  1.0000
  O   O12       1.0  0.70615  0.38033  0.58498  1.0000
  O   O13       1.0  0.61691  0.90811  0.25574  1.0000
  O   O14       1.0  0.11691  0.59189  0.24426  1.0000
  O   O15       1.0  0.38309  0.09189  0.74426  1.0000
  O   O16       1.0  0.88309  0.40811  0.75574  1.0000
  O   O17       1.0  0.59645  0.23047  0.37988  1.0000
  O   O18       1.0  0.09645  0.26953  0.12012  1.0000
  O   O19       1.0  0.40355  0.76953  0.62012  1.0000
  O   O20       1.0  0.90355  0.73047  0.87988  1.0000
  O   O21       1.0  0.36878  0.13680  0.42903  1.0000
  O   O22       1.0  0.86877  0.36319  0.07097  1.0000
  O   O23       1.0  0.63122  0.86320  0.57097  1.0000
  O   O24       1.0  0.13122  0.63680  0.92903  1.0000
