data_image0
_chemical_formula_structural       V2Cd2P4H28C24O18
_chemical_formula_sum              "V2 Cd2 P4 H28 C24 O18"
_cell_length_a       6.97662
_cell_length_b       8.86613
_cell_length_c       14.7463
_cell_angle_alpha    72.5478
_cell_angle_beta     86.4775
_cell_angle_gamma    78.0339

_space_group_name_H-M_alt    "P 1"
_space_group_IT_number       1

loop_
  _space_group_symop_operation_xyz
  'x, y, z'

loop_
  _atom_site_type_symbol
  _atom_site_label
  _atom_site_symmetry_multiplicity
  _atom_site_fract_x
  _atom_site_fract_y
  _atom_site_fract_z
  _atom_site_occupancy
  V   V1        1.0  0.29583  0.75717  0.99202  1.0000
  V   V2        1.0  0.79575  0.74916  0.00816  1.0000
  Cd  Cd1       1.0  0.07144  0.27608  0.95409  1.0000
  Cd  Cd2       1.0  0.57180  0.22994  0.04569  1.0000
  P   P1        1.0  0.50741  0.06022  0.88024  1.0000
  P   P2        1.0  0.00785  0.94078  0.11978  1.0000
  P   P3        1.0  0.64006  0.56600  0.87993  1.0000
  P   P4        1.0  0.14077  0.44596  0.11988  1.0000
  H   H1        1.0  0.28905  0.34390  0.74287  1.0000
  H   H2        1.0  0.78916  0.08732  0.25729  1.0000
  H   H3        1.0  0.30542  0.44196  0.56716  1.0000
  H   H4        1.0  0.80598  0.00953  0.43298  1.0000
  H   H5        1.0  0.56691  0.30447  0.47961  1.0000
  H   H6        1.0  0.06770  0.78453  0.52049  1.0000
  H   H7        1.0  0.81201  0.06763  0.56909  1.0000
  H   H8        1.0  0.31321  0.63790  0.43087  1.0000
  H   H9        1.0  0.78780  0.96163  0.74492  1.0000
  H   H10       1.0  0.28901  0.70817  0.25500  1.0000
  H   H11       1.0  0.13126  0.05386  0.85394  1.0000
  H   H12       1.0  0.63184  0.90800  0.14679  1.0000
  H   H13       1.0  0.90442  0.08367  0.87515  1.0000
  H   H14       1.0  0.40502  0.95886  0.12550  1.0000
  H   H15       1.0  0.24395  0.54397  0.87384  1.0000
  H   H16       1.0  0.74517  0.41677  0.12646  1.0000
  H   H17       1.0  0.01455  0.59936  0.85979  1.0000
  H   H18       1.0  0.51606  0.45831  0.14075  1.0000
  H   H19       1.0  0.36410  0.80225  0.74338  1.0000
  H   H20       1.0  0.86517  0.54630  0.25589  1.0000
  H   H21       1.0  0.34977  0.87978  0.56705  1.0000
  H   H22       1.0  0.85015  0.44809  0.43224  1.0000
  H   H23       1.0  0.60306  0.73916  0.47759  1.0000
  H   H24       1.0  0.10258  0.21750  0.52204  1.0000
  H   H25       1.0  0.86336  0.51348  0.56567  1.0000
  H   H26       1.0  0.36265  0.07897  0.43438  1.0000
  H   H27       1.0  0.86986  0.42793  0.74172  1.0000
  H   H28       1.0  0.36984  0.16905  0.25831  1.0000
  C   C1        1.0  0.53684  0.14574  0.75476  1.0000
  C   C2        1.0  0.03741  0.90147  0.24525  1.0000
  C   C3        1.0  0.40144  0.28167  0.70470  1.0000
  C   C4        1.0  0.90186  0.98707  0.29538  1.0000
  C   C5        1.0  0.41215  0.33744  0.60590  1.0000
  C   C6        1.0  0.91285  0.94401  0.39419  1.0000
  C   C7        1.0  0.55928  0.26059  0.55695  1.0000
  C   C8        1.0  0.06017  0.81831  0.44313  1.0000
  C   C9        1.0  0.69633  0.12718  0.60705  1.0000
  C   C10       1.0  0.19741  0.73538  0.39296  1.0000
  C   C11       1.0  0.68439  0.06829  0.70575  1.0000
  C   C12       1.0  0.18546  0.77540  0.29425  1.0000
  C   C13       1.0  0.61793  0.61065  0.75359  1.0000
  C   C14       1.0  0.11855  0.36431  0.24615  1.0000
  C   C15       1.0  0.47100  0.73740  0.70425  1.0000
  C   C16       1.0  0.97171  0.44221  0.29525  1.0000
  C   C17       1.0  0.46465  0.78171  0.60524  1.0000
  C   C18       1.0  0.96499  0.38783  0.39424  1.0000
  C   C19       1.0  0.60638  0.70233  0.55513  1.0000
  C   C20       1.0  0.10623  0.25804  0.44452  1.0000
  C   C21       1.0  0.75277  0.57606  0.60443  1.0000
  C   C22       1.0  0.25249  0.18056  0.39545  1.0000
  C   C23       1.0  0.75797  0.52860  0.70346  1.0000
  C   C24       1.0  0.25817  0.23190  0.29644  1.0000
  O   O1        1.0  0.40726  0.19238  0.92490  1.0000
  O   O2        1.0  0.90767  0.11746  0.07489  1.0000
  O   O3        1.0  0.37661  0.93473  0.88821  1.0000
  O   O4        1.0  0.87696  0.82317  0.11195  1.0000
  O   O5        1.0  0.71295  0.97949  0.92530  1.0000
  O   O6        1.0  0.21344  0.90464  0.07500  1.0000
  O   O7        1.0  0.07239  0.77833  0.95128  1.0000
  O   O8        1.0  0.57263  0.72938  0.04902  1.0000
  O   O9        1.0  0.01388  0.14014  0.84952  1.0000
  O   O10       1.0  0.51446  0.99000  0.15102  1.0000
  O   O11       1.0  0.12818  0.51709  0.85095  1.0000
  O   O12       1.0  0.62944  0.36709  0.14938  1.0000
  O   O13       1.0  0.73517  0.38784  0.92382  1.0000
  O   O14       1.0  0.23574  0.31178  0.07586  1.0000
  O   O15       1.0  0.43225  0.60180  0.92230  1.0000
  O   O16       1.0  0.93280  0.52410  0.07751  1.0000
  O   O17       1.0  0.77156  0.67962  0.89321  1.0000
  O   O18       1.0  0.27224  0.57274  0.10689  1.0000
