data_image0
_chemical_formula_structural       Cd2H52C74N8O8
_chemical_formula_sum              "Cd2 H52 C74 N8 O8"
_cell_length_a       10.9553
_cell_length_b       10.9553
_cell_length_c       13.2232
_cell_angle_alpha    91.8207
_cell_angle_beta     91.8207
_cell_angle_gamma    101.965

_space_group_name_H-M_alt    "P 1"
_space_group_IT_number       1

loop_
  _space_group_symop_operation_xyz
  'x, y, z'

loop_
  _atom_site_type_symbol
  _atom_site_label
  _atom_site_symmetry_multiplicity
  _atom_site_fract_x
  _atom_site_fract_y
  _atom_site_fract_z
  _atom_site_occupancy
  Cd  Cd1       1.0  0.29653  0.70347  0.75000  1.0000
  Cd  Cd2       1.0  0.70347  0.29653  0.25000  1.0000
  H   H1        1.0  0.49038  0.96659  0.69681  1.0000
  H   H2        1.0  0.03341  0.50962  0.80319  1.0000
  H   H3        1.0  0.50962  0.03341  0.30319  1.0000
  H   H4        1.0  0.96659  0.49038  0.19681  1.0000
  H   H5        1.0  0.67613  0.02451  0.59236  1.0000
  H   H6        1.0  0.97549  0.32388  0.90764  1.0000
  H   H7        1.0  0.32388  0.97549  0.40764  1.0000
  H   H8        1.0  0.02451  0.67612  0.09236  1.0000
  H   H9        1.0  0.54351  0.67804  0.41851  1.0000
  H   H10       1.0  0.32196  0.45649  0.08149  1.0000
  H   H11       1.0  0.45649  0.32196  0.58149  1.0000
  H   H12       1.0  0.67804  0.54351  0.91851  1.0000
  H   H13       1.0  0.36595  0.63338  0.53336  1.0000
  H   H14       1.0  0.36662  0.63405  0.96664  1.0000
  H   H15       1.0  0.63405  0.36662  0.46664  1.0000
  H   H16       1.0  0.63338  0.36595  0.03336  1.0000
  H   H17       1.0  0.77884  0.08129  0.45561  1.0000
  H   H18       1.0  0.91871  0.22116  0.04439  1.0000
  H   H19       1.0  0.22116  0.91871  0.54439  1.0000
  H   H20       1.0  0.08129  0.77884  0.95561  1.0000
  H   H21       1.0  0.96135  0.11888  0.35194  1.0000
  H   H22       1.0  0.88112  0.03865  0.14806  1.0000
  H   H23       1.0  0.03865  0.88112  0.64806  1.0000
  H   H24       1.0  0.11888  0.96135  0.85194  1.0000
  H   H25       1.0  0.90691  0.72186  0.28287  1.0000
  H   H26       1.0  0.27814  0.09309  0.21713  1.0000
  H   H27       1.0  0.09309  0.27814  0.71713  1.0000
  H   H28       1.0  0.72186  0.90691  0.78287  1.0000
  H   H29       1.0  0.73160  0.68346  0.39315  1.0000
  H   H30       1.0  0.31654  0.26840  0.10685  1.0000
  H   H31       1.0  0.26840  0.31654  0.60685  1.0000
  H   H32       1.0  0.68346  0.73160  0.89315  1.0000
  H   H33       1.0  0.21170  0.91240  0.10304  1.0000
  H   H34       1.0  0.08760  0.78830  0.39696  1.0000
  H   H35       1.0  0.78830  0.08760  0.89696  1.0000
  H   H36       1.0  0.91240  0.21170  0.60304  1.0000
  H   H37       1.0  0.35986  0.77409  0.10607  1.0000
  H   H38       1.0  0.22591  0.64014  0.39393  1.0000
  H   H39       1.0  0.64014  0.22591  0.89393  1.0000
  H   H40       1.0  0.77409  0.35986  0.60607  1.0000
  H   H41       1.0  0.54754  0.73932  0.19084  1.0000
  H   H42       1.0  0.26068  0.45246  0.30916  1.0000
  H   H43       1.0  0.45246  0.26068  0.80916  1.0000
  H   H44       1.0  0.73932  0.54754  0.69084  1.0000
  H   H45       1.0  0.68840  0.58959  0.19781  1.0000
  H   H46       1.0  0.41041  0.31160  0.30219  1.0000
  H   H47       1.0  0.31160  0.41041  0.80219  1.0000
  H   H48       1.0  0.58959  0.68840  0.69781  1.0000
  H   H49       1.0  0.93122  0.60541  0.52616  1.0000
  H   H50       1.0  0.39459  0.06878  0.97384  1.0000
  H   H51       1.0  0.06878  0.39459  0.47384  1.0000
  H   H52       1.0  0.60541  0.93122  0.02616  1.0000
  C   C1        1.0  0.50601  0.90531  0.63402  1.0000
  C   C2        1.0  0.09469  0.49399  0.86598  1.0000
  C   C3        1.0  0.49399  0.09469  0.36598  1.0000
  C   C4        1.0  0.90531  0.50601  0.13402  1.0000
  C   C5        1.0  0.60958  0.93714  0.57483  1.0000
  C   C6        1.0  0.06286  0.39042  0.92517  1.0000
  C   C7        1.0  0.39042  0.06286  0.42517  1.0000
  C   C8        1.0  0.93714  0.60958  0.07483  1.0000
  C   C9        1.0  0.62904  0.85479  0.49583  1.0000
  C   C10       1.0  0.14521  0.37096  0.00417  1.0000
  C   C11       1.0  0.37096  0.14521  0.50417  1.0000
  C   C12       1.0  0.85479  0.62904  0.99583  1.0000
  C   C13       1.0  0.53697  0.74480  0.47968  1.0000
  C   C14       1.0  0.25520  0.46303  0.02031  1.0000
  C   C15       1.0  0.46303  0.25520  0.52032  1.0000
  C   C16       1.0  0.74480  0.53697  0.97968  1.0000
  C   C17       1.0  0.43636  0.71999  0.54206  1.0000
  C   C18       1.0  0.28001  0.56364  0.95794  1.0000
  C   C19       1.0  0.56364  0.28001  0.45794  1.0000
  C   C20       1.0  0.71999  0.43636  0.04206  1.0000
  C   C21       1.0  0.73917  0.87946  0.43325  1.0000
  C   C22       1.0  0.12054  0.26083  0.06675  1.0000
  C   C23       1.0  0.26083  0.12054  0.56675  1.0000
  C   C24       1.0  0.87946  0.73917  0.93325  1.0000
  C   C25       1.0  0.80777  0.00117  0.42035  1.0000
  C   C26       1.0  0.99883  0.19223  0.07965  1.0000
  C   C27       1.0  0.19223  0.99883  0.57965  1.0000
  C   C28       1.0  0.00117  0.80777  0.92035  1.0000
  C   C29       1.0  0.91167  0.02307  0.36084  1.0000
  C   C30       1.0  0.97692  0.08833  0.13916  1.0000
  C   C31       1.0  0.08833  0.97693  0.63916  1.0000
  C   C32       1.0  0.02307  0.91167  0.86084  1.0000
  C   C33       1.0  0.94880  0.92285  0.31050  1.0000
  C   C34       1.0  0.07715  0.05120  0.18950  1.0000
  C   C35       1.0  0.05120  0.07715  0.68950  1.0000
  C   C36       1.0  0.92285  0.94880  0.81050  1.0000
  C   C37       1.0  0.88002  0.80103  0.32134  1.0000
  C   C38       1.0  0.19897  0.11998  0.17866  1.0000
  C   C39       1.0  0.11998  0.19897  0.67866  1.0000
  C   C40       1.0  0.80103  0.88002  0.82134  1.0000
  C   C41       1.0  0.77852  0.77988  0.38308  1.0000
  C   C42       1.0  0.22012  0.22148  0.11692  1.0000
  C   C43       1.0  0.22148  0.22012  0.61692  1.0000
  C   C44       1.0  0.77988  0.77852  0.88308  1.0000
  C   C45       1.0  0.13780  0.86220  0.25000  1.0000
  C   C46       1.0  0.86220  0.13780  0.75000  1.0000
  C   C47       1.0  0.21605  0.85506  0.16819  1.0000
  C   C48       1.0  0.14494  0.78395  0.33181  1.0000
  C   C49       1.0  0.78395  0.14494  0.83181  1.0000
  C   C50       1.0  0.85506  0.21605  0.66819  1.0000
  C   C51       1.0  0.29980  0.77602  0.16999  1.0000
  C   C52       1.0  0.22398  0.70020  0.33001  1.0000
  C   C53       1.0  0.70020  0.22398  0.83001  1.0000
  C   C54       1.0  0.77602  0.29980  0.66999  1.0000
  C   C55       1.0  0.30449  0.69551  0.25000  1.0000
  C   C56       1.0  0.69551  0.30449  0.75000  1.0000
  C   C57       1.0  0.39054  0.60946  0.25000  1.0000
  C   C58       1.0  0.60947  0.39054  0.75000  1.0000
  C   C59       1.0  0.51263  0.64508  0.21594  1.0000
  C   C60       1.0  0.35492  0.48736  0.28406  1.0000
  C   C61       1.0  0.48736  0.35492  0.78406  1.0000
  C   C62       1.0  0.64508  0.51263  0.71594  1.0000
  C   C63       1.0  0.59179  0.56110  0.21932  1.0000
  C   C64       1.0  0.43890  0.40821  0.28068  1.0000
  C   C65       1.0  0.40821  0.43890  0.78068  1.0000
  C   C66       1.0  0.56110  0.59179  0.71932  1.0000
  C   C67       1.0  0.10710  0.59201  0.60812  1.0000
  C   C68       1.0  0.40799  0.89290  0.89188  1.0000
  C   C69       1.0  0.89289  0.40799  0.39188  1.0000
  C   C70       1.0  0.59201  0.10710  0.10812  1.0000
  C   C71       1.0  0.00325  0.55002  0.53128  1.0000
  C   C72       1.0  0.44998  0.99675  0.96872  1.0000
  C   C73       1.0  0.99675  0.44998  0.46872  1.0000
  C   C74       1.0  0.55002  0.00325  0.03128  1.0000
  N   N1        1.0  0.05532  0.94468  0.25000  1.0000
  N   N2        1.0  0.94468  0.05532  0.75000  1.0000
  N   N3        1.0  0.42088  0.79775  0.61936  1.0000
  N   N4        1.0  0.20225  0.57912  0.88064  1.0000
  N   N5        1.0  0.57912  0.20225  0.38064  1.0000
  N   N6        1.0  0.79774  0.42088  0.11936  1.0000
  N   N7        1.0  0.55637  0.44363  0.25000  1.0000
  N   N8        1.0  0.44363  0.55637  0.75000  1.0000
  O   O1        1.0  0.10266  0.69020  0.66239  1.0000
  O   O2        1.0  0.30980  0.89733  0.83761  1.0000
  O   O3        1.0  0.89733  0.30980  0.33761  1.0000
  O   O4        1.0  0.69020  0.10266  0.16239  1.0000
  O   O5        1.0  0.19454  0.53226  0.61674  1.0000
  O   O6        1.0  0.46774  0.80546  0.88326  1.0000
  O   O7        1.0  0.80546  0.46774  0.38326  1.0000
  O   O8        1.0  0.53226  0.19454  0.11674  1.0000
