data_image0
_chemical_formula_structural       Ca2V2P4H28C24O18
_chemical_formula_sum              "Ca2 V2 P4 H28 C24 O18"
_cell_length_a       7.03015
_cell_length_b       8.84898
_cell_length_c       14.7975
_cell_angle_alpha    72.6053
_cell_angle_beta     86.3281
_cell_angle_gamma    77.5981

_space_group_name_H-M_alt    "P 1"
_space_group_IT_number       1

loop_
  _space_group_symop_operation_xyz
  'x, y, z'

loop_
  _atom_site_type_symbol
  _atom_site_label
  _atom_site_symmetry_multiplicity
  _atom_site_fract_x
  _atom_site_fract_y
  _atom_site_fract_z
  _atom_site_occupancy
  Ca  Ca1       1.0  0.07115  0.27613  0.95689  1.0000
  Ca  Ca2       1.0  0.57122  0.23293  0.04317  1.0000
  V   V1        1.0  0.29349  0.75960  0.99140  1.0000
  V   V2        1.0  0.79350  0.75099  0.00857  1.0000
  P   P1        1.0  0.50611  0.06076  0.88001  1.0000
  P   P2        1.0  0.00626  0.94072  0.11999  1.0000
  P   P3        1.0  0.64091  0.57001  0.87970  1.0000
  P   P4        1.0  0.14103  0.44974  0.12030  1.0000
  H   H1        1.0  0.12831  0.05222  0.84885  1.0000
  H   H2        1.0  0.62836  0.90097  0.15119  1.0000
  H   H3        1.0  0.90413  0.08342  0.87005  1.0000
  H   H4        1.0  0.40418  0.95338  0.12992  1.0000
  H   H5        1.0  0.24429  0.55218  0.86926  1.0000
  H   H6        1.0  0.74428  0.42160  0.13071  1.0000
  H   H7        1.0  0.01761  0.60961  0.85639  1.0000
  H   H8        1.0  0.51760  0.46615  0.14356  1.0000
  H   H9        1.0  0.30046  0.34185  0.73610  1.0000
  H   H10       1.0  0.80070  0.07807  0.26376  1.0000
  H   H11       1.0  0.33189  0.42919  0.56104  1.0000
  H   H12       1.0  0.83176  0.99046  0.43883  1.0000
  H   H13       1.0  0.59870  0.28022  0.48177  1.0000
  H   H14       1.0  0.09833  0.76209  0.51828  1.0000
  H   H15       1.0  0.83398  0.04282  0.57847  1.0000
  H   H16       1.0  0.33372  0.62123  0.42173  1.0000
  H   H17       1.0  0.79479  0.94852  0.75318  1.0000
  H   H18       1.0  0.29488  0.70155  0.24701  1.0000
  H   H19       1.0  0.35733  0.80984  0.74924  1.0000
  H   H20       1.0  0.85756  0.55892  0.25082  1.0000
  H   H21       1.0  0.33173  0.89452  0.57396  1.0000
  H   H22       1.0  0.83213  0.46815  0.42610  1.0000
  H   H23       1.0  0.57823  0.75890  0.47920  1.0000
  H   H24       1.0  0.07873  0.23771  0.52078  1.0000
  H   H25       1.0  0.84427  0.53232  0.56103  1.0000
  H   H26       1.0  0.34463  0.09304  0.43887  1.0000
  H   H27       1.0  0.86272  0.44015  0.73642  1.0000
  H   H28       1.0  0.36289  0.17645  0.26348  1.0000
  C   C1        1.0  0.54547  0.13916  0.75532  1.0000
  C   C2        1.0  0.04560  0.89444  0.24469  1.0000
  C   C3        1.0  0.41532  0.27506  0.70130  1.0000
  C   C4        1.0  0.91544  0.97647  0.29863  1.0000
  C   C5        1.0  0.43435  0.32460  0.60301  1.0000
  C   C6        1.0  0.93428  0.92775  0.39693  1.0000
  C   C7        1.0  0.58434  0.24124  0.55866  1.0000
  C   C8        1.0  0.08415  0.79998  0.44138  1.0000
  C   C9        1.0  0.71624  0.10787  0.61272  1.0000
  C   C10       1.0  0.21607  0.72055  0.38740  1.0000
  C   C11       1.0  0.69618  0.05558  0.71086  1.0000
  C   C12       1.0  0.19628  0.76641  0.28925  1.0000
  C   C13       1.0  0.61143  0.61999  0.75388  1.0000
  C   C14       1.0  0.11166  0.37373  0.24610  1.0000
  C   C15       1.0  0.46142  0.74729  0.70784  1.0000
  C   C16       1.0  0.96172  0.45497  0.29219  1.0000
  C   C17       1.0  0.44870  0.79553  0.60931  1.0000
  C   C18       1.0  0.94904  0.40456  0.39071  1.0000
  C   C19       1.0  0.58697  0.71925  0.55631  1.0000
  C   C20       1.0  0.08736  0.27524  0.44367  1.0000
  C   C21       1.0  0.73636  0.59234  0.60214  1.0000
  C   C22       1.0  0.23670  0.19422  0.39780  1.0000
  C   C23       1.0  0.74826  0.54132  0.70076  1.0000
  C   C24       1.0  0.24853  0.24190  0.29919  1.0000
  O   O1        1.0  0.40039  0.19611  0.92066  1.0000
  O   O2        1.0  0.90049  0.11674  0.07936  1.0000
  O   O3        1.0  0.38097  0.93256  0.88806  1.0000
  O   O4        1.0  0.88111  0.82059  0.11192  1.0000
  O   O5        1.0  0.70780  0.98410  0.92966  1.0000
  O   O6        1.0  0.20792  0.91369  0.07034  1.0000
  O   O7        1.0  0.07327  0.78075  0.94961  1.0000
  O   O8        1.0  0.57328  0.73036  0.05032  1.0000
  O   O9        1.0  0.01387  0.13903  0.84825  1.0000
  O   O10       1.0  0.51390  0.98717  0.15177  1.0000
  O   O11       1.0  0.12796  0.52304  0.85033  1.0000
  O   O12       1.0  0.62796  0.37353  0.14964  1.0000
  O   O13       1.0  0.74184  0.39262  0.92038  1.0000
  O   O14       1.0  0.24197  0.31305  0.07961  1.0000
  O   O15       1.0  0.43612  0.59815  0.92590  1.0000
  O   O16       1.0  0.93620  0.52402  0.07410  1.0000
  O   O17       1.0  0.76729  0.68610  0.89290  1.0000
  O   O18       1.0  0.26726  0.57910  0.10710  1.0000
