data_image0
_chemical_formula_structural       Sr2H12C18O14
_chemical_formula_sum              "Sr2 H12 C18 O14"
_cell_length_a       6.85628
_cell_length_b       7.02671
_cell_length_c       10.7829
_cell_angle_alpha    87.496
_cell_angle_beta     82.974
_cell_angle_gamma    71.5126

_space_group_name_H-M_alt    "P 1"
_space_group_IT_number       1

loop_
  _space_group_symop_operation_xyz
  'x, y, z'

loop_
  _atom_site_type_symbol
  _atom_site_label
  _atom_site_symmetry_multiplicity
  _atom_site_fract_x
  _atom_site_fract_y
  _atom_site_fract_z
  _atom_site_occupancy
  Sr  Sr1       1.0  0.24453  0.25718  0.05153  1.0000
  Sr  Sr2       1.0  0.75547  0.74282  0.94847  1.0000
  H   H1        1.0  0.22145  0.19597  0.62427  1.0000
  H   H2        1.0  0.77855  0.80403  0.37573  1.0000
  H   H3        1.0  0.72843  0.30151  0.39345  1.0000
  H   H4        1.0  0.27157  0.69849  0.60655  1.0000
  H   H5        1.0  0.47901  0.31205  0.58304  1.0000
  H   H6        1.0  0.52099  0.68795  0.41696  1.0000
  H   H7        1.0  0.41581  0.23460  0.31726  1.0000
  H   H8        1.0  0.58418  0.76541  0.68274  1.0000
  H   H9        1.0  0.58104  0.37679  0.18536  1.0000
  H   H10       1.0  0.41896  0.62321  0.81464  1.0000
  H   H11       1.0  0.66758  0.13156  0.17705  1.0000
  H   H12       1.0  0.33242  0.86844  0.82295  1.0000
  C   C1        1.0  0.55919  0.25994  0.82426  1.0000
  C   C2        1.0  0.44081  0.74006  0.17574  1.0000
  C   C3        1.0  0.70942  0.26284  0.71113  1.0000
  C   C4        1.0  0.29058  0.73716  0.28887  1.0000
  C   C5        1.0  0.91997  0.22992  0.72234  1.0000
  C   C6        1.0  0.08003  0.77008  0.27766  1.0000
  C   C7        1.0  0.99656  0.22012  0.84763  1.0000
  C   C8        1.0  0.00344  0.77988  0.15237  1.0000
  C   C9        1.0  0.05872  0.22187  0.61526  1.0000
  C   C10       1.0  0.94128  0.77812  0.38474  1.0000
  C   C11       1.0  0.98919  0.24992  0.49690  1.0000
  C   C12       1.0  0.01081  0.75008  0.50310  1.0000
  C   C13       1.0  0.13274  0.24830  0.38173  1.0000
  C   C14       1.0  0.86726  0.75170  0.61827  1.0000
  C   C15       1.0  0.77990  0.28183  0.48609  1.0000
  C   C16       1.0  0.22010  0.71816  0.51391  1.0000
  C   C17       1.0  0.64118  0.28846  0.59258  1.0000
  C   C18       1.0  0.35882  0.71154  0.40742  1.0000
  O   O1        1.0  0.39302  0.40777  0.84366  1.0000
  O   O2        1.0  0.60698  0.59223  0.15634  1.0000
  O   O3        1.0  0.60052  0.10763  0.89591  1.0000
  O   O4        1.0  0.39949  0.89238  0.10409  1.0000
  O   O5        1.0  0.90697  0.36463  0.92345  1.0000
  O   O6        1.0  0.09303  0.63537  0.07655  1.0000
  O   O7        1.0  0.15298  0.07543  0.87302  1.0000
  O   O8        1.0  0.84702  0.92457  0.12698  1.0000
  O   O9        1.0  0.32505  0.22768  0.40158  1.0000
  O   O10       1.0  0.67495  0.77232  0.59842  1.0000
  O   O11       1.0  0.07365  0.26649  0.27597  1.0000
  O   O12       1.0  0.92635  0.73351  0.72402  1.0000
  O   O13       1.0  0.53984  0.24999  0.19485  1.0000
  O   O14       1.0  0.46016  0.75001  0.80515  1.0000
