data_image0
_chemical_formula_structural       Zr2P8H36C16N4O32
_chemical_formula_sum              "Zr2 P8 H36 C16 N4 O32"
_cell_length_a       5.49917
_cell_length_b       13.4924
_cell_length_c       14.7479
_cell_angle_alpha    89.9997
_cell_angle_beta     90.0001
_cell_angle_gamma    97.7435

_space_group_name_H-M_alt    "P 1"
_space_group_IT_number       1

loop_
  _space_group_symop_operation_xyz
  'x, y, z'

loop_
  _atom_site_type_symbol
  _atom_site_label
  _atom_site_symmetry_multiplicity
  _atom_site_fract_x
  _atom_site_fract_y
  _atom_site_fract_z
  _atom_site_occupancy
  Zr  Zr1       1.0  0.50000  0.49999  0.50000  1.0000
  Zr  Zr2       1.0  0.99999  0.00000  0.00001  1.0000
  P   P1        1.0  0.00798  0.49530  0.64783  1.0000
  P   P2        1.0  0.49201  0.00470  0.14783  1.0000
  P   P3        1.0  0.99202  0.50470  0.35217  1.0000
  P   P4        1.0  0.50798  0.99530  0.85217  1.0000
  P   P5        1.0  0.19861  0.25352  0.94077  1.0000
  P   P6        1.0  0.30139  0.24648  0.44078  1.0000
  P   P7        1.0  0.80138  0.74648  0.05923  1.0000
  P   P8        1.0  0.69862  0.75353  0.55922  1.0000
  H   H1        1.0  0.46609  0.17653  0.85300  1.0000
  H   H2        1.0  0.03391  0.32347  0.35301  1.0000
  H   H3        1.0  0.53390  0.82347  0.14700  1.0000
  H   H4        1.0  0.96610  0.67653  0.64699  1.0000
  H   H5        1.0  0.71954  0.40165  0.74914  1.0000
  H   H6        1.0  0.78045  0.09835  0.24914  1.0000
  H   H7        1.0  0.28046  0.59835  0.25086  1.0000
  H   H8        1.0  0.21955  0.90165  0.75086  1.0000
  H   H9        1.0  0.90047  0.32321  0.68789  1.0000
  H   H10       1.0  0.59953  0.17680  0.18788  1.0000
  H   H11       1.0  0.09952  0.67680  0.31211  1.0000
  H   H12       1.0  0.40047  0.82320  0.81212  1.0000
  H   H13       1.0  0.97972  0.22916  0.80127  1.0000
  H   H14       1.0  0.52027  0.27084  0.30127  1.0000
  H   H15       1.0  0.02029  0.77083  0.19873  1.0000
  H   H16       1.0  0.47975  0.72916  0.69873  1.0000
  H   H17       1.0  0.80626  0.28720  0.88250  1.0000
  H   H18       1.0  0.69374  0.21280  0.38250  1.0000
  H   H19       1.0  0.19374  0.71280  0.11750  1.0000
  H   H20       1.0  0.30627  0.78720  0.61750  1.0000
  H   H21       1.0  0.24696  0.39448  0.78957  1.0000
  H   H22       1.0  0.25302  0.10551  0.28957  1.0000
  H   H23       1.0  0.75303  0.60552  0.21043  1.0000
  H   H24       1.0  0.74698  0.89449  0.71043  1.0000
  H   H25       1.0  0.94302  0.52664  0.84400  1.0000
  H   H26       1.0  0.55696  0.97336  0.34400  1.0000
  H   H27       1.0  0.05697  0.47335  0.15600  1.0000
  H   H28       1.0  0.44305  0.02664  0.65600  1.0000
  H   H29       1.0  0.97512  0.44494  0.93714  1.0000
  H   H30       1.0  0.52487  0.05506  0.43714  1.0000
  H   H31       1.0  0.02488  0.55505  0.06285  1.0000
  H   H32       1.0  0.47514  0.94494  0.56286  1.0000
  H   H33       1.0  0.52479  0.62496  0.95853  1.0000
  H   H34       1.0  0.97521  0.87504  0.45853  1.0000
  H   H35       1.0  0.47522  0.37504  0.04147  1.0000
  H   H36       1.0  0.02480  0.12496  0.54147  1.0000
  C   C1        1.0  0.90528  0.39333  0.72606  1.0000
  C   C2        1.0  0.59471  0.10668  0.22606  1.0000
  C   C3        1.0  0.09472  0.60667  0.27395  1.0000
  C   C4        1.0  0.40529  0.89333  0.77395  1.0000
  C   C5        1.0  0.99010  0.28738  0.85370  1.0000
  C   C6        1.0  0.50989  0.21261  0.35369  1.0000
  C   C7        1.0  0.00990  0.71261  0.14630  1.0000
  C   C8        1.0  0.49012  0.78738  0.64630  1.0000
  C   C9        1.0  0.05511  0.47309  0.87262  1.0000
  C   C10       1.0  0.44490  0.02692  0.37261  1.0000
  C   C11       1.0  0.94490  0.52692  0.12738  1.0000
  C   C12       1.0  0.55512  0.97308  0.62738  1.0000
  C   C13       1.0  0.31796  0.52194  0.88488  1.0000
  C   C14       1.0  0.18203  0.97806  0.38488  1.0000
  C   C15       1.0  0.68204  0.47806  0.11511  1.0000
  C   C16       1.0  0.81796  0.02194  0.61512  1.0000
  N   N1        1.0  0.06105  0.38658  0.80845  1.0000
  N   N2        1.0  0.43894  0.11342  0.30845  1.0000
  N   N3        1.0  0.93896  0.61342  0.19155  1.0000
  N   N4        1.0  0.56106  0.88658  0.69155  1.0000
  O   O1        1.0  0.25999  0.47476  0.61176  1.0000
  O   O2        1.0  0.23999  0.02525  0.11176  1.0000
  O   O3        1.0  0.74002  0.52524  0.38824  1.0000
  O   O4        1.0  0.75998  0.97475  0.88825  1.0000
  O   O5        1.0  0.80467  0.47641  0.57540  1.0000
  O   O6        1.0  0.69532  0.02359  0.07540  1.0000
  O   O7        1.0  0.19532  0.52359  0.42460  1.0000
  O   O8        1.0  0.30467  0.97641  0.92460  1.0000
  O   O9        1.0  0.01779  0.59523  0.69586  1.0000
  O   O10       1.0  0.48220  0.90478  0.19586  1.0000
  O   O11       1.0  0.98220  0.40478  0.30414  1.0000
  O   O12       1.0  0.51780  0.09522  0.80414  1.0000
  O   O13       1.0  0.23795  0.33200  0.01398  1.0000
  O   O14       1.0  0.26206  0.16800  0.51398  1.0000
  O   O15       1.0  0.76205  0.66801  0.98602  1.0000
  O   O16       1.0  0.73795  0.83200  0.48602  1.0000
  O   O17       1.0  0.44426  0.24384  0.89039  1.0000
  O   O18       1.0  0.05573  0.25616  0.39040  1.0000
  O   O19       1.0  0.55573  0.75616  0.10961  1.0000
  O   O20       1.0  0.94427  0.74384  0.60960  1.0000
  O   O21       1.0  0.06742  0.15111  0.97053  1.0000
  O   O22       1.0  0.43260  0.34889  0.47054  1.0000
  O   O23       1.0  0.93258  0.84890  0.02948  1.0000
  O   O24       1.0  0.56742  0.65111  0.52946  1.0000
  O   O25       1.0  0.48487  0.49313  0.83956  1.0000
  O   O26       1.0  0.01512  0.00687  0.33957  1.0000
  O   O27       1.0  0.51512  0.50687  0.16043  1.0000
  O   O28       1.0  0.98489  0.99312  0.66043  1.0000
  O   O29       1.0  0.33904  0.59344  0.94512  1.0000
  O   O30       1.0  0.16093  0.90656  0.44511  1.0000
  O   O31       1.0  0.66096  0.40656  0.05488  1.0000
  O   O32       1.0  0.83905  0.09344  0.55488  1.0000
