data_image0
_chemical_formula_structural       Cd4H56C32N8O24
_chemical_formula_sum              "Cd4 H56 C32 N8 O24"
_cell_length_a       8.08496
_cell_length_b       10.5034
_cell_length_c       15.0773
_cell_angle_alpha    89.9997
_cell_angle_beta     90
_cell_angle_gamma    90

_space_group_name_H-M_alt    "P 1"
_space_group_IT_number       1

loop_
  _space_group_symop_operation_xyz
  'x, y, z'

loop_
  _atom_site_type_symbol
  _atom_site_label
  _atom_site_symmetry_multiplicity
  _atom_site_fract_x
  _atom_site_fract_y
  _atom_site_fract_z
  _atom_site_occupancy
  Cd  Cd1       1.0  0.16777  0.25000  0.50000  1.0000
  Cd  Cd2       1.0  0.33223  0.75000  1.00000  1.0000
  Cd  Cd3       1.0  0.83223  0.75000  0.50000  1.0000
  Cd  Cd4       1.0  0.66778  0.25000  1.00000  1.0000
  H   H1        1.0  0.47952  0.12317  0.41943  1.0000
  H   H2        1.0  0.02049  0.62317  0.08057  1.0000
  H   H3        1.0  0.47952  0.37684  0.58057  1.0000
  H   H4        1.0  0.02049  0.87683  0.91943  1.0000
  H   H5        1.0  0.52048  0.87683  0.58057  1.0000
  H   H6        1.0  0.97952  0.37683  0.91943  1.0000
  H   H7        1.0  0.52048  0.62317  0.41943  1.0000
  H   H8        1.0  0.97952  0.12317  0.08057  1.0000
  H   H9        1.0  0.69727  0.04513  0.35734  1.0000
  H   H10       1.0  0.80273  0.54513  0.14266  1.0000
  H   H11       1.0  0.69727  0.45487  0.64266  1.0000
  H   H12       1.0  0.80273  0.95487  0.85734  1.0000
  H   H13       1.0  0.30273  0.95487  0.64266  1.0000
  H   H14       1.0  0.19727  0.45487  0.85734  1.0000
  H   H15       1.0  0.30273  0.54513  0.35734  1.0000
  H   H16       1.0  0.19727  0.04513  0.14266  1.0000
  H   H17       1.0  0.85569  0.16024  0.33518  1.0000
  H   H18       1.0  0.64432  0.66024  0.16482  1.0000
  H   H19       1.0  0.85569  0.33976  0.66482  1.0000
  H   H20       1.0  0.64432  0.83976  0.83518  1.0000
  H   H21       1.0  0.14431  0.83976  0.66482  1.0000
  H   H22       1.0  0.35569  0.33976  0.83518  1.0000
  H   H23       1.0  0.14432  0.66024  0.33518  1.0000
  H   H24       1.0  0.35569  0.16024  0.16482  1.0000
  H   H25       1.0  0.72975  0.10078  0.24642  1.0000
  H   H26       1.0  0.77025  0.60078  0.25358  1.0000
  H   H27       1.0  0.72975  0.39922  0.75358  1.0000
  H   H28       1.0  0.77025  0.89922  0.74642  1.0000
  H   H29       1.0  0.27025  0.89922  0.75358  1.0000
  H   H30       1.0  0.22975  0.39922  0.74642  1.0000
  H   H31       1.0  0.27025  0.60078  0.24642  1.0000
  H   H32       1.0  0.22975  0.10078  0.25358  1.0000
  H   H33       1.0  0.53861  0.41359  0.29655  1.0000
  H   H34       1.0  0.96139  0.91359  0.20344  1.0000
  H   H35       1.0  0.53861  0.08641  0.70345  1.0000
  H   H36       1.0  0.96140  0.58641  0.79656  1.0000
  H   H37       1.0  0.46139  0.58641  0.70345  1.0000
  H   H38       1.0  0.03861  0.08641  0.79656  1.0000
  H   H39       1.0  0.46139  0.91359  0.29655  1.0000
  H   H40       1.0  0.03861  0.41359  0.20344  1.0000
  H   H41       1.0  0.65182  0.33013  0.21283  1.0000
  H   H42       1.0  0.84818  0.83013  0.28717  1.0000
  H   H43       1.0  0.65182  0.16987  0.78717  1.0000
  H   H44       1.0  0.84819  0.66987  0.71283  1.0000
  H   H45       1.0  0.34818  0.66987  0.78717  1.0000
  H   H46       1.0  0.15182  0.16987  0.71283  1.0000
  H   H47       1.0  0.34818  0.83013  0.21283  1.0000
  H   H48       1.0  0.15182  0.33013  0.28717  1.0000
  H   H49       1.0  0.75742  0.39219  0.30845  1.0000
  H   H50       1.0  0.74258  0.89219  0.19155  1.0000
  H   H51       1.0  0.75742  0.10781  0.69155  1.0000
  H   H52       1.0  0.74259  0.60781  0.80845  1.0000
  H   H53       1.0  0.24258  0.60781  0.69155  1.0000
  H   H54       1.0  0.25742  0.10781  0.80845  1.0000
  H   H55       1.0  0.24258  0.89219  0.30845  1.0000
  H   H56       1.0  0.25742  0.39219  0.19155  1.0000
  C   C1        1.0  0.48723  0.21764  0.38767  1.0000
  C   C2        1.0  0.01277  0.71764  0.11233  1.0000
  C   C3        1.0  0.48723  0.28236  0.61233  1.0000
  C   C4        1.0  0.01277  0.78236  0.88767  1.0000
  C   C5        1.0  0.51277  0.78236  0.61233  1.0000
  C   C6        1.0  0.98723  0.28236  0.88766  1.0000
  C   C7        1.0  0.51277  0.71764  0.38767  1.0000
  C   C8        1.0  0.98723  0.21764  0.11234  1.0000
  C   C9        1.0  0.04787  0.98087  0.45633  1.0000
  C   C10       1.0  0.45212  0.48088  0.04367  1.0000
  C   C11       1.0  0.04788  0.51913  0.54367  1.0000
  C   C12       1.0  0.45212  0.01913  0.95633  1.0000
  C   C13       1.0  0.95212  0.01913  0.54367  1.0000
  C   C14       1.0  0.54787  0.51913  0.95633  1.0000
  C   C15       1.0  0.95212  0.48087  0.45633  1.0000
  C   C16       1.0  0.54787  0.98087  0.04367  1.0000
  C   C17       1.0  0.73098  0.12801  0.31685  1.0000
  C   C18       1.0  0.76902  0.62801  0.18315  1.0000
  C   C19       1.0  0.73099  0.37199  0.68315  1.0000
  C   C20       1.0  0.76902  0.87199  0.81685  1.0000
  C   C21       1.0  0.26902  0.87199  0.68315  1.0000
  C   C22       1.0  0.23098  0.37199  0.81685  1.0000
  C   C23       1.0  0.26902  0.62801  0.31685  1.0000
  C   C24       1.0  0.23098  0.12801  0.18315  1.0000
  C   C25       1.0  0.64224  0.34923  0.28416  1.0000
  C   C26       1.0  0.85776  0.84923  0.21584  1.0000
  C   C27       1.0  0.64224  0.15078  0.71584  1.0000
  C   C28       1.0  0.85776  0.65077  0.78416  1.0000
  C   C29       1.0  0.35776  0.65078  0.71584  1.0000
  C   C30       1.0  0.14225  0.15077  0.78416  1.0000
  C   C31       1.0  0.35776  0.84923  0.28416  1.0000
  C   C32       1.0  0.14225  0.34923  0.21584  1.0000
  N   N1        1.0  0.61316  0.23065  0.33162  1.0000
  N   N2        1.0  0.88684  0.73065  0.16838  1.0000
  N   N3        1.0  0.61316  0.26935  0.66838  1.0000
  N   N4        1.0  0.88684  0.76935  0.83162  1.0000
  N   N5        1.0  0.38684  0.76935  0.66838  1.0000
  N   N6        1.0  0.11316  0.26935  0.83162  1.0000
  N   N7        1.0  0.38684  0.73065  0.33162  1.0000
  N   N8        1.0  0.11316  0.23065  0.16838  1.0000
  O   O1        1.0  0.14700  0.06156  0.42315  1.0000
  O   O2        1.0  0.35299  0.56156  0.07685  1.0000
  O   O3        1.0  0.14700  0.43844  0.57685  1.0000
  O   O4        1.0  0.35300  0.93844  0.92315  1.0000
  O   O5        1.0  0.85300  0.93844  0.57685  1.0000
  O   O6        1.0  0.64700  0.43844  0.92315  1.0000
  O   O7        1.0  0.85300  0.56156  0.42315  1.0000
  O   O8        1.0  0.64700  0.06156  0.07685  1.0000
  O   O9        1.0  0.02057  0.87185  0.42365  1.0000
  O   O10       1.0  0.47943  0.37185  0.07635  1.0000
  O   O11       1.0  0.02057  0.62815  0.57635  1.0000
  O   O12       1.0  0.47943  0.12815  0.92365  1.0000
  O   O13       1.0  0.97943  0.12815  0.57635  1.0000
  O   O14       1.0  0.52057  0.62815  0.92365  1.0000
  O   O15       1.0  0.97943  0.37185  0.42365  1.0000
  O   O16       1.0  0.52057  0.87185  0.07635  1.0000
  O   O17       1.0  0.38304  0.30403  0.40398  1.0000
  O   O18       1.0  0.11696  0.80403  0.09602  1.0000
  O   O19       1.0  0.38304  0.19597  0.59602  1.0000
  O   O20       1.0  0.11696  0.69597  0.90398  1.0000
  O   O21       1.0  0.61696  0.69597  0.59602  1.0000
  O   O22       1.0  0.88304  0.19596  0.90398  1.0000
  O   O23       1.0  0.61696  0.80403  0.40398  1.0000
  O   O24       1.0  0.88304  0.30404  0.09602  1.0000
