data_image0
_chemical_formula_structural       Rb4H20C24N8O24
_chemical_formula_sum              "Rb4 H20 C24 N8 O24"
_cell_length_a       5.36724
_cell_length_b       7.7395
_cell_length_c       21.9446
_cell_angle_alpha    89.9996
_cell_angle_beta     89.9997
_cell_angle_gamma    87.7768

_space_group_name_H-M_alt    "P 1"
_space_group_IT_number       1

loop_
  _space_group_symop_operation_xyz
  'x, y, z'

loop_
  _atom_site_type_symbol
  _atom_site_label
  _atom_site_symmetry_multiplicity
  _atom_site_fract_x
  _atom_site_fract_y
  _atom_site_fract_z
  _atom_site_occupancy
  Rb  Rb1       1.0  0.81290  0.76169  0.98175  1.0000
  Rb  Rb2       1.0  0.18711  0.73832  0.48176  1.0000
  Rb  Rb3       1.0  0.18711  0.23831  0.01825  1.0000
  Rb  Rb4       1.0  0.81289  0.26169  0.51824  1.0000
  H   H1        1.0  0.56048  0.09195  0.91520  1.0000
  H   H2        1.0  0.43952  0.40806  0.41520  1.0000
  H   H3        1.0  0.43953  0.90805  0.08479  1.0000
  H   H4        1.0  0.56049  0.59195  0.58480  1.0000
  H   H5        1.0  0.74289  0.23168  0.93419  1.0000
  H   H6        1.0  0.25712  0.26832  0.43419  1.0000
  H   H7        1.0  0.25711  0.76832  0.06581  1.0000
  H   H8        1.0  0.74287  0.73169  0.56581  1.0000
  H   H9        1.0  0.53351  0.40053  0.23278  1.0000
  H   H10       1.0  0.46648  0.09946  0.73277  1.0000
  H   H11       1.0  0.46650  0.59947  0.76723  1.0000
  H   H12       1.0  0.53351  0.90052  0.26722  1.0000
  H   H13       1.0  0.16865  0.68172  0.29145  1.0000
  H   H14       1.0  0.83136  0.81827  0.79145  1.0000
  H   H15       1.0  0.83138  0.31828  0.70855  1.0000
  H   H16       1.0  0.16862  0.18172  0.20855  1.0000
  H   H17       1.0  0.28845  0.72513  0.18340  1.0000
  H   H18       1.0  0.71154  0.77486  0.68340  1.0000
  H   H19       1.0  0.71156  0.27486  0.81661  1.0000
  H   H20       1.0  0.28845  0.22514  0.31660  1.0000
  C   C1        1.0  0.98534  0.58668  0.14386  1.0000
  C   C2        1.0  0.01464  0.91331  0.64385  1.0000
  C   C3        1.0  0.01466  0.41332  0.85615  1.0000
  C   C4        1.0  0.98534  0.08667  0.35614  1.0000
  C   C5        1.0  0.76616  0.49173  0.16134  1.0000
  C   C6        1.0  0.23384  0.00827  0.66134  1.0000
  C   C7        1.0  0.23386  0.50828  0.83866  1.0000
  C   C8        1.0  0.76615  0.99171  0.33866  1.0000
  C   C9        1.0  0.69838  0.47127  0.22194  1.0000
  C   C10       1.0  0.30165  0.02873  0.72194  1.0000
  C   C11       1.0  0.30164  0.52873  0.77807  1.0000
  C   C12       1.0  0.69835  0.97126  0.27806  1.0000
  C   C13       1.0  0.84127  0.53980  0.26811  1.0000
  C   C14       1.0  0.15874  0.96021  0.76811  1.0000
  C   C15       1.0  0.15876  0.46022  0.73189  1.0000
  C   C16       1.0  0.84124  0.03978  0.23189  1.0000
  C   C17       1.0  0.05819  0.63090  0.25438  1.0000
  C   C18       1.0  0.94181  0.86909  0.75438  1.0000
  C   C19       1.0  0.94183  0.36911  0.74562  1.0000
  C   C20       1.0  0.05816  0.13090  0.24561  1.0000
  C   C21       1.0  0.12418  0.65343  0.19477  1.0000
  C   C22       1.0  0.87582  0.84657  0.69477  1.0000
  C   C23       1.0  0.87583  0.34657  0.80523  1.0000
  C   C24       1.0  0.12417  0.15342  0.30522  1.0000
  N   N1        1.0  0.61094  0.41123  0.11706  1.0000
  N   N2        1.0  0.38904  0.08877  0.61705  1.0000
  N   N3        1.0  0.38905  0.58877  0.88294  1.0000
  N   N4        1.0  0.61095  0.91122  0.38294  1.0000
  N   N5        1.0  0.77070  0.51227  0.32987  1.0000
  N   N6        1.0  0.22931  0.98774  0.82987  1.0000
  N   N7        1.0  0.22931  0.48774  0.67013  1.0000
  N   N8        1.0  0.77069  0.01226  0.17013  1.0000
  O   O1        1.0  0.05602  0.60970  0.08941  1.0000
  O   O2        1.0  0.94395  0.89031  0.58941  1.0000
  O   O3        1.0  0.94398  0.39030  0.91060  1.0000
  O   O4        1.0  0.05603  0.10969  0.41059  1.0000
  O   O5        1.0  0.64928  0.43324  0.06150  1.0000
  O   O6        1.0  0.35068  0.06676  0.56149  1.0000
  O   O7        1.0  0.35070  0.56677  0.93851  1.0000
  O   O8        1.0  0.64929  0.93324  0.43850  1.0000
  O   O9        1.0  0.43983  0.31852  0.13587  1.0000
  O   O10       1.0  0.56014  0.18149  0.63586  1.0000
  O   O11       1.0  0.56018  0.68148  0.86414  1.0000
  O   O12       1.0  0.43984  0.81851  0.36413  1.0000
  O   O13       1.0  0.57915  0.42753  0.33995  1.0000
  O   O14       1.0  0.42086  0.07247  0.83995  1.0000
  O   O15       1.0  0.42087  0.57248  0.66005  1.0000
  O   O16       1.0  0.57915  0.92752  0.16005  1.0000
  O   O17       1.0  0.90044  0.57117  0.37172  1.0000
  O   O18       1.0  0.09960  0.92884  0.87171  1.0000
  O   O19       1.0  0.09959  0.42885  0.62828  1.0000
  O   O20       1.0  0.90040  0.07116  0.12828  1.0000
  O   O21       1.0  0.65056  0.13349  0.95112  1.0000
  O   O22       1.0  0.34941  0.36652  0.45112  1.0000
  O   O23       1.0  0.34942  0.86652  0.04888  1.0000
  O   O24       1.0  0.65057  0.63348  0.54889  1.0000
