data_image0
_chemical_formula_structural       Zn4H36C48Br8N12O4
_chemical_formula_sum              "Zn4 H36 C48 Br8 N12 O4"
_cell_length_a       7.28422
_cell_length_b       12.0566
_cell_length_c       15.0054
_cell_angle_alpha    89.9999
_cell_angle_beta     89.9999
_cell_angle_gamma    96.9112

_space_group_name_H-M_alt    "P 1"
_space_group_IT_number       1

loop_
  _space_group_symop_operation_xyz
  'x, y, z'

loop_
  _atom_site_type_symbol
  _atom_site_label
  _atom_site_symmetry_multiplicity
  _atom_site_fract_x
  _atom_site_fract_y
  _atom_site_fract_z
  _atom_site_occupancy
  Zn  Zn1       1.0  0.81858  0.42673  0.23644  1.0000
  Zn  Zn2       1.0  0.68142  0.07327  0.73644  1.0000
  Zn  Zn3       1.0  0.18142  0.57327  0.76356  1.0000
  Zn  Zn4       1.0  0.31859  0.92673  0.26356  1.0000
  H   H1        1.0  0.71711  0.57400  0.83012  1.0000
  H   H2        1.0  0.78289  0.92600  0.33012  1.0000
  H   H3        1.0  0.28289  0.42600  0.16988  1.0000
  H   H4        1.0  0.21711  0.07400  0.66988  1.0000
  H   H5        1.0  0.79934  0.77197  0.87947  1.0000
  H   H6        1.0  0.70066  0.72803  0.37947  1.0000
  H   H7        1.0  0.20066  0.22803  0.12053  1.0000
  H   H8        1.0  0.29934  0.27197  0.62053  1.0000
  H   H9        1.0  0.85280  0.81813  0.03928  1.0000
  H   H10       1.0  0.64720  0.68187  0.53928  1.0000
  H   H11       1.0  0.14719  0.18187  0.96072  1.0000
  H   H12       1.0  0.35280  0.31813  0.46072  1.0000
  H   H13       1.0  0.84147  0.66991  0.15432  1.0000
  H   H14       1.0  0.65853  0.83009  0.65432  1.0000
  H   H15       1.0  0.15853  0.33009  0.84569  1.0000
  H   H16       1.0  0.34146  0.16991  0.34568  1.0000
  H   H17       1.0  0.54562  0.25440  0.19522  1.0000
  H   H18       1.0  0.95437  0.24560  0.69522  1.0000
  H   H19       1.0  0.45439  0.74560  0.80478  1.0000
  H   H20       1.0  0.04562  0.75440  0.30478  1.0000
  H   H21       1.0  0.80608  0.18404  0.94333  1.0000
  H   H22       1.0  0.69392  0.31596  0.44333  1.0000
  H   H23       1.0  0.19393  0.81596  0.05667  1.0000
  H   H24       1.0  0.30608  0.68404  0.55667  1.0000
  H   H25       1.0  0.76547  0.98458  0.98606  1.0000
  H   H26       1.0  0.73453  0.51542  0.48606  1.0000
  H   H27       1.0  0.23453  0.01542  0.01394  1.0000
  H   H28       1.0  0.26547  0.48458  0.51394  1.0000
  H   H29       1.0  0.62146  0.92769  0.13622  1.0000
  H   H30       1.0  0.87854  0.57232  0.63622  1.0000
  H   H31       1.0  0.37854  0.07231  0.86378  1.0000
  H   H32       1.0  0.12145  0.42769  0.36378  1.0000
  H   H33       1.0  0.66428  0.35003  0.90600  1.0000
  H   H34       1.0  0.83572  0.14997  0.40601  1.0000
  H   H35       1.0  0.33572  0.64997  0.09399  1.0000
  H   H36       1.0  0.16429  0.85003  0.59399  1.0000
  C   C1        1.0  0.73722  0.51242  0.96571  1.0000
  C   C2        1.0  0.76277  0.98758  0.46571  1.0000
  C   C3        1.0  0.26278  0.48758  0.03429  1.0000
  C   C4        1.0  0.23722  0.01241  0.53429  1.0000
  C   C5        1.0  0.74355  0.59487  0.89997  1.0000
  C   C6        1.0  0.75644  0.90513  0.39998  1.0000
  C   C7        1.0  0.25644  0.40513  0.10003  1.0000
  C   C8        1.0  0.24356  0.09487  0.60003  1.0000
  C   C9        1.0  0.78658  0.70483  0.92860  1.0000
  C   C10       1.0  0.71341  0.79517  0.42861  1.0000
  C   C11       1.0  0.21341  0.29517  0.07140  1.0000
  C   C12       1.0  0.28659  0.20483  0.57139  1.0000
  C   C13       1.0  0.81906  0.73116  0.01928  1.0000
  C   C14       1.0  0.68093  0.76884  0.51929  1.0000
  C   C15       1.0  0.18093  0.26884  0.98072  1.0000
  C   C16       1.0  0.31906  0.23116  0.48071  1.0000
  C   C17       1.0  0.81373  0.64910  0.08469  1.0000
  C   C18       1.0  0.68627  0.85090  0.58469  1.0000
  C   C19       1.0  0.18627  0.35090  0.91531  1.0000
  C   C20       1.0  0.31373  0.14910  0.41531  1.0000
  C   C21       1.0  0.77283  0.53809  0.05685  1.0000
  C   C22       1.0  0.72717  0.96191  0.55686  1.0000
  C   C23       1.0  0.22717  0.46191  0.94314  1.0000
  C   C24       1.0  0.27283  0.03809  0.44314  1.0000
  C   C25       1.0  0.71279  0.35608  0.04588  1.0000
  C   C26       1.0  0.78720  0.14392  0.54588  1.0000
  C   C27       1.0  0.28721  0.64392  0.95412  1.0000
  C   C28       1.0  0.21280  0.85608  0.45412  1.0000
  C   C29       1.0  0.60084  0.20051  0.14643  1.0000
  C   C30       1.0  0.89916  0.29949  0.64643  1.0000
  C   C31       1.0  0.39917  0.79949  0.85357  1.0000
  C   C32       1.0  0.10083  0.70052  0.35357  1.0000
  C   C33       1.0  0.68318  0.23705  0.06609  1.0000
  C   C34       1.0  0.81681  0.26295  0.56609  1.0000
  C   C35       1.0  0.31682  0.76295  0.93391  1.0000
  C   C36       1.0  0.18319  0.73705  0.43391  1.0000
  C   C37       1.0  0.74068  0.15860  0.00650  1.0000
  C   C38       1.0  0.75932  0.34140  0.50650  1.0000
  C   C39       1.0  0.25932  0.84140  0.99350  1.0000
  C   C40       1.0  0.24068  0.65860  0.49350  1.0000
  C   C41       1.0  0.71825  0.04662  0.03058  1.0000
  C   C42       1.0  0.78175  0.45338  0.53058  1.0000
  C   C43       1.0  0.28175  0.95338  0.96942  1.0000
  C   C44       1.0  0.21825  0.54662  0.46942  1.0000
  C   C45       1.0  0.64103  0.01342  0.11199  1.0000
  C   C46       1.0  0.85897  0.48659  0.61198  1.0000
  C   C47       1.0  0.35897  0.98658  0.88802  1.0000
  C   C48       1.0  0.14103  0.51342  0.38801  1.0000
  Br  Br1       1.0  0.55113  0.46196  0.31788  1.0000
  Br  Br2       1.0  0.94886  0.03804  0.81788  1.0000
  Br  Br3       1.0  0.44887  0.53805  0.68212  1.0000
  Br  Br4       1.0  0.05114  0.96196  0.18212  1.0000
  Br  Br5       1.0  0.94753  0.26044  0.28185  1.0000
  Br  Br6       1.0  0.55247  0.23956  0.78185  1.0000
  Br  Br7       1.0  0.05247  0.73956  0.71815  1.0000
  Br  Br8       1.0  0.44753  0.76044  0.21815  1.0000
  N   N1        1.0  0.75806  0.43848  0.10490  1.0000
  N   N2        1.0  0.74195  0.06152  0.60490  1.0000
  N   N3        1.0  0.24195  0.56152  0.89510  1.0000
  N   N4        1.0  0.25805  0.93848  0.39510  1.0000
  N   N5        1.0  0.70109  0.39731  0.96192  1.0000
  N   N6        1.0  0.79891  0.10269  0.46192  1.0000
  N   N7        1.0  0.29891  0.60269  0.03808  1.0000
  N   N8        1.0  0.20109  0.89731  0.53808  1.0000
  N   N9        1.0  0.58216  0.09047  0.16799  1.0000
  N   N10       1.0  0.91784  0.40954  0.66799  1.0000
  N   N11       1.0  0.41784  0.90954  0.83201  1.0000
  N   N12       1.0  0.08215  0.59047  0.33201  1.0000
  O   O1        1.0  0.51220  0.06108  0.24764  1.0000
  O   O2        1.0  0.98780  0.43892  0.74764  1.0000
  O   O3        1.0  0.48780  0.93892  0.75236  1.0000
  O   O4        1.0  0.01220  0.56109  0.25236  1.0000
