data_image0
_chemical_formula_structural       Sn2H24C28Br4N4O8
_chemical_formula_sum              "Sn2 H24 C28 Br4 N4 O8"
_cell_length_a       7.51548
_cell_length_b       8.17558
_cell_length_c       15.0263
_cell_angle_alpha    73.9283
_cell_angle_beta     74.8559
_cell_angle_gamma    86.6786

_space_group_name_H-M_alt    "P 1"
_space_group_IT_number       1

loop_
  _space_group_symop_operation_xyz
  'x, y, z'

loop_
  _atom_site_type_symbol
  _atom_site_label
  _atom_site_symmetry_multiplicity
  _atom_site_fract_x
  _atom_site_fract_y
  _atom_site_fract_z
  _atom_site_occupancy
  Sn  Sn1       1.0  0.28154  0.23467  0.40557  1.0000
  Sn  Sn2       1.0  0.71845  0.76533  0.59443  1.0000
  H   H1        1.0  0.30341  0.65295  0.40175  1.0000
  H   H2        1.0  0.69660  0.34707  0.59824  1.0000
  H   H3        1.0  0.34493  0.44702  0.17336  1.0000
  H   H4        1.0  0.65508  0.55298  0.82663  1.0000
  H   H5        1.0  0.36020  0.99582  0.11990  1.0000
  H   H6        1.0  0.63983  0.00418  0.88009  1.0000
  H   H7        1.0  0.13378  0.93499  0.74182  1.0000
  H   H8        1.0  0.86621  0.06500  0.25818  1.0000
  H   H9        1.0  0.08500  0.14070  0.97103  1.0000
  H   H10       1.0  0.91498  0.85927  0.02898  1.0000
  H   H11       1.0  0.20086  0.47678  0.68334  1.0000
  H   H12       1.0  0.79912  0.52321  0.31667  1.0000
  H   H13       1.0  0.95196  0.38064  0.42531  1.0000
  H   H14       1.0  0.04803  0.61937  0.57469  1.0000
  H   H15       1.0  0.92626  0.15627  0.44003  1.0000
  H   H16       1.0  0.07374  0.84373  0.55997  1.0000
  H   H17       1.0  0.00420  0.29784  0.32195  1.0000
  H   H18       1.0  0.99580  0.70217  0.67805  1.0000
  H   H19       1.0  0.63555  0.29475  0.31379  1.0000
  H   H20       1.0  0.36445  0.70524  0.68622  1.0000
  H   H21       1.0  0.61724  0.13651  0.42596  1.0000
  H   H22       1.0  0.38274  0.86349  0.57405  1.0000
  H   H23       1.0  0.58669  0.35742  0.42387  1.0000
  H   H24       1.0  0.41330  0.64258  0.57614  1.0000
  C   C1        1.0  0.32554  0.99323  0.30465  1.0000
  C   C2        1.0  0.67446  0.00678  0.69534  1.0000
  C   C3        1.0  0.33282  0.84304  0.26515  1.0000
  C   C4        1.0  0.66719  0.15697  0.73484  1.0000
  C   C5        1.0  0.31902  0.67673  0.32500  1.0000
  C   C6        1.0  0.68098  0.32328  0.67499  1.0000
  C   C7        1.0  0.34196  0.56170  0.19742  1.0000
  C   C8        1.0  0.65805  0.43830  0.80258  1.0000
  C   C9        1.0  0.35647  0.72411  0.13368  1.0000
  C   C10       1.0  0.64356  0.27589  0.86631  1.0000
  C   C11       1.0  0.35096  0.86725  0.16735  1.0000
  C   C12       1.0  0.64906  0.13275  0.83264  1.0000
  C   C13       1.0  0.20558  0.23340  0.59450  1.0000
  C   C14       1.0  0.79442  0.76660  0.40550  1.0000
  C   C15       1.0  0.17198  0.20894  0.69969  1.0000
  C   C16       1.0  0.82801  0.79106  0.30031  1.0000
  C   C17       1.0  0.13752  0.04845  0.76625  1.0000
  C   C18       1.0  0.86247  0.95154  0.23375  1.0000
  C   C19       1.0  0.11172  0.16224  0.89352  1.0000
  C   C20       1.0  0.88827  0.83774  0.10649  1.0000
  C   C21       1.0  0.14550  0.32651  0.83154  1.0000
  C   C22       1.0  0.85449  0.67347  0.16847  1.0000
  C   C23       1.0  0.17524  0.35122  0.73363  1.0000
  C   C24       1.0  0.82475  0.64876  0.26638  1.0000
  C   C25       1.0  0.00507  0.27227  0.39732  1.0000
  C   C26       1.0  0.99492  0.72774  0.60269  1.0000
  C   C27       1.0  0.56717  0.25889  0.39046  1.0000
  C   C28       1.0  0.43282  0.74111  0.60955  1.0000
  Br  Br1       1.0  0.38303  0.74786  0.00177  1.0000
  Br  Br2       1.0  0.61702  0.25216  0.99821  1.0000
  Br  Br3       1.0  0.14750  0.51669  0.88077  1.0000
  Br  Br4       1.0  0.85250  0.48329  0.11923  1.0000
  N   N1        1.0  0.32328  0.54013  0.29139  1.0000
  N   N2        1.0  0.67673  0.45988  0.70861  1.0000
  N   N3        1.0  0.10711  0.02559  0.86091  1.0000
  N   N4        1.0  0.89288  0.97440  0.13909  1.0000
  O   O1        1.0  0.29382  0.96309  0.39628  1.0000
  O   O2        1.0  0.70618  0.03692  0.60371  1.0000
  O   O3        1.0  0.34814  0.14281  0.24936  1.0000
  O   O4        1.0  0.65187  0.85721  0.75063  1.0000
  O   O5        1.0  0.22894  0.38184  0.53723  1.0000
  O   O6        1.0  0.77105  0.61817  0.46278  1.0000
  O   O7        1.0  0.21171  0.10050  0.56369  1.0000
  O   O8        1.0  0.78828  0.89951  0.43630  1.0000
