data_image0
_chemical_formula_structural       Cd2H28C28N8O8
_chemical_formula_sum              "Cd2 H28 C28 N8 O8"
_cell_length_a       6.91474
_cell_length_b       11.2051
_cell_length_c       11.2052
_cell_angle_alpha    64.9002
_cell_angle_beta     72.0215
_cell_angle_gamma    72.0215

_space_group_name_H-M_alt    "P 1"
_space_group_IT_number       1

loop_
  _space_group_symop_operation_xyz
  'x, y, z'

loop_
  _atom_site_type_symbol
  _atom_site_label
  _atom_site_symmetry_multiplicity
  _atom_site_fract_x
  _atom_site_fract_y
  _atom_site_fract_z
  _atom_site_occupancy
  Cd  Cd1       1.0  0.41721  0.99996  0.00002  1.0000
  Cd  Cd2       1.0  0.91722  0.00001  0.99996  1.0000
  H   H1        1.0  0.14405  0.32095  0.93873  1.0000
  H   H2        1.0  0.40370  0.67904  0.06127  1.0000
  H   H3        1.0  0.64405  0.93873  0.32095  1.0000
  H   H4        1.0  0.90370  0.06127  0.67904  1.0000
  H   H5        1.0  0.59660  0.73446  0.25156  1.0000
  H   H6        1.0  0.58261  0.26542  0.74852  1.0000
  H   H7        1.0  0.09660  0.25156  0.73446  1.0000
  H   H8        1.0  0.08261  0.74852  0.26542  1.0000
  H   H9        1.0  0.43944  0.62990  0.37713  1.0000
  H   H10       1.0  0.44645  0.37008  0.62297  1.0000
  H   H11       1.0  0.93945  0.37713  0.62990  1.0000
  H   H12       1.0  0.94645  0.62297  0.37008  1.0000
  H   H13       1.0  0.61298  0.23234  0.28599  1.0000
  H   H14       1.0  0.13142  0.76754  0.71418  1.0000
  H   H15       1.0  0.11299  0.28600  0.23234  1.0000
  H   H16       1.0  0.63142  0.71418  0.76754  1.0000
  H   H17       1.0  0.47079  0.39836  0.39801  1.0000
  H   H18       1.0  0.26732  0.60161  0.60206  1.0000
  H   H19       1.0  0.97079  0.39801  0.39836  1.0000
  H   H20       1.0  0.76732  0.60207  0.60161  1.0000
  H   H21       1.0  0.81184  0.67855  0.06084  1.0000
  H   H22       1.0  0.55133  0.32133  0.93925  1.0000
  H   H23       1.0  0.31184  0.06084  0.67855  1.0000
  H   H24       1.0  0.05133  0.93925  0.32133  1.0000
  H   H25       1.0  0.94688  0.51482  0.94875  1.0000
  H   H26       1.0  0.41040  0.48499  0.05144  1.0000
  H   H27       1.0  0.44688  0.94876  0.51482  1.0000
  H   H28       1.0  0.91040  0.05145  0.48499  1.0000
  C   C1        1.0  0.87597  0.25286  0.05369  1.0000
  C   C2        1.0  0.18245  0.74705  0.94639  1.0000
  C   C3        1.0  0.37597  0.05369  0.25286  1.0000
  C   C4        1.0  0.68246  0.94639  0.74705  1.0000
  C   C5        1.0  0.79718  0.35810  0.11236  1.0000
  C   C6        1.0  0.26762  0.64173  0.88781  1.0000
  C   C7        1.0  0.29717  0.11237  0.35810  1.0000
  C   C8        1.0  0.76761  0.88781  0.64173  1.0000
  C   C9        1.0  0.65805  0.32964  0.23806  1.0000
  C   C10       1.0  0.22582  0.67022  0.76208  1.0000
  C   C11       1.0  0.15805  0.23806  0.32964  1.0000
  C   C12       1.0  0.72582  0.76208  0.67022  1.0000
  C   C13       1.0  0.57895  0.42271  0.30086  1.0000
  C   C14       1.0  0.30268  0.57720  0.69923  1.0000
  C   C15       1.0  0.07895  0.30086  0.42271  1.0000
  C   C16       1.0  0.80268  0.69923  0.57720  1.0000
  C   C17       1.0  0.63837  0.54879  0.24111  1.0000
  C   C18       1.0  0.42840  0.45113  0.75897  1.0000
  C   C19       1.0  0.13837  0.24111  0.54879  1.0000
  C   C20       1.0  0.92840  0.75898  0.45113  1.0000
  C   C21       1.0  0.77115  0.57965  0.11198  1.0000
  C   C22       1.0  0.46293  0.42024  0.88812  1.0000
  C   C23       1.0  0.27115  0.11198  0.57965  1.0000
  C   C24       1.0  0.96293  0.88812  0.42023  1.0000
  C   C25       1.0  0.84891  0.48575  0.04939  1.0000
  C   C26       1.0  0.38407  0.51409  0.95077  1.0000
  C   C27       1.0  0.34891  0.04939  0.48576  1.0000
  C   C28       1.0  0.88407  0.95078  0.51409  1.0000
  N   N1        1.0  0.04710  0.26036  0.95536  1.0000
  N   N2        1.0  0.26276  0.73962  0.04465  1.0000
  N   N3        1.0  0.54709  0.95536  0.26036  1.0000
  N   N4        1.0  0.76276  0.04465  0.73962  1.0000
  N   N5        1.0  0.57452  0.63731  0.30748  1.0000
  N   N6        1.0  0.51937  0.36260  0.69261  1.0000
  N   N7        1.0  0.07451  0.30748  0.63730  1.0000
  N   N8        1.0  0.01937  0.69261  0.36260  1.0000
  O   O1        1.0  0.13627  0.15929  0.90386  1.0000
  O   O2        1.0  0.19940  0.84075  0.09607  1.0000
  O   O3        1.0  0.63628  0.90386  0.15929  1.0000
  O   O4        1.0  0.69940  0.09607  0.84075  1.0000
  O   O5        1.0  0.78078  0.15711  0.09567  1.0000
  O   O6        1.0  0.03352  0.84281  0.90436  1.0000
  O   O7        1.0  0.28078  0.09567  0.15711  1.0000
  O   O8        1.0  0.53352  0.90435  0.84281  1.0000
