data_image0
_chemical_formula_structural       Fe2H12C12N4O12
_chemical_formula_sum              "Fe2 H12 C12 N4 O12"
_cell_length_a       6.86724
_cell_length_b       6.86726
_cell_length_c       9.65609
_cell_angle_alpha    77.9227
_cell_angle_beta     77.9226
_cell_angle_gamma    66.9819

_space_group_name_H-M_alt    "P 1"
_space_group_IT_number       1

loop_
  _space_group_symop_operation_xyz
  'x, y, z'

loop_
  _atom_site_type_symbol
  _atom_site_label
  _atom_site_symmetry_multiplicity
  _atom_site_fract_x
  _atom_site_fract_y
  _atom_site_fract_z
  _atom_site_occupancy
  Fe  Fe1       1.0  0.50045  0.99966  0.50001  1.0000
  Fe  Fe2       1.0  0.99965  0.50047  0.00001  1.0000
  H   H1        1.0  0.63843  0.54172  0.64148  1.0000
  H   H2        1.0  0.45831  0.36204  0.85910  1.0000
  H   H3        1.0  0.36205  0.45830  0.35911  1.0000
  H   H4        1.0  0.54171  0.63845  0.14148  1.0000
  H   H5        1.0  0.43250  0.19434  0.71000  1.0000
  H   H6        1.0  0.80198  0.56937  0.79180  1.0000
  H   H7        1.0  0.56939  0.80196  0.29180  1.0000
  H   H8        1.0  0.19432  0.43251  0.21002  1.0000
  H   H9        1.0  0.68082  0.13872  0.64436  1.0000
  H   H10       1.0  0.86112  0.32013  0.85528  1.0000
  H   H11       1.0  0.32014  0.86112  0.35528  1.0000
  H   H12       1.0  0.13871  0.68084  0.14436  1.0000
  C   C1        1.0  0.06652  0.13742  0.59516  1.0000
  C   C2        1.0  0.86236  0.93393  0.90432  1.0000
  C   C3        1.0  0.93393  0.86236  0.40432  1.0000
  C   C4        1.0  0.13742  0.06654  0.09517  1.0000
  C   C5        1.0  0.16481  0.92968  0.68844  1.0000
  C   C6        1.0  0.06983  0.83502  0.81083  1.0000
  C   C7        1.0  0.83501  0.06983  0.31084  1.0000
  C   C8        1.0  0.92969  0.16480  0.18846  1.0000
  C   C9        1.0  0.47622  0.62332  0.69197  1.0000
  C   C10       1.0  0.37640  0.52381  0.80803  1.0000
  C   C11       1.0  0.52382  0.37639  0.30805  1.0000
  C   C12       1.0  0.62334  0.47620  0.19200  1.0000
  N   N1        1.0  0.37280  0.82538  0.63360  1.0000
  N   N2        1.0  0.17413  0.62726  0.86621  1.0000
  N   N3        1.0  0.62728  0.17414  0.36620  1.0000
  N   N4        1.0  0.82541  0.37281  0.13360  1.0000
  O   O1        1.0  0.20691  0.20302  0.50940  1.0000
  O   O2        1.0  0.79664  0.79404  0.99056  1.0000
  O   O3        1.0  0.79405  0.79665  0.49056  1.0000
  O   O4        1.0  0.20305  0.20691  0.00940  1.0000
  O   O5        1.0  0.86855  0.22731  0.59374  1.0000
  O   O6        1.0  0.77291  0.13199  0.90540  1.0000
  O   O7        1.0  0.13197  0.77291  0.40541  1.0000
  O   O8        1.0  0.22730  0.86857  0.09373  1.0000
  O   O9        1.0  0.55730  0.08452  0.66694  1.0000
  O   O10       1.0  0.91354  0.44469  0.83331  1.0000
  O   O11       1.0  0.44470  0.91353  0.33332  1.0000
  O   O12       1.0  0.08451  0.55731  0.16694  1.0000
