data_image0
_chemical_formula_structural       Cu2H12C6S4Cl2
_chemical_formula_sum              "Cu2 H12 C6 S4 Cl2"
_cell_length_a       6.84633
_cell_length_b       7.06192
_cell_length_c       7.2408
_cell_angle_alpha    86.3923
_cell_angle_beta     82.4988
_cell_angle_gamma    61.0355

_space_group_name_H-M_alt    "P 1"
_space_group_IT_number       1

loop_
  _space_group_symop_operation_xyz
  'x, y, z'

loop_
  _atom_site_type_symbol
  _atom_site_label
  _atom_site_symmetry_multiplicity
  _atom_site_fract_x
  _atom_site_fract_y
  _atom_site_fract_z
  _atom_site_occupancy
  Cu  Cu1       1.0  0.10277  0.98042  0.26815  1.0000
  Cu  Cu2       1.0  0.08327  0.01987  0.76819  1.0000
  H   H1        1.0  0.39251  0.59885  0.54143  1.0000
  H   H2        1.0  0.99066  0.40213  0.04206  1.0000
  H   H3        1.0  0.29619  0.39860  0.56801  1.0000
  H   H4        1.0  0.69398  0.60168  0.06846  1.0000
  H   H5        1.0  0.65882  0.80797  0.70385  1.0000
  H   H6        1.0  0.46686  0.19152  0.20349  1.0000
  H   H7        1.0  0.73053  0.99427  0.57434  1.0000
  H   H8        1.0  0.72493  0.00549  0.07405  1.0000
  H   H9        1.0  0.73349  0.76719  0.33713  1.0000
  H   H10       1.0  0.50121  0.23243  0.83673  1.0000
  H   H11       1.0  0.87965  0.52465  0.46850  1.0000
  H   H12       1.0  0.40453  0.47500  0.96835  1.0000
  C   C1        1.0  0.24826  0.57030  0.54663  1.0000
  C   C2        1.0  0.81806  0.43013  0.04702  1.0000
  C   C3        1.0  0.79004  0.82343  0.61017  1.0000
  C   C4        1.0  0.61357  0.17631  0.10997  1.0000
  C   C5        1.0  0.85799  0.68737  0.43634  1.0000
  C   C6        1.0  0.54564  0.31238  0.93618  1.0000
  S   S1        1.0  0.12792  0.65599  0.32929  1.0000
  S   S2        1.0  0.78410  0.34415  0.82946  1.0000
  S   S3        1.0  0.03637  0.73066  0.73667  1.0000
  S   S4        1.0  0.76678  0.26933  0.23676  1.0000
  Cl  Cl1       1.0  0.27094  0.06720  0.48469  1.0000
  Cl  Cl2       1.0  0.33804  0.93269  0.98473  1.0000
