data_image0
_chemical_formula_structural       Zn4H40C48I8N16
_chemical_formula_sum              "Zn4 H40 C48 I8 N16"
_cell_length_a       8.33683
_cell_length_b       11.7228
_cell_length_c       15.0499
_cell_angle_alpha    90.0006
_cell_angle_beta     90.0009
_cell_angle_gamma    90.0003

_space_group_name_H-M_alt    "P 1"
_space_group_IT_number       1

loop_
  _space_group_symop_operation_xyz
  'x, y, z'

loop_
  _atom_site_type_symbol
  _atom_site_label
  _atom_site_symmetry_multiplicity
  _atom_site_fract_x
  _atom_site_fract_y
  _atom_site_fract_z
  _atom_site_occupancy
  Zn  Zn1       1.0  0.72475  0.99343  0.75000  1.0000
  Zn  Zn2       1.0  0.77526  0.49342  0.25000  1.0000
  Zn  Zn3       1.0  0.22477  0.50659  0.75000  1.0000
  Zn  Zn4       1.0  0.27525  0.00657  0.25000  1.0000
  H   H1        1.0  0.40642  0.05969  0.82624  1.0000
  H   H2        1.0  0.09358  0.55968  0.17375  1.0000
  H   H3        1.0  0.90645  0.44032  0.67376  1.0000
  H   H4        1.0  0.59355  0.94031  0.32625  1.0000
  H   H5        1.0  0.59355  0.94030  0.17376  1.0000
  H   H6        1.0  0.90645  0.44031  0.82624  1.0000
  H   H7        1.0  0.09356  0.55969  0.32624  1.0000
  H   H8        1.0  0.40645  0.05969  0.67376  1.0000
  H   H9        1.0  0.30225  0.83182  0.04408  1.0000
  H   H10       1.0  0.19774  0.33181  0.95592  1.0000
  H   H11       1.0  0.80224  0.66818  0.45593  1.0000
  H   H12       1.0  0.69775  0.16819  0.54407  1.0000
  H   H13       1.0  0.69774  0.16817  0.95593  1.0000
  H   H14       1.0  0.80224  0.66817  0.04407  1.0000
  H   H15       1.0  0.19775  0.33183  0.54407  1.0000
  H   H16       1.0  0.30225  0.83183  0.45592  1.0000
  H   H17       1.0  0.56309  0.73431  0.01355  1.0000
  H   H18       1.0  0.93689  0.23431  0.98645  1.0000
  H   H19       1.0  0.06308  0.76569  0.48645  1.0000
  H   H20       1.0  0.43692  0.26570  0.51355  1.0000
  H   H21       1.0  0.43691  0.26568  0.98645  1.0000
  H   H22       1.0  0.06308  0.76568  0.01356  1.0000
  H   H23       1.0  0.93691  0.23432  0.51356  1.0000
  H   H24       1.0  0.56309  0.73432  0.48644  1.0000
  H   H25       1.0  0.73661  0.80781  0.88823  1.0000
  H   H26       1.0  0.76339  0.30780  0.11178  1.0000
  H   H27       1.0  0.23660  0.69221  0.61177  1.0000
  H   H28       1.0  0.26340  0.19221  0.38823  1.0000
  H   H29       1.0  0.26339  0.19220  0.11177  1.0000
  H   H30       1.0  0.23660  0.69220  0.88824  1.0000
  H   H31       1.0  0.76340  0.30780  0.38823  1.0000
  H   H32       1.0  0.73661  0.80780  0.61177  1.0000
  H   H33       1.0  0.14428  0.07547  0.89702  1.0000
  H   H34       1.0  0.35572  0.57546  0.10298  1.0000
  H   H35       1.0  0.64429  0.42452  0.60300  1.0000
  H   H36       1.0  0.85570  0.92452  0.39701  1.0000
  H   H37       1.0  0.85569  0.92451  0.10300  1.0000
  H   H38       1.0  0.64430  0.42451  0.89699  1.0000
  H   H39       1.0  0.35570  0.57548  0.39700  1.0000
  H   H40       1.0  0.14431  0.07548  0.60299  1.0000
  C   C1        1.0  0.43497  0.98568  0.86751  1.0000
  C   C2        1.0  0.06502  0.48568  0.13249  1.0000
  C   C3        1.0  0.93499  0.51432  0.63250  1.0000
  C   C4        1.0  0.56501  0.01432  0.36751  1.0000
  C   C5        1.0  0.56500  0.01431  0.13249  1.0000
  C   C6        1.0  0.93500  0.51431  0.86750  1.0000
  C   C7        1.0  0.06501  0.48568  0.36751  1.0000
  C   C8        1.0  0.43500  0.98569  0.63249  1.0000
  C   C9        1.0  0.32810  0.94860  0.93326  1.0000
  C   C10       1.0  0.17189  0.44859  0.06673  1.0000
  C   C11       1.0  0.82811  0.55140  0.56675  1.0000
  C   C12       1.0  0.67188  0.05141  0.43326  1.0000
  C   C13       1.0  0.67188  0.05140  0.06675  1.0000
  C   C14       1.0  0.82811  0.55140  0.93325  1.0000
  C   C15       1.0  0.17189  0.44860  0.43326  1.0000
  C   C16       1.0  0.32812  0.94861  0.56674  1.0000
  C   C17       1.0  0.37779  0.85870  0.98873  1.0000
  C   C18       1.0  0.12219  0.35869  0.01127  1.0000
  C   C19       1.0  0.87780  0.64130  0.51128  1.0000
  C   C20       1.0  0.62221  0.14131  0.48873  1.0000
  C   C21       1.0  0.62220  0.14129  0.01128  1.0000
  C   C22       1.0  0.87778  0.64129  0.98872  1.0000
  C   C23       1.0  0.12221  0.35870  0.48873  1.0000
  C   C24       1.0  0.37780  0.85871  0.51127  1.0000
  C   C25       1.0  0.52454  0.80651  0.97318  1.0000
  C   C26       1.0  0.97545  0.30650  0.02682  1.0000
  C   C27       1.0  0.02454  0.69350  0.52682  1.0000
  C   C28       1.0  0.47545  0.19351  0.47318  1.0000
  C   C29       1.0  0.47545  0.19349  0.02682  1.0000
  C   C30       1.0  0.02453  0.69349  0.97318  1.0000
  C   C31       1.0  0.97546  0.30651  0.47318  1.0000
  C   C32       1.0  0.52455  0.80651  0.52682  1.0000
  C   C33       1.0  0.62073  0.84605  0.90397  1.0000
  C   C34       1.0  0.87926  0.34605  0.09604  1.0000
  C   C35       1.0  0.12074  0.65396  0.59604  1.0000
  C   C36       1.0  0.37927  0.15396  0.40397  1.0000
  C   C37       1.0  0.37926  0.15395  0.09603  1.0000
  C   C38       1.0  0.12073  0.65395  0.90397  1.0000
  C   C39       1.0  0.87926  0.34605  0.40397  1.0000
  C   C40       1.0  0.62074  0.84605  0.59603  1.0000
  C   C41       1.0  0.17296  0.00444  0.94200  1.0000
  C   C42       1.0  0.32704  0.50444  0.05799  1.0000
  C   C43       1.0  0.67295  0.49556  0.55800  1.0000
  C   C44       1.0  0.82704  0.99556  0.44201  1.0000
  C   C45       1.0  0.82704  0.99555  0.05800  1.0000
  C   C46       1.0  0.67296  0.49554  0.94199  1.0000
  C   C47       1.0  0.32705  0.50445  0.44200  1.0000
  C   C48       1.0  0.17297  0.00445  0.55800  1.0000
  I   I1        1.0  0.71249  0.21218  0.75000  1.0000
  I   I2        1.0  0.78754  0.71218  0.25000  1.0000
  I   I3        1.0  0.21249  0.28783  0.75000  1.0000
  I   I4        1.0  0.28756  0.78782  0.25001  1.0000
  I   I5        1.0  0.98530  0.87825  0.75001  1.0000
  I   I6        1.0  0.51470  0.37826  0.25000  1.0000
  I   I7        1.0  0.48533  0.62176  0.75000  1.0000
  I   I8        1.0  0.01469  0.12174  0.25000  1.0000
  N   N1        1.0  0.57789  0.93589  0.85348  1.0000
  N   N2        1.0  0.92211  0.43588  0.14652  1.0000
  N   N3        1.0  0.07790  0.56412  0.64652  1.0000
  N   N4        1.0  0.42209  0.06412  0.35348  1.0000
  N   N5        1.0  0.42209  0.06411  0.14652  1.0000
  N   N6        1.0  0.07791  0.56412  0.85348  1.0000
  N   N7        1.0  0.92210  0.43588  0.35348  1.0000
  N   N8        1.0  0.57791  0.93589  0.64652  1.0000
  N   N9        1.0  0.07106  0.96957  0.00106  1.0000
  N   N10       1.0  0.42893  0.46956  0.99894  1.0000
  N   N11       1.0  0.57107  0.53043  0.49895  1.0000
  N   N12       1.0  0.92893  0.03043  0.50105  1.0000
  N   N13       1.0  0.92892  0.03041  0.99896  1.0000
  N   N14       1.0  0.57107  0.53041  0.00104  1.0000
  N   N15       1.0  0.42893  0.46958  0.50105  1.0000
  N   N16       1.0  0.07107  0.96958  0.49895  1.0000
