data_image0
_chemical_formula_structural       Cd2H40C60N4O8F12
_chemical_formula_sum              "Cd2 H40 C60 N4 O8 F12"
_cell_length_a       8.1665
_cell_length_b       8.16651
_cell_length_c       22.7145
_cell_angle_alpha    100.008
_cell_angle_beta     100.008
_cell_angle_gamma    91.9478

_space_group_name_H-M_alt    "P 1"
_space_group_IT_number       1

loop_
  _space_group_symop_operation_xyz
  'x, y, z'

loop_
  _atom_site_type_symbol
  _atom_site_label
  _atom_site_symmetry_multiplicity
  _atom_site_fract_x
  _atom_site_fract_y
  _atom_site_fract_z
  _atom_site_occupancy
  Cd  Cd1       1.0  0.87568  0.12432  0.50000  1.0000
  Cd  Cd2       1.0  0.62547  0.37453  0.00000  1.0000
  H   H1        1.0  0.68529  0.22284  0.30975  1.0000
  H   H2        1.0  0.77717  0.31471  0.69025  1.0000
  H   H3        1.0  0.33652  0.37407  0.80959  1.0000
  H   H4        1.0  0.62593  0.66349  0.19041  1.0000
  H   H5        1.0  0.73406  0.50851  0.32651  1.0000
  H   H6        1.0  0.49150  0.26594  0.67349  1.0000
  H   H7        1.0  0.06733  0.34199  0.82621  1.0000
  H   H8        1.0  0.65801  0.93267  0.17379  1.0000
  H   H9        1.0  0.86145  0.72549  0.28100  1.0000
  H   H10       1.0  0.27451  0.13855  0.71900  1.0000
  H   H11       1.0  0.80506  0.16867  0.78073  1.0000
  H   H12       1.0  0.83133  0.19495  0.21927  1.0000
  H   H13       1.0  0.16417  0.73617  0.27911  1.0000
  H   H14       1.0  0.26382  0.83583  0.72089  1.0000
  H   H15       1.0  0.79274  0.86418  0.77901  1.0000
  H   H16       1.0  0.13582  0.20726  0.22099  1.0000
  H   H17       1.0  0.34359  0.53525  0.32633  1.0000
  H   H18       1.0  0.46475  0.65642  0.67367  1.0000
  H   H19       1.0  0.04105  0.73244  0.82643  1.0000
  H   H20       1.0  0.26756  0.95895  0.17357  1.0000
  H   H21       1.0  0.21721  0.32222  0.37439  1.0000
  H   H22       1.0  0.67778  0.78279  0.62561  1.0000
  H   H23       1.0  0.30179  0.90743  0.87457  1.0000
  H   H24       1.0  0.09257  0.69822  0.12543  1.0000
  H   H25       1.0  0.48929  0.16024  0.51167  1.0000
  H   H26       1.0  0.83976  0.51071  0.48833  1.0000
  H   H27       1.0  0.60140  0.77241  0.01164  1.0000
  H   H28       1.0  0.22758  0.39860  0.98836  1.0000
  H   H29       1.0  0.26817  0.36417  0.51132  1.0000
  H   H30       1.0  0.63582  0.73182  0.48868  1.0000
  H   H31       1.0  0.39710  0.99313  0.01122  1.0000
  H   H32       1.0  0.00686  0.60290  0.98878  1.0000
  H   H33       1.0  0.18014  0.02304  0.43602  1.0000
  H   H34       1.0  0.97696  0.81986  0.56398  1.0000
  H   H35       1.0  0.66271  0.00610  0.93598  1.0000
  H   H36       1.0  0.99390  0.33729  0.06402  1.0000
  H   H37       1.0  0.40166  0.81949  0.43487  1.0000
  H   H38       1.0  0.18050  0.59834  0.56513  1.0000
  H   H39       1.0  0.86511  0.78351  0.93485  1.0000
  H   H40       1.0  0.21649  0.13489  0.06515  1.0000
  C   C1        1.0  0.50204  0.97204  0.32476  1.0000
  C   C2        1.0  0.02796  0.49796  0.67524  1.0000
  C   C3        1.0  0.60250  0.57233  0.82470  1.0000
  C   C4        1.0  0.42768  0.39750  0.17530  1.0000
  C   C5        1.0  0.66104  0.05293  0.36873  1.0000
  C   C6        1.0  0.94707  0.33896  0.63127  1.0000
  C   C7        1.0  0.56541  0.45722  0.86861  1.0000
  C   C8        1.0  0.54278  0.43460  0.13139  1.0000
  C   C9        1.0  0.74191  0.18644  0.35206  1.0000
  C   C10       1.0  0.81356  0.25809  0.64794  1.0000
  C   C11       1.0  0.41520  0.35979  0.85191  1.0000
  C   C12       1.0  0.64021  0.58480  0.14809  1.0000
  C   C13       1.0  0.89833  0.26936  0.38143  1.0000
  C   C14       1.0  0.73064  0.10167  0.61857  1.0000
  C   C15       1.0  0.36151  0.23308  0.88136  1.0000
  C   C16       1.0  0.76692  0.63849  0.11864  1.0000
  C   C17       1.0  0.96797  0.39985  0.35265  1.0000
  C   C18       1.0  0.60016  0.03203  0.64735  1.0000
  C   C19       1.0  0.20232  0.13458  0.85259  1.0000
  C   C20       1.0  0.86542  0.79768  0.14741  1.0000
  C   C21       1.0  0.86749  0.51328  0.32605  1.0000
  C   C22       1.0  0.48672  0.13251  0.67395  1.0000
  C   C23       1.0  0.06227  0.20815  0.82586  1.0000
  C   C24       1.0  0.79185  0.93773  0.17414  1.0000
  C   C25       1.0  0.93892  0.63539  0.30060  1.0000
  C   C26       1.0  0.36460  0.06108  0.69940  1.0000
  C   C27       1.0  0.91482  0.11101  0.80041  1.0000
  C   C28       1.0  0.88899  0.08518  0.19959  1.0000
  C   C29       1.0  0.10981  0.64256  0.30010  1.0000
  C   C30       1.0  0.35744  0.89019  0.69990  1.0000
  C   C31       1.0  0.90727  0.93968  0.80001  1.0000
  C   C32       1.0  0.06032  0.09273  0.19999  1.0000
  C   C33       1.0  0.21032  0.52983  0.32663  1.0000
  C   C34       1.0  0.47017  0.78968  0.67337  1.0000
  C   C35       1.0  0.04656  0.86596  0.82666  1.0000
  C   C36       1.0  0.13404  0.95344  0.17334  1.0000
  C   C37       1.0  0.14029  0.41052  0.35342  1.0000
  C   C38       1.0  0.58948  0.85971  0.64658  1.0000
  C   C39       1.0  0.19246  0.96309  0.85349  1.0000
  C   C40       1.0  0.03691  0.80754  0.14651  1.0000
  C   C41       1.0  0.51625  0.28840  0.50668  1.0000
  C   C42       1.0  0.71160  0.48375  0.49332  1.0000
  C   C43       1.0  0.46825  0.74046  0.00664  1.0000
  C   C44       1.0  0.25954  0.53175  0.99336  1.0000
  C   C45       1.0  0.39403  0.40262  0.50707  1.0000
  C   C46       1.0  0.59738  0.60597  0.49293  1.0000
  C   C47       1.0  0.35438  0.86303  0.00700  1.0000
  C   C48       1.0  0.13696  0.64562  0.99300  1.0000
  C   C49       1.0  0.43441  0.56558  0.50000  1.0000
  C   C50       1.0  0.18432  0.81568  1.00000  1.0000
  C   C51       1.0  0.18773  0.92819  0.46460  1.0000
  C   C52       1.0  0.07181  0.81227  0.53540  1.0000
  C   C53       1.0  0.78613  0.02716  0.96460  1.0000
  C   C54       1.0  0.97284  0.21387  0.03540  1.0000
  C   C55       1.0  0.30974  0.81396  0.46404  1.0000
  C   C56       1.0  0.18604  0.69026  0.53596  1.0000
  C   C57       1.0  0.89987  0.90460  0.96403  1.0000
  C   C58       1.0  0.09540  0.10013  0.03597  1.0000
  C   C59       1.0  0.30915  0.69085  0.50000  1.0000
  C   C60       1.0  0.05898  0.94102  0.00000  1.0000
  N   N1        1.0  0.67233  0.32767  0.50000  1.0000
  N   N2        1.0  0.42229  0.57771  0.00000  1.0000
  N   N3        1.0  0.07169  0.92832  0.50000  1.0000
  N   N4        1.0  0.82138  0.17862  0.00000  1.0000
  O   O1        1.0  0.69424  0.98371  0.41503  1.0000
  O   O2        1.0  0.01629  0.30576  0.58497  1.0000
  O   O3        1.0  0.68087  0.47033  0.91494  1.0000
  O   O4        1.0  0.52968  0.31913  0.08506  1.0000
  O   O5        1.0  0.98851  0.23785  0.42945  1.0000
  O   O6        1.0  0.76216  0.01150  0.57055  1.0000
  O   O7        1.0  0.44103  0.19119  0.92944  1.0000
  O   O8        1.0  0.80880  0.55897  0.07056  1.0000
  F   F1        1.0  0.50506  0.80260  0.31411  1.0000
  F   F2        1.0  0.19740  0.49495  0.68589  1.0000
  F   F3        1.0  0.76138  0.55871  0.81414  1.0000
  F   F4        1.0  0.44129  0.23862  0.18586  1.0000
  F   F5        1.0  0.36299  0.00974  0.34958  1.0000
  F   F6        1.0  0.99026  0.63701  0.65042  1.0000
  F   F7        1.0  0.58956  0.73618  0.84956  1.0000
  F   F8        1.0  0.26382  0.41044  0.15044  1.0000
  F   F9        1.0  0.47733  0.01985  0.26952  1.0000
  F   F10       1.0  0.98015  0.52267  0.73048  1.0000
  F   F11       1.0  0.49961  0.54185  0.76942  1.0000
  F   F12       1.0  0.45815  0.50039  0.23058  1.0000
