data_image0
_chemical_formula_structural       Cd2H48C44N8O16
_chemical_formula_sum              "Cd2 H48 C44 N8 O16"
_cell_length_a       9.49981
_cell_length_b       10.9747
_cell_length_c       12.78
_cell_angle_alpha    109.202
_cell_angle_beta     111.8
_cell_angle_gamma    90.0001

_space_group_name_H-M_alt    "P 1"
_space_group_IT_number       1

loop_
  _space_group_symop_operation_xyz
  'x, y, z'

loop_
  _atom_site_type_symbol
  _atom_site_label
  _atom_site_symmetry_multiplicity
  _atom_site_fract_x
  _atom_site_fract_y
  _atom_site_fract_z
  _atom_site_occupancy
  Cd  Cd1       1.0  1.00000  0.00000  0.00000  1.0000
  Cd  Cd2       1.0  0.00000  0.50000  0.00000  1.0000
  H   H1        1.0  0.90709  0.48331  0.60835  1.0000
  H   H2        1.0  0.29880  0.01636  0.39153  1.0000
  H   H3        1.0  0.09291  0.51669  0.39166  1.0000
  H   H4        1.0  0.70120  0.98364  0.60847  1.0000
  H   H5        1.0  0.63593  0.07507  0.89090  1.0000
  H   H6        1.0  0.74509  0.42471  0.10888  1.0000
  H   H7        1.0  0.36407  0.92493  0.10909  1.0000
  H   H8        1.0  0.25491  0.57529  0.89112  1.0000
  H   H9        1.0  0.63641  0.22259  0.24235  1.0000
  H   H10       1.0  0.39420  0.27740  0.75754  1.0000
  H   H11       1.0  0.36359  0.77741  0.75765  1.0000
  H   H12       1.0  0.60580  0.72260  0.24246  1.0000
  H   H13       1.0  0.92423  0.15657  0.25580  1.0000
  H   H14       1.0  0.66854  0.34324  0.74394  1.0000
  H   H15       1.0  0.07576  0.84343  0.74420  1.0000
  H   H16       1.0  0.33147  0.65676  0.25606  1.0000
  H   H17       1.0  0.36778  0.16646  0.05053  1.0000
  H   H18       1.0  0.31741  0.33372  0.94944  1.0000
  H   H19       1.0  0.63222  0.83354  0.94946  1.0000
  H   H20       1.0  0.68259  0.66628  0.05056  1.0000
  H   H21       1.0  0.37929  0.11025  0.90706  1.0000
  H   H22       1.0  0.47235  0.38984  0.09289  1.0000
  H   H23       1.0  0.62071  0.88975  0.09294  1.0000
  H   H24       1.0  0.52765  0.61016  0.90711  1.0000
  H   H25       1.0  0.54369  0.12504  0.43424  1.0000
  H   H26       1.0  0.10954  0.37463  0.56551  1.0000
  H   H27       1.0  0.45631  0.87496  0.56576  1.0000
  H   H28       1.0  0.89047  0.62537  0.43449  1.0000
  H   H29       1.0  0.77919  0.27894  0.56097  1.0000
  H   H30       1.0  0.21831  0.22058  0.43878  1.0000
  H   H31       1.0  0.22081  0.72106  0.43903  1.0000
  H   H32       1.0  0.78169  0.77942  0.56122  1.0000
  H   H33       1.0  0.59434  0.54950  0.38158  1.0000
  H   H34       1.0  0.21294  0.95033  0.61853  1.0000
  H   H35       1.0  0.40566  0.45050  0.61842  1.0000
  H   H36       1.0  0.78706  0.04967  0.38147  1.0000
  H   H37       1.0  0.35661  0.39268  0.25187  1.0000
  H   H38       1.0  0.10504  0.10737  0.74830  1.0000
  H   H39       1.0  0.64339  0.60732  0.74813  1.0000
  H   H40       1.0  0.89496  0.89262  0.25170  1.0000
  H   H41       1.0  0.12762  0.93487  0.19280  1.0000
  H   H42       1.0  0.93488  0.56507  0.80712  1.0000
  H   H43       1.0  0.87238  0.06513  0.80720  1.0000
  H   H44       1.0  0.06512  0.43493  0.19288  1.0000
  H   H45       1.0  0.00358  0.80474  0.13658  1.0000
  H   H46       1.0  0.86700  0.69514  0.86343  1.0000
  H   H47       1.0  0.99642  0.19526  0.86342  1.0000
  H   H48       1.0  0.13300  0.30486  0.13657  1.0000
  C   C1        1.0  0.67697  0.10446  0.98832  1.0000
  C   C2        1.0  0.68874  0.39534  0.01147  1.0000
  C   C3        1.0  0.32303  0.89554  0.01168  1.0000
  C   C4        1.0  0.31126  0.60466  0.98853  1.0000
  C   C5        1.0  0.68011  0.18178  0.17288  1.0000
  C   C6        1.0  0.50738  0.31808  0.82697  1.0000
  C   C7        1.0  0.31989  0.81822  0.82712  1.0000
  C   C8        1.0  0.49262  0.68191  0.17303  1.0000
  C   C9        1.0  0.82170  0.14933  0.17773  1.0000
  C   C10       1.0  0.64411  0.35044  0.82204  1.0000
  C   C11       1.0  0.17830  0.85067  0.82227  1.0000
  C   C12       1.0  0.35589  0.64956  0.17796  1.0000
  C   C13       1.0  0.43381  0.18008  0.99971  1.0000
  C   C14       1.0  0.43419  0.31999  0.00023  1.0000
  C   C15       1.0  0.56618  0.81992  0.00029  1.0000
  C   C16       1.0  0.56581  0.68001  0.99977  1.0000
  C   C17       1.0  0.43299  0.24618  0.33225  1.0000
  C   C18       1.0  0.10093  0.25369  0.66771  1.0000
  C   C19       1.0  0.56701  0.75382  0.66776  1.0000
  C   C20       1.0  0.89907  0.74631  0.33229  1.0000
  C   C21       1.0  0.55297  0.21795  0.42214  1.0000
  C   C22       1.0  0.13092  0.28177  0.57767  1.0000
  C   C23       1.0  0.44703  0.78205  0.57787  1.0000
  C   C24       1.0  0.86908  0.71823  0.42233  1.0000
  C   C25       1.0  0.68658  0.30510  0.49429  1.0000
  C   C26       1.0  0.19237  0.19451  0.50552  1.0000
  C   C27       1.0  0.31342  0.69490  0.50571  1.0000
  C   C28       1.0  0.80763  0.80549  0.49448  1.0000
  C   C29       1.0  0.70316  0.42515  0.47927  1.0000
  C   C30       1.0  0.22401  0.07452  0.52065  1.0000
  C   C31       1.0  0.29684  0.57485  0.52073  1.0000
  C   C32       1.0  0.77599  0.92548  0.47935  1.0000
  C   C33       1.0  0.58210  0.45545  0.39119  1.0000
  C   C34       1.0  0.19106  0.04433  0.60883  1.0000
  C   C35       1.0  0.41791  0.54455  0.60881  1.0000
  C   C36       1.0  0.80894  0.95567  0.39117  1.0000
  C   C37       1.0  0.44957  0.36720  0.31895  1.0000
  C   C38       1.0  0.13083  0.13270  0.68109  1.0000
  C   C39       1.0  0.55043  0.63280  0.68105  1.0000
  C   C40       1.0  0.86917  0.86730  0.31890  1.0000
  C   C41       1.0  0.29828  0.14535  0.25003  1.0000
  C   C42       1.0  0.04840  0.35460  0.74990  1.0000
  C   C43       1.0  0.70172  0.85465  0.74997  1.0000
  C   C44       1.0  0.95160  0.64540  0.25010  1.0000
  N   N1        1.0  0.81789  0.10130  0.06219  1.0000
  N   N2        1.0  0.75579  0.39844  0.93756  1.0000
  N   N3        1.0  0.18211  0.89870  0.93781  1.0000
  N   N4        1.0  0.24421  0.60156  0.06244  1.0000
  N   N5        1.0  0.58885  0.15124  0.05176  1.0000
  N   N6        1.0  0.53721  0.34865  0.94810  1.0000
  N   N7        1.0  0.41114  0.84876  0.94824  1.0000
  N   N8        1.0  0.46279  0.65135  0.05190  1.0000
  O   O1        1.0  0.19825  0.16422  0.15833  1.0000
  O   O2        1.0  0.03984  0.33576  0.84157  1.0000
  O   O3        1.0  0.80175  0.83578  0.84167  1.0000
  O   O4        1.0  0.96016  0.66423  0.15843  1.0000
  O   O5        1.0  0.28954  0.03923  0.27039  1.0000
  O   O6        1.0  0.01947  0.46075  0.72954  1.0000
  O   O7        1.0  0.71046  0.96077  0.72961  1.0000
  O   O8        1.0  0.98053  0.53925  0.27046  1.0000
  O   O9        1.0  0.83070  0.51297  0.54556  1.0000
  O   O10       1.0  0.28528  0.98667  0.45435  1.0000
  O   O11       1.0  0.16930  0.48703  0.45444  1.0000
  O   O12       1.0  0.71473  0.01333  0.54565  1.0000
  O   O13       1.0  0.02167  0.89287  0.13472  1.0000
  O   O14       1.0  0.88683  0.60694  0.86513  1.0000
  O   O15       1.0  0.97833  0.10713  0.86528  1.0000
  O   O16       1.0  0.11317  0.39306  0.13487  1.0000
