data_image0
_chemical_formula_structural       P4H30Pb4C16N2O12
_chemical_formula_sum              "P4 H30 Pb4 C16 N2 O12"
_cell_length_a       6.93597
_cell_length_b       7.05806
_cell_length_c       14.5645
_cell_angle_alpha    84.6835
_cell_angle_beta     81.8664
_cell_angle_gamma    89.494

_space_group_name_H-M_alt    "P 1"
_space_group_IT_number       1

loop_
  _space_group_symop_operation_xyz
  'x, y, z'

loop_
  _atom_site_type_symbol
  _atom_site_label
  _atom_site_symmetry_multiplicity
  _atom_site_fract_x
  _atom_site_fract_y
  _atom_site_fract_z
  _atom_site_occupancy
  P   P1        1.0  0.61655  0.15447  0.10477  1.0000
  P   P2        1.0  0.38348  0.84553  0.89523  1.0000
  P   P3        1.0  0.92190  0.63452  0.15272  1.0000
  P   P4        1.0  0.07808  0.36547  0.84727  1.0000
  H   H1        1.0  0.41567  0.51760  0.35035  1.0000
  H   H2        1.0  0.58435  0.48236  0.64965  1.0000
  H   H3        1.0  0.58341  0.12434  0.39912  1.0000
  H   H4        1.0  0.41660  0.87561  0.60089  1.0000
  H   H5        1.0  0.67138  0.33961  0.42987  1.0000
  H   H6        1.0  0.32863  0.66034  0.57015  1.0000
  H   H7        1.0  0.44315  0.18012  0.56131  1.0000
  H   H8        1.0  0.55682  0.81988  0.43870  1.0000
  H   H9        1.0  0.34735  0.39931  0.52140  1.0000
  H   H10       1.0  0.65266  0.60072  0.47859  1.0000
  H   H11       1.0  0.08760  0.15587  0.54532  1.0000
  H   H12       1.0  0.91236  0.84422  0.45467  1.0000
  H   H13       1.0  0.23170  0.00732  0.47198  1.0000
  H   H14       1.0  0.76820  0.99269  0.52804  1.0000
  H   H15       1.0  0.07229  0.39951  0.41275  1.0000
  H   H16       1.0  0.92781  0.60056  0.58721  1.0000
  H   H17       1.0  0.99596  0.17825  0.38254  1.0000
  H   H18       1.0  0.00403  0.82184  0.61745  1.0000
  H   H19       1.0  0.31948  0.12731  0.29182  1.0000
  H   H20       1.0  0.68054  0.87266  0.70819  1.0000
  H   H21       1.0  0.22006  0.34702  0.25297  1.0000
  H   H22       1.0  0.78000  0.65292  0.74701  1.0000
  H   H23       1.0  0.66207  0.10826  0.26442  1.0000
  H   H24       1.0  0.33782  0.89174  0.73558  1.0000
  H   H25       1.0  0.85176  0.24791  0.19989  1.0000
  H   H26       1.0  0.14824  0.75198  0.80015  1.0000
  H   H27       1.0  0.84865  0.49638  0.31194  1.0000
  H   H28       1.0  0.15136  0.50368  0.68807  1.0000
  H   H29       1.0  0.67951  0.67503  0.28403  1.0000
  H   H30       1.0  0.32049  0.32501  0.71594  1.0000
  Pb  Pb1       1.0  0.42014  0.63524  0.11669  1.0000
  Pb  Pb2       1.0  0.57979  0.36469  0.88334  1.0000
  Pb  Pb3       1.0  0.85476  0.85837  0.92660  1.0000
  Pb  Pb4       1.0  0.14522  0.14162  0.07339  1.0000
  C   C1        1.0  0.46073  0.37389  0.33156  1.0000
  C   C2        1.0  0.53930  0.62607  0.66844  1.0000
  C   C3        1.0  0.53959  0.26906  0.41559  1.0000
  C   C4        1.0  0.46042  0.73091  0.58442  1.0000
  C   C5        1.0  0.38439  0.25516  0.50168  1.0000
  C   C6        1.0  0.61560  0.74484  0.49832  1.0000
  C   C7        1.0  0.19953  0.15722  0.48360  1.0000
  C   C8        1.0  0.80045  0.84281  0.51639  1.0000
  C   C9        1.0  0.12311  0.25521  0.39783  1.0000
  C   C10       1.0  0.87691  0.74483  0.60216  1.0000
  C   C11       1.0  0.27977  0.27089  0.31201  1.0000
  C   C12       1.0  0.72026  0.72907  0.68800  1.0000
  C   C13       1.0  0.69302  0.23103  0.21233  1.0000
  C   C14       1.0  0.30698  0.76896  0.78767  1.0000
  C   C15       1.0  0.75617  0.54829  0.25905  1.0000
  C   C16       1.0  0.24384  0.45172  0.74095  1.0000
  N   N1        1.0  0.60746  0.40768  0.24681  1.0000
  N   N2        1.0  0.39257  0.59231  0.75320  1.0000
  O   O1        1.0  0.80297  0.11085  0.03890  1.0000
  O   O2        1.0  0.19703  0.88922  0.96107  1.0000
  O   O3        1.0  0.47687  0.98564  0.13269  1.0000
  O   O4        1.0  0.52319  0.01432  0.86732  1.0000
  O   O5        1.0  0.50473  0.32101  0.05736  1.0000
  O   O6        1.0  0.49517  0.67896  0.94268  1.0000
  O   O7        1.0  0.02203  0.81181  0.17637  1.0000
  O   O8        1.0  0.97804  0.18820  0.82363  1.0000
  O   O9        1.0  0.06989  0.47444  0.12981  1.0000
  O   O10       1.0  0.93011  0.52558  0.87018  1.0000
  O   O11       1.0  0.78412  0.67013  0.07750  1.0000
  O   O12       1.0  0.21589  0.32992  0.92250  1.0000
