data_image0
_chemical_formula_structural       Tb4H24C28N4O24
_chemical_formula_sum              "Tb4 H24 C28 N4 O24"
_cell_length_a       7.93577
_cell_length_b       9.26412
_cell_length_c       12.7001
_cell_angle_alpha    76.1867
_cell_angle_beta     84.4997
_cell_angle_gamma    81.5763

_space_group_name_H-M_alt    "P 1"
_space_group_IT_number       1

loop_
  _space_group_symop_operation_xyz
  'x, y, z'

loop_
  _atom_site_type_symbol
  _atom_site_label
  _atom_site_symmetry_multiplicity
  _atom_site_fract_x
  _atom_site_fract_y
  _atom_site_fract_z
  _atom_site_occupancy
  Tb  Tb1       1.0  0.15009  0.30169  0.02666  1.0000
  Tb  Tb2       1.0  0.84990  0.69832  0.97334  1.0000
  Tb  Tb3       1.0  0.64421  0.38230  0.90597  1.0000
  Tb  Tb4       1.0  0.35579  0.61770  0.09403  1.0000
  H   H1        1.0  0.22104  0.09234  0.23372  1.0000
  H   H2        1.0  0.77896  0.90766  0.76627  1.0000
  H   H3        1.0  0.32797  0.99383  0.15937  1.0000
  H   H4        1.0  0.67203  0.00617  0.84063  1.0000
  H   H5        1.0  0.46925  0.29280  0.09814  1.0000
  H   H6        1.0  0.53075  0.70720  0.90186  1.0000
  H   H7        1.0  0.81500  0.40129  0.07123  1.0000
  H   H8        1.0  0.18499  0.59872  0.92876  1.0000
  H   H9        1.0  0.93665  0.11146  0.87549  1.0000
  H   H10       1.0  0.06335  0.88854  0.12451  1.0000
  H   H11       1.0  0.99657  0.26975  0.81977  1.0000
  H   H12       1.0  0.00343  0.73026  0.18023  1.0000
  H   H13       1.0  0.47145  0.54985  0.58531  1.0000
  H   H14       1.0  0.52855  0.45014  0.41470  1.0000
  H   H15       1.0  0.09568  0.72821  0.36821  1.0000
  H   H16       1.0  0.90433  0.27178  0.63179  1.0000
  H   H17       1.0  0.86281  0.69378  0.51767  1.0000
  H   H18       1.0  0.13720  0.30622  0.48232  1.0000
  H   H19       1.0  0.88878  0.14161  0.31380  1.0000
  H   H20       1.0  0.11121  0.85840  0.68620  1.0000
  H   H21       1.0  0.76653  0.01324  0.49563  1.0000
  H   H22       1.0  0.23346  0.98676  0.50437  1.0000
  H   H23       1.0  0.50339  0.75807  0.35773  1.0000
  H   H24       1.0  0.49660  0.24193  0.64226  1.0000
  C   C1        1.0  0.27181  0.48322  0.77135  1.0000
  C   C2        1.0  0.72819  0.51678  0.22866  1.0000
  C   C3        1.0  0.21600  0.55557  0.66011  1.0000
  C   C4        1.0  0.78400  0.44443  0.33990  1.0000
  C   C5        1.0  0.33576  0.58145  0.57180  1.0000
  C   C6        1.0  0.66425  0.41855  0.42821  1.0000
  C   C7        1.0  0.12619  0.67968  0.45252  1.0000
  C   C8        1.0  0.87382  0.32031  0.54748  1.0000
  C   C9        1.0  0.99644  0.65960  0.53531  1.0000
  C   C10       1.0  0.00357  0.34040  0.46469  1.0000
  C   C11       1.0  0.04181  0.59718  0.64144  1.0000
  C   C12       1.0  0.95819  0.40282  0.35856  1.0000
  C   C13       1.0  0.91284  0.59159  0.73679  1.0000
  C   C14       1.0  0.08716  0.40841  0.26321  1.0000
  C   C15       1.0  0.81441  0.10687  0.11711  1.0000
  C   C16       1.0  0.18559  0.89313  0.88289  1.0000
  C   C17       1.0  0.75903  0.02003  0.22772  1.0000
  C   C18       1.0  0.24097  0.97996  0.77228  1.0000
  C   C19       1.0  0.80501  0.05604  0.32077  1.0000
  C   C20       1.0  0.19498  0.94396  0.67923  1.0000
  C   C21       1.0  0.73653  0.98398  0.42165  1.0000
  C   C22       1.0  0.26347  0.01602  0.57835  1.0000
  C   C23       1.0  0.58922  0.84393  0.34498  1.0000
  C   C24       1.0  0.41078  0.15607  0.65501  1.0000
  C   C25       1.0  0.64744  0.91232  0.23971  1.0000
  C   C26       1.0  0.35256  0.08768  0.76028  1.0000
  C   C27       1.0  0.60059  0.86503  0.14303  1.0000
  C   C28       1.0  0.39940  0.13497  0.85697  1.0000
  N   N1        1.0  0.29290  0.64179  0.46952  1.0000
  N   N2        1.0  0.70711  0.35820  0.53049  1.0000
  N   N3        1.0  0.63251  0.87816  0.43485  1.0000
  N   N4        1.0  0.36748  0.12183  0.56515  1.0000
  O   O1        1.0  0.16883  0.40227  0.83488  1.0000
  O   O2        1.0  0.83117  0.59772  0.16513  1.0000
  O   O3        1.0  0.41416  0.50586  0.79769  1.0000
  O   O4        1.0  0.58584  0.49414  0.20232  1.0000
  O   O5        1.0  0.93540  0.67749  0.79789  1.0000
  O   O6        1.0  0.06460  0.32251  0.20211  1.0000
  O   O7        1.0  0.79475  0.51044  0.75002  1.0000
  O   O8        1.0  0.20525  0.48956  0.24998  1.0000
  O   O9        1.0  0.69498  0.18846  0.06353  1.0000
  O   O10       1.0  0.30502  0.81154  0.93647  1.0000
  O   O11       1.0  0.97313  0.09918  0.08861  1.0000
  O   O12       1.0  0.02686  0.90082  0.91139  1.0000
  O   O13       1.0  0.70602  0.87635  0.06082  1.0000
  O   O14       1.0  0.29397  0.12365  0.93918  1.0000
  O   O15       1.0  0.45772  0.81379  0.14934  1.0000
  O   O16       1.0  0.54228  0.18621  0.85066  1.0000
  O   O17       1.0  0.29539  0.09776  0.16779  1.0000
  O   O18       1.0  0.70461  0.90224  0.83221  1.0000
  O   O19       1.0  0.41223  0.37632  0.04520  1.0000
  O   O20       1.0  0.58777  0.62368  0.95480  1.0000
  O   O21       1.0  0.86760  0.42852  0.99774  1.0000
  O   O22       1.0  0.13240  0.57148  0.00226  1.0000
  O   O23       1.0  0.89569  0.21730  0.84290  1.0000
  O   O24       1.0  0.10431  0.78270  0.15710  1.0000
