data_image0
_chemical_formula_structural       Fe2Cu4H12C24Br4N16
_chemical_formula_sum              "Fe2 Cu4 H12 C24 Br4 N16"
_cell_length_a       8.07473
_cell_length_b       8.07477
_cell_length_c       13.0161
_cell_angle_alpha    88.3156
_cell_angle_beta     88.3156
_cell_angle_gamma    70.2336

_space_group_name_H-M_alt    "P 1"
_space_group_IT_number       1

loop_
  _space_group_symop_operation_xyz
  'x, y, z'

loop_
  _atom_site_type_symbol
  _atom_site_label
  _atom_site_symmetry_multiplicity
  _atom_site_fract_x
  _atom_site_fract_y
  _atom_site_fract_z
  _atom_site_occupancy
  Fe  Fe1       1.0  1.00000  0.50000  0.50000  1.0000
  Fe  Fe2       1.0  0.50000  1.00000  0.00000  1.0000
  Cu  Cu1       1.0  0.44600  0.68708  0.31307  1.0000
  Cu  Cu2       1.0  0.31293  0.55400  0.18693  1.0000
  Cu  Cu3       1.0  0.55400  0.31292  0.68693  1.0000
  Cu  Cu4       1.0  0.68707  0.44600  0.81308  1.0000
  H   H1        1.0  0.05291  0.33989  0.29487  1.0000
  H   H2        1.0  0.66012  0.94710  0.20513  1.0000
  H   H3        1.0  0.94709  0.66011  0.70513  1.0000
  H   H4        1.0  0.33988  0.05290  0.79487  1.0000
  H   H5        1.0  0.15921  0.14830  0.59472  1.0000
  H   H6        1.0  0.85170  0.84079  0.90528  1.0000
  H   H7        1.0  0.84080  0.85170  0.40528  1.0000
  H   H8        1.0  0.14829  0.15921  0.09472  1.0000
  H   H9        1.0  0.24109  0.04256  0.22936  1.0000
  H   H10       1.0  0.95745  0.75891  0.27064  1.0000
  H   H11       1.0  0.75890  0.95744  0.77064  1.0000
  H   H12       1.0  0.04255  0.24109  0.72936  1.0000
  C   C1        1.0  0.11740  0.23073  0.34676  1.0000
  C   C2        1.0  0.76927  0.88260  0.15323  1.0000
  C   C3        1.0  0.88260  0.76927  0.65324  1.0000
  C   C4        1.0  0.23073  0.11740  0.84677  1.0000
  C   C5        1.0  0.74422  0.41936  0.65607  1.0000
  C   C6        1.0  0.58064  0.25578  0.84393  1.0000
  C   C7        1.0  0.25577  0.58064  0.34392  1.0000
  C   C8        1.0  0.41936  0.74423  0.15607  1.0000
  C   C9        1.0  0.17492  0.12503  0.51293  1.0000
  C   C10       1.0  0.87498  0.82508  0.98706  1.0000
  C   C11       1.0  0.82509  0.87497  0.48707  1.0000
  C   C12       1.0  0.12502  0.17492  0.01294  1.0000
  C   C13       1.0  0.21939  0.06745  0.31115  1.0000
  C   C14       1.0  0.93255  0.78062  0.18884  1.0000
  C   C15       1.0  0.78061  0.93254  0.68885  1.0000
  C   C16       1.0  0.06744  0.21939  0.81116  1.0000
  C   C17       1.0  0.67786  0.59988  0.36230  1.0000
  C   C18       1.0  0.40013  0.32213  0.13769  1.0000
  C   C19       1.0  0.32214  0.40012  0.63770  1.0000
  C   C20       1.0  0.59988  0.67786  0.86230  1.0000
  C   C21       1.0  0.27832  0.96203  0.47536  1.0000
  C   C22       1.0  0.03797  0.72169  0.02464  1.0000
  C   C23       1.0  0.72168  0.03797  0.52464  1.0000
  C   C24       1.0  0.96203  0.27832  0.97536  1.0000
  Br  Br1       1.0  0.39052  0.78180  0.57115  1.0000
  Br  Br2       1.0  0.21820  0.60948  0.92884  1.0000
  Br  Br3       1.0  0.60949  0.21819  0.42884  1.0000
  Br  Br4       1.0  0.78180  0.39053  0.07116  1.0000
  N   N1        1.0  0.85112  0.43687  0.59672  1.0000
  N   N2        1.0  0.56313  0.14888  0.90328  1.0000
  N   N3        1.0  0.14887  0.56313  0.40328  1.0000
  N   N4        1.0  0.43687  0.85112  0.09672  1.0000
  N   N5        1.0  0.30378  0.93134  0.37454  1.0000
  N   N6        1.0  0.06866  0.69622  0.12545  1.0000
  N   N7        1.0  0.69622  0.06866  0.62546  1.0000
  N   N8        1.0  0.93133  0.30378  0.87455  1.0000
  N   N9        1.0  0.09875  0.26169  0.44888  1.0000
  N   N10       1.0  0.73831  0.90125  0.05111  1.0000
  N   N11       1.0  0.90125  0.73830  0.55111  1.0000
  N   N12       1.0  0.26169  0.09875  0.94889  1.0000
  N   N13       1.0  0.81289  0.55577  0.40498  1.0000
  N   N14       1.0  0.44422  0.18712  0.09502  1.0000
  N   N15       1.0  0.18711  0.44422  0.59502  1.0000
  N   N16       1.0  0.55578  0.81288  0.90498  1.0000
