data_image0
_chemical_formula_structural       Mn2H60C52N4Cl4O4
_chemical_formula_sum              "Mn2 H60 C52 N4 Cl4 O4"
_cell_length_a       9.62337
_cell_length_b       9.96213
_cell_length_c       13.2163
_cell_angle_alpha    99.2925
_cell_angle_beta     89.9995
_cell_angle_gamma    90.0001

_space_group_name_H-M_alt    "P 1"
_space_group_IT_number       1

loop_
  _space_group_symop_operation_xyz
  'x, y, z'

loop_
  _atom_site_type_symbol
  _atom_site_label
  _atom_site_symmetry_multiplicity
  _atom_site_fract_x
  _atom_site_fract_y
  _atom_site_fract_z
  _atom_site_occupancy
  Mn  Mn1       1.0  0.65392  0.51796  0.73927  1.0000
  Mn  Mn2       1.0  0.15392  0.48204  0.26073  1.0000
  H   H1        1.0  0.90781  0.08537  0.88627  1.0000
  H   H2        1.0  0.40781  0.91462  0.11373  1.0000
  H   H3        1.0  0.74130  0.90404  0.91327  1.0000
  H   H4        1.0  0.24130  0.09596  0.08673  1.0000
  H   H5        1.0  0.49103  0.95619  0.93708  1.0000
  H   H6        1.0  0.99103  0.04381  0.06292  1.0000
  H   H7        1.0  0.40551  0.19233  0.93608  1.0000
  H   H8        1.0  0.90551  0.80767  0.06393  1.0000
  H   H9        1.0  0.57086  0.37377  0.90621  1.0000
  H   H10       1.0  0.07086  0.62623  0.09378  1.0000
  H   H11       1.0  0.02476  0.27200  0.94088  1.0000
  H   H12       1.0  0.52476  0.72800  0.05912  1.0000
  H   H13       1.0  0.28909  0.35976  0.85005  1.0000
  H   H14       1.0  0.78910  0.64024  0.14995  1.0000
  H   H15       1.0  0.23546  0.38941  0.98076  1.0000
  H   H16       1.0  0.73547  0.61059  0.01924  1.0000
  H   H17       1.0  0.29197  0.52715  0.91946  1.0000
  H   H18       1.0  0.79197  0.47286  0.08054  1.0000
  H   H19       1.0  0.22945  0.66453  0.83035  1.0000
  H   H20       1.0  0.72946  0.33547  0.16965  1.0000
  H   H21       1.0  0.02902  0.81687  0.88031  1.0000
  H   H22       1.0  0.52902  0.18313  0.11969  1.0000
  H   H23       1.0  0.94677  0.75997  0.76074  1.0000
  H   H24       1.0  0.44678  0.24003  0.23927  1.0000
  H   H25       1.0  0.06096  0.98268  0.75769  1.0000
  H   H26       1.0  0.56096  0.01732  0.24231  1.0000
  H   H27       1.0  0.22221  0.91737  0.79239  1.0000
  H   H28       1.0  0.72221  0.08263  0.20761  1.0000
  H   H29       1.0  0.21273  0.91438  0.60224  1.0000
  H   H30       1.0  0.71273  0.08563  0.39776  1.0000
  H   H31       1.0  0.05916  0.81742  0.59427  1.0000
  H   H32       1.0  0.55916  0.18258  0.40573  1.0000
  H   H33       1.0  0.26455  0.66660  0.54565  1.0000
  H   H34       1.0  0.76455  0.33341  0.45435  1.0000
  H   H35       1.0  0.34326  0.72712  0.66589  1.0000
  H   H36       1.0  0.84326  0.27288  0.33411  1.0000
  H   H37       1.0  0.06816  0.57078  0.63208  1.0000
  H   H38       1.0  0.56816  0.42921  0.36792  1.0000
  H   H39       1.0  0.28187  0.13908  0.60446  1.0000
  H   H40       1.0  0.78187  0.86092  0.39554  1.0000
  H   H41       1.0  0.99880  0.33011  0.66146  1.0000
  H   H42       1.0  0.49880  0.66989  0.33854  1.0000
  H   H43       1.0  0.06892  0.20421  0.56293  1.0000
  H   H44       1.0  0.56891  0.79579  0.43707  1.0000
  H   H45       1.0  0.04028  0.37303  0.54018  1.0000
  H   H46       1.0  0.54027  0.62698  0.45983  1.0000
  H   H47       1.0  0.82044  0.84619  0.61057  1.0000
  H   H48       1.0  0.32044  0.15381  0.38943  1.0000
  H   H49       1.0  0.89842  0.07768  0.58528  1.0000
  H   H50       1.0  0.39842  0.92232  0.41472  1.0000
  H   H51       1.0  0.57863  0.81008  0.66217  1.0000
  H   H52       1.0  0.07863  0.18992  0.33783  1.0000
  H   H53       1.0  0.40916  0.00027  0.68130  1.0000
  H   H54       1.0  0.90916  0.99973  0.31870  1.0000
  H   H55       1.0  0.73072  0.27058  0.60901  1.0000
  H   H56       1.0  0.23072  0.72942  0.39099  1.0000
  H   H57       1.0  0.94318  0.54528  0.81128  1.0000
  H   H58       1.0  0.44318  0.45472  0.18872  1.0000
  H   H59       1.0  0.35618  0.48966  0.68455  1.0000
  H   H60       1.0  0.85618  0.51034  0.31545  1.0000
  C   C1        1.0  0.79815  0.10980  0.89914  1.0000
  C   C2        1.0  0.29815  0.89019  0.10086  1.0000
  C   C3        1.0  0.70504  0.00798  0.91455  1.0000
  C   C4        1.0  0.20504  0.99202  0.08545  1.0000
  C   C5        1.0  0.56355  0.03724  0.92750  1.0000
  C   C6        1.0  0.06356  0.96275  0.07250  1.0000
  C   C7        1.0  0.51579  0.16920  0.92541  1.0000
  C   C8        1.0  0.01579  0.83080  0.07459  1.0000
  C   C9        1.0  0.60824  0.27100  0.90873  1.0000
  C   C10       1.0  0.10824  0.72900  0.09127  1.0000
  C   C11       1.0  0.75069  0.24230  0.89504  1.0000
  C   C12       1.0  0.25069  0.75770  0.10496  1.0000
  C   C13       1.0  0.84636  0.35065  0.87293  1.0000
  C   C14       1.0  0.34637  0.64935  0.12707  1.0000
  C   C15       1.0  0.98795  0.34889  0.89770  1.0000
  C   C16       1.0  0.48796  0.65111  0.10230  1.0000
  C   C17       1.0  0.08654  0.44580  0.87664  1.0000
  C   C18       1.0  0.58654  0.55420  0.12337  1.0000
  C   C19       1.0  0.23413  0.43118  0.90886  1.0000
  C   C20       1.0  0.73414  0.56883  0.09114  1.0000
  C   C21       1.0  0.13104  0.64813  0.78772  1.0000
  C   C22       1.0  0.63104  0.35187  0.21228  1.0000
  C   C23       1.0  0.04844  0.78142  0.79853  1.0000
  C   C24       1.0  0.54845  0.21858  0.20147  1.0000
  C   C25       1.0  0.12459  0.88981  0.75018  1.0000
  C   C26       1.0  0.62460  0.11018  0.24982  1.0000
  C   C27       1.0  0.15697  0.83752  0.63753  1.0000
  C   C28       1.0  0.65697  0.16248  0.36247  1.0000
  C   C29       1.0  0.24260  0.70692  0.62640  1.0000
  C   C30       1.0  0.74261  0.29308  0.37360  1.0000
  C   C31       1.0  0.16648  0.59632  0.67316  1.0000
  C   C32       1.0  0.66648  0.40368  0.32684  1.0000
  C   C33       1.0  0.31729  0.24192  0.63201  1.0000
  C   C34       1.0  0.81729  0.75808  0.36799  1.0000
  C   C35       1.0  0.21825  0.34666  0.63327  1.0000
  C   C36       1.0  0.71824  0.65334  0.36673  1.0000
  C   C37       1.0  0.07331  0.31146  0.59770  1.0000
  C   C38       1.0  0.57331  0.68855  0.40230  1.0000
  C   C39       1.0  0.55788  0.14756  0.64396  1.0000
  C   C40       1.0  0.05787  0.85244  0.35604  1.0000
  C   C41       1.0  0.45903  0.26296  0.65435  1.0000
  C   C42       1.0  0.95902  0.73704  0.34565  1.0000
  C   C43       1.0  0.74816  0.93153  0.62054  1.0000
  C   C44       1.0  0.24816  0.06847  0.37946  1.0000
  C   C45       1.0  0.79127  0.06120  0.60680  1.0000
  C   C46       1.0  0.29127  0.93880  0.39320  1.0000
  C   C47       1.0  0.61052  0.91006  0.64747  1.0000
  C   C48       1.0  0.11052  0.08994  0.35253  1.0000
  C   C49       1.0  0.51567  0.01689  0.65821  1.0000
  C   C50       1.0  0.01567  0.98311  0.34179  1.0000
  C   C51       1.0  0.69746  0.16913  0.61979  1.0000
  C   C52       1.0  0.19746  0.83087  0.38021  1.0000
  N   N1        1.0  0.04779  0.54745  0.82844  1.0000
  N   N2        1.0  0.54779  0.45255  0.17156  1.0000
  N   N3        1.0  0.25306  0.47597  0.66480  1.0000
  N   N4        1.0  0.75306  0.52403  0.33520  1.0000
  Cl  Cl1       1.0  0.51818  0.68158  0.83693  1.0000
  Cl  Cl2       1.0  0.01818  0.31842  0.16307  1.0000
  Cl  Cl3       1.0  0.79050  0.57015  0.60776  1.0000
  Cl  Cl4       1.0  0.29050  0.42986  0.39223  1.0000
  O   O1        1.0  0.79399  0.44961  0.83210  1.0000
  O   O2        1.0  0.29399  0.55039  0.16790  1.0000
  O   O3        1.0  0.50751  0.38483  0.68071  1.0000
  O   O4        1.0  0.00751  0.61517  0.31929  1.0000
