data_image0
_chemical_formula_structural       Ca2P2H26C6O22
_chemical_formula_sum              "Ca2 P2 H26 C6 O22"
_cell_length_a       5.74586
_cell_length_b       7.69018
_cell_length_c       12.3114
_cell_angle_alpha    90
_cell_angle_beta     103.093
_cell_angle_gamma    89.9999

_space_group_name_H-M_alt    "P 1"
_space_group_IT_number       1

loop_
  _space_group_symop_operation_xyz
  'x, y, z'

loop_
  _atom_site_type_symbol
  _atom_site_label
  _atom_site_symmetry_multiplicity
  _atom_site_fract_x
  _atom_site_fract_y
  _atom_site_fract_z
  _atom_site_occupancy
  Ca  Ca1       1.0  0.24280  0.49893  0.21742  1.0000
  Ca  Ca2       1.0  0.75720  0.99893  0.78258  1.0000
  P   P1        1.0  0.50781  0.05796  0.19310  1.0000
  P   P2        1.0  0.49219  0.55797  0.80690  1.0000
  H   H1        1.0  0.47237  0.78430  0.52714  1.0000
  H   H2        1.0  0.52763  0.28430  0.47286  1.0000
  H   H3        1.0  0.25808  0.00361  0.39302  1.0000
  H   H4        1.0  0.74192  0.50361  0.60698  1.0000
  H   H5        1.0  0.57874  0.01774  0.41615  1.0000
  H   H6        1.0  0.42126  0.51774  0.58385  1.0000
  H   H7        1.0  0.10505  0.68592  0.42316  1.0000
  H   H8        1.0  0.89495  0.18592  0.57684  1.0000
  H   H9        1.0  0.86777  0.15960  0.26723  1.0000
  H   H10       1.0  0.13223  0.65960  0.73277  1.0000
  H   H11       1.0  0.47539  0.57620  0.02557  1.0000
  H   H12       1.0  0.52461  0.07620  0.97443  1.0000
  H   H13       1.0  0.43428  0.76022  0.08009  1.0000
  H   H14       1.0  0.56571  0.26022  0.91991  1.0000
  H   H15       1.0  0.05766  0.30552  0.39861  1.0000
  H   H16       1.0  0.94234  0.80553  0.60139  1.0000
  H   H17       1.0  0.84862  0.41705  0.32578  1.0000
  H   H18       1.0  0.15139  0.91705  0.67422  1.0000
  H   H19       1.0  0.76141  0.67632  0.14116  1.0000
  H   H20       1.0  0.23859  0.17632  0.85884  1.0000
  H   H21       1.0  0.93255  0.82866  0.19289  1.0000
  H   H22       1.0  0.06745  0.32866  0.80711  1.0000
  H   H23       1.0  0.85288  0.43764  0.00369  1.0000
  H   H24       1.0  0.14712  0.93764  0.99631  1.0000
  H   H25       1.0  0.05239  0.30805  0.99283  1.0000
  H   H26       1.0  0.94761  0.80806  0.00717  1.0000
  C   C1        1.0  0.67242  0.67382  0.41524  1.0000
  C   C2        1.0  0.32759  0.17382  0.58476  1.0000
  C   C3        1.0  0.44768  0.76173  0.43664  1.0000
  C   C4        1.0  0.55232  0.26173  0.56335  1.0000
  C   C5        1.0  0.42039  0.93918  0.38028  1.0000
  C   C6        1.0  0.57961  0.43918  0.61972  1.0000
  O   O1        1.0  0.43826  0.98385  0.07537  1.0000
  O   O2        1.0  0.56174  0.48385  0.92464  1.0000
  O   O3        1.0  0.79017  0.04270  0.23771  1.0000
  O   O4        1.0  0.20983  0.54269  0.76229  1.0000
  O   O5        1.0  0.42734  0.23743  0.21441  1.0000
  O   O6        1.0  0.57266  0.73743  0.78559  1.0000
  O   O7        1.0  0.39794  0.91371  0.26261  1.0000
  O   O8        1.0  0.60206  0.41371  0.73738  1.0000
  O   O9        1.0  0.25049  0.65081  0.39459  1.0000
  O   O10       1.0  0.74951  0.15081  0.60541  1.0000
  O   O11       1.0  0.64174  0.55193  0.34410  1.0000
  O   O12       1.0  0.35826  0.05193  0.65589  1.0000
  O   O13       1.0  0.87335  0.73237  0.46822  1.0000
  O   O14       1.0  0.12665  0.23237  0.53178  1.0000
  O   O15       1.0  0.46503  0.63454  0.09754  1.0000
  O   O16       1.0  0.53496  0.13454  0.90246  1.0000
  O   O17       1.0  0.98130  0.33394  0.31905  1.0000
  O   O18       1.0  0.01870  0.83394  0.68095  1.0000
  O   O19       1.0  0.93181  0.71637  0.15452  1.0000
  O   O20       1.0  0.06819  0.21637  0.84548  1.0000
  O   O21       1.0  0.00090  0.38367  0.04748  1.0000
  O   O22       1.0  0.99910  0.88367  0.95252  1.0000
