data_image0
_chemical_formula_structural       Ni2H46C38N2O18
_chemical_formula_sum              "Ni2 H46 C38 N2 O18"
_cell_length_a       7.61965
_cell_length_b       8.93923
_cell_length_c       14.8214
_cell_angle_alpha    105.758
_cell_angle_beta     96.1823
_cell_angle_gamma    92.4339

_space_group_name_H-M_alt    "P 1"
_space_group_IT_number       1

loop_
  _space_group_symop_operation_xyz
  'x, y, z'

loop_
  _atom_site_type_symbol
  _atom_site_label
  _atom_site_symmetry_multiplicity
  _atom_site_fract_x
  _atom_site_fract_y
  _atom_site_fract_z
  _atom_site_occupancy
  Ni  Ni1       1.0  0.50000  0.50000  1.00000  1.0000
  Ni  Ni2       1.0  1.00000  0.50000  1.00000  1.0000
  H   H1        1.0  0.20930  0.69518  0.96588  1.0000
  H   H2        1.0  0.79070  0.30482  0.03413  1.0000
  H   H3        1.0  0.18460  0.55567  0.87864  1.0000
  H   H4        1.0  0.81540  0.44433  0.12136  1.0000
  H   H5        1.0  0.21420  0.29977  0.97837  1.0000
  H   H6        1.0  0.78580  0.70023  0.02163  1.0000
  H   H7        1.0  0.28020  0.41286  0.09038  1.0000
  H   H8        1.0  0.71980  0.58714  0.90962  1.0000
  H   H9        1.0  0.22070  0.73391  0.27749  1.0000
  H   H10       1.0  0.77930  0.26609  0.72251  1.0000
  H   H11       1.0  0.34110  0.90944  0.43698  1.0000
  H   H12       1.0  0.65890  0.09057  0.56302  1.0000
  H   H13       1.0  0.95678  0.11244  0.21157  1.0000
  H   H14       1.0  0.04321  0.88755  0.78843  1.0000
  H   H15       1.0  0.06618  0.13859  0.57587  1.0000
  H   H16       1.0  0.93382  0.86141  0.42413  1.0000
  H   H17       1.0  0.18342  0.29753  0.73851  1.0000
  H   H18       1.0  0.81658  0.70247  0.26149  1.0000
  H   H19       1.0  0.63779  0.45905  0.63369  1.0000
  H   H20       1.0  0.36221  0.54095  0.36631  1.0000
  H   H21       1.0  0.75908  0.31596  0.39625  1.0000
  H   H22       1.0  0.24092  0.68404  0.60375  1.0000
  H   H23       1.0  0.79611  0.28389  0.51053  1.0000
  H   H24       1.0  0.20389  0.71612  0.48947  1.0000
  H   H25       1.0  0.73315  0.46978  0.49874  1.0000
  H   H26       1.0  0.26686  0.53022  0.50126  1.0000
  H   H27       1.0  0.01248  0.51861  0.34531  1.0000
  H   H28       1.0  0.98751  0.48139  0.65469  1.0000
  H   H29       1.0  0.87939  0.34695  0.27959  1.0000
  H   H30       1.0  0.12061  0.65304  0.72041  1.0000
  H   H31       1.0  0.09832  0.38063  0.25088  1.0000
  H   H32       1.0  0.90168  0.61937  0.74912  1.0000
  H   H33       1.0  0.57097  0.80250  0.16364  1.0000
  H   H34       1.0  0.42904  0.19750  0.83636  1.0000
  H   H35       1.0  0.27124  0.95045  0.00445  1.0000
  H   H36       1.0  0.72875  0.04955  0.99555  1.0000
  H   H37       1.0  0.39001  0.13691  0.05180  1.0000
  H   H38       1.0  0.60998  0.86309  0.94821  1.0000
  H   H39       1.0  0.20560  0.08733  0.10508  1.0000
  H   H40       1.0  0.79440  0.91267  0.89493  1.0000
  H   H41       1.0  0.60609  0.03047  0.25965  1.0000
  H   H42       1.0  0.39391  0.96953  0.74035  1.0000
  H   H43       1.0  0.41959  0.14565  0.26151  1.0000
  H   H44       1.0  0.58041  0.85434  0.73849  1.0000
  H   H45       1.0  0.60056  0.18192  0.20140  1.0000
  H   H46       1.0  0.39944  0.81808  0.79860  1.0000
  C   C1        1.0  0.99892  0.80495  0.14377  1.0000
  C   C2        1.0  0.00109  0.19505  0.85622  1.0000
  C   C3        1.0  0.07884  0.91306  0.23691  1.0000
  C   C4        1.0  0.92117  0.08694  0.76308  1.0000
  C   C5        1.0  0.18963  0.85528  0.29909  1.0000
  C   C6        1.0  0.81038  0.14472  0.70091  1.0000
  C   C7        1.0  0.25549  0.95328  0.38773  1.0000
  C   C8        1.0  0.74451  0.04673  0.61227  1.0000
  C   C9        1.0  0.21639  0.10916  0.41540  1.0000
  C   C10       1.0  0.78362  0.89084  0.58460  1.0000
  C   C11       1.0  0.11306  0.16879  0.35003  1.0000
  C   C12       1.0  0.88694  0.83121  0.64997  1.0000
  C   C13       1.0  0.04113  0.07009  0.26201  1.0000
  C   C14       1.0  0.95887  0.92991  0.73799  1.0000
  C   C15       1.0  0.28366  0.20866  0.51174  1.0000
  C   C16       1.0  0.71634  0.79134  0.48826  1.0000
  C   C17       1.0  0.19084  0.20979  0.58814  1.0000
  C   C18       1.0  0.80916  0.79021  0.41186  1.0000
  C   C19       1.0  0.25620  0.29832  0.67942  1.0000
  C   C20       1.0  0.74380  0.70169  0.32058  1.0000
  C   C21       1.0  0.41667  0.38882  0.69526  1.0000
  C   C22       1.0  0.58333  0.61119  0.30474  1.0000
  C   C23       1.0  0.51287  0.38838  0.61963  1.0000
  C   C24       1.0  0.48713  0.61163  0.38037  1.0000
  C   C25       1.0  0.44772  0.29750  0.52859  1.0000
  C   C26       1.0  0.55228  0.70251  0.47141  1.0000
  C   C27       1.0  0.49245  0.47936  0.79354  1.0000
  C   C28       1.0  0.50755  0.52064  0.20646  1.0000
  C   C29       1.0  0.71623  0.34337  0.46642  1.0000
  C   C30       1.0  0.28377  0.65664  0.53358  1.0000
  C   C31       1.0  0.01563  0.39503  0.30846  1.0000
  C   C32       1.0  0.98437  0.60497  0.69153  1.0000
  C   C33       1.0  0.47785  0.83225  0.11059  1.0000
  C   C34       1.0  0.52215  0.16775  0.88941  1.0000
  C   C35       1.0  0.31897  0.04135  0.06938  1.0000
  C   C36       1.0  0.68102  0.95865  0.93062  1.0000
  C   C37       1.0  0.52068  0.09064  0.21888  1.0000
  C   C38       1.0  0.47932  0.90936  0.78112  1.0000
  N   N1        1.0  0.43800  0.97973  0.13181  1.0000
  N   N2        1.0  0.56200  0.02027  0.86819  1.0000
  O   O1        1.0  0.06773  0.67404  0.11934  1.0000
  O   O2        1.0  0.93227  0.32596  0.88066  1.0000
  O   O3        1.0  0.86944  0.84723  0.09713  1.0000
  O   O4        1.0  0.13056  0.15277  0.90287  1.0000
  O   O5        1.0  0.64154  0.55429  0.80605  1.0000
  O   O6        1.0  0.35846  0.44571  0.19395  1.0000
  O   O7        1.0  0.40006  0.47036  0.86057  1.0000
  O   O8        1.0  0.59994  0.52963  0.13943  1.0000
  O   O9        1.0  0.08916  0.32446  0.37883  1.0000
  O   O10       1.0  0.91084  0.67554  0.62117  1.0000
  O   O11       1.0  0.53431  0.28471  0.45119  1.0000
  O   O12       1.0  0.46569  0.71530  0.54881  1.0000
  O   O13       1.0  0.11384  0.63167  0.91831  1.0000
  O   O14       1.0  0.88616  0.36833  0.08169  1.0000
  O   O15       1.0  0.25152  0.41214  0.02054  1.0000
  O   O16       1.0  0.74848  0.58785  0.97946  1.0000
  O   O17       1.0  0.41846  0.72979  0.03459  1.0000
  O   O18       1.0  0.58154  0.27021  0.96541  1.0000
