data_image0
_chemical_formula_structural       Zn2H30C22N2O16
_chemical_formula_sum              "Zn2 H30 C22 N2 O16"
_cell_length_a       8.97945
_cell_length_b       8.82466
_cell_length_c       9.70082
_cell_angle_alpha    86.4142
_cell_angle_beta     81.7299
_cell_angle_gamma    71.7451

_space_group_name_H-M_alt    "P 1"
_space_group_IT_number       1

loop_
  _space_group_symop_operation_xyz
  'x, y, z'

loop_
  _atom_site_type_symbol
  _atom_site_label
  _atom_site_symmetry_multiplicity
  _atom_site_fract_x
  _atom_site_fract_y
  _atom_site_fract_z
  _atom_site_occupancy
  Zn  Zn1       1.0  0.16246  0.61834  0.67741  1.0000
  Zn  Zn2       1.0  0.81857  0.35351  0.41910  1.0000
  H   H1        1.0  0.01304  0.82256  0.52860  1.0000
  H   H2        1.0  0.04065  0.65476  0.45688  1.0000
  H   H3        1.0  0.28362  0.82688  0.76286  1.0000
  H   H4        1.0  0.39745  0.72460  0.63247  1.0000
  H   H5        1.0  0.33909  0.31801  0.60315  1.0000
  H   H6        1.0  0.35852  0.39912  0.45706  1.0000
  H   H7        1.0  0.01836  0.25789  0.58677  1.0000
  H   H8        1.0  0.96111  0.10626  0.56745  1.0000
  H   H9        1.0  0.61647  0.21685  0.34656  1.0000
  H   H10       1.0  0.72360  0.09666  0.45395  1.0000
  H   H11       1.0  0.80886  0.46425  0.65262  1.0000
  H   H12       1.0  0.64836  0.55364  0.58340  1.0000
  H   H13       1.0  0.25609  0.41192  0.01513  1.0000
  H   H14       1.0  0.07879  0.23366  0.09360  1.0000
  H   H15       1.0  0.81136  0.85052  0.02158  1.0000
  H   H16       1.0  0.61488  0.02479  0.19907  1.0000
  H   H17       1.0  0.45957  0.37356  0.87505  1.0000
  H   H18       1.0  0.65284  0.20038  0.70235  1.0000
  H   H19       1.0  0.22395  0.57645  0.27719  1.0000
  H   H20       1.0  0.15765  0.73003  0.05595  1.0000
  H   H21       1.0  0.99235  0.76849  0.18871  1.0000
  H   H22       1.0  0.00768  0.64125  0.04732  1.0000
  H   H23       1.0  0.95864  0.19972  0.83620  1.0000
  H   H24       1.0  0.77913  0.31489  0.05456  1.0000
  H   H25       1.0  0.75005  0.44804  0.90807  1.0000
  H   H26       1.0  0.85658  0.47759  0.04103  1.0000
  H   H27       1.0  0.45109  0.78891  0.91315  1.0000
  H   H28       1.0  0.60188  0.61439  0.09100  1.0000
  H   H29       1.0  0.30755  0.92147  0.41543  1.0000
  H   H30       1.0  0.15183  0.09002  0.24463  1.0000
  C   C1        1.0  0.86848  0.90954  0.74549  1.0000
  C   C2        1.0  0.74453  0.01253  0.85053  1.0000
  C   C3        1.0  0.73339  0.96526  0.99127  1.0000
  C   C4        1.0  0.62422  0.06310  0.09020  1.0000
  C   C5        1.0  0.52259  0.21008  0.05002  1.0000
  C   C6        1.0  0.53278  0.25744  0.90884  1.0000
  C   C7        1.0  0.64256  0.15927  0.81024  1.0000
  C   C8        1.0  0.40918  0.31421  0.15877  1.0000
  C   C9        1.0  0.16255  0.53512  0.20444  1.0000
  C   C10       1.0  0.07408  0.67764  0.11854  1.0000
  C   C11       1.0  0.03923  0.46842  0.28988  1.0000
  C   C12       1.0  0.05913  0.38940  0.80289  1.0000
  C   C13       1.0  0.98616  0.28234  0.90120  1.0000
  C   C14       1.0  0.83328  0.38808  0.98122  1.0000
  C   C15       1.0  0.19895  0.04866  0.95637  1.0000
  C   C16       1.0  0.29150  0.95204  0.06505  1.0000
  C   C17       1.0  0.41933  0.81729  0.02323  1.0000
  C   C18       1.0  0.50387  0.72011  0.12193  1.0000
  C   C19       1.0  0.46532  0.75705  0.26370  1.0000
  C   C20       1.0  0.33921  0.89268  0.30551  1.0000
  C   C21       1.0  0.25175  0.98825  0.20733  1.0000
  C   C22       1.0  0.55967  0.64993  0.36737  1.0000
  N   N1        1.0  0.27960  0.41827  0.11477  1.0000
  N   N2        1.0  0.09095  0.18820  0.99592  1.0000
  O   O1        1.0  0.95777  0.77858  0.78911  1.0000
  O   O2        1.0  0.87765  0.96156  0.61847  1.0000
  O   O3        1.0  0.43512  0.30514  0.28438  1.0000
  O   O4        1.0  0.00606  0.35055  0.24719  1.0000
  O   O5        1.0  0.96429  0.54010  0.40009  1.0000
  O   O6        1.0  0.00802  0.42785  0.68597  1.0000
  O   O7        1.0  0.16195  0.44572  0.84011  1.0000
  O   O8        1.0  0.21753  0.00265  0.83286  1.0000
  O   O9        1.0  0.53999  0.69469  0.49292  1.0000
  O   O10       1.0  0.65632  0.51875  0.31929  1.0000
  O   O11       1.0  0.09859  0.72222  0.49457  1.0000
  O   O12       1.0  0.32429  0.71863  0.71876  1.0000
  O   O13       1.0  0.34743  0.41727  0.55833  1.0000
  O   O14       1.0  0.00213  0.18979  0.51649  1.0000
  O   O15       1.0  0.72325  0.17624  0.37915  1.0000
  O   O16       1.0  0.71764  0.44731  0.61683  1.0000
