data_image0
_chemical_formula_structural       U2H44C52O22
_chemical_formula_sum              "U2 H44 C52 O22"
_cell_length_a       10.5897
_cell_length_b       11.0864
_cell_length_c       11.3581
_cell_angle_alpha    77.8419
_cell_angle_beta     85.3696
_cell_angle_gamma    70.9129

_space_group_name_H-M_alt    "P 1"
_space_group_IT_number       1

loop_
  _space_group_symop_operation_xyz
  'x, y, z'

loop_
  _atom_site_type_symbol
  _atom_site_label
  _atom_site_symmetry_multiplicity
  _atom_site_fract_x
  _atom_site_fract_y
  _atom_site_fract_z
  _atom_site_occupancy
  U   U1        1.0  0.82294  0.89833  0.60926  1.0000
  U   U2        1.0  0.17706  0.10167  0.39073  1.0000
  H   H1        1.0  0.49978  0.92817  0.64780  1.0000
  H   H2        1.0  0.50023  0.07183  0.35220  1.0000
  H   H3        1.0  0.65507  0.33847  0.94591  1.0000
  H   H4        1.0  0.34493  0.66153  0.05409  1.0000
  H   H5        1.0  0.72946  0.17416  0.02124  1.0000
  H   H6        1.0  0.27054  0.82584  0.97876  1.0000
  H   H7        1.0  0.78571  0.46535  0.00451  1.0000
  H   H8        1.0  0.21428  0.53465  0.99549  1.0000
  H   H9        1.0  0.89385  0.38648  0.13043  1.0000
  H   H10       1.0  0.10615  0.61352  0.86957  1.0000
  H   H11       1.0  0.55755  0.49697  0.10567  1.0000
  H   H12       1.0  0.44245  0.50303  0.89433  1.0000
  H   H13       1.0  0.54764  0.37880  0.23745  1.0000
  H   H14       1.0  0.45236  0.62120  0.76255  1.0000
  H   H15       1.0  0.71581  0.14750  0.26613  1.0000
  H   H16       1.0  0.28419  0.85250  0.73387  1.0000
  H   H17       1.0  0.81813  0.23208  0.30453  1.0000
  H   H18       1.0  0.18187  0.76792  0.69547  1.0000
  H   H19       1.0  0.87576  0.13045  0.19722  1.0000
  H   H20       1.0  0.12424  0.86955  0.80278  1.0000
  H   H21       1.0  0.28949  0.28129  0.10966  1.0000
  H   H22       1.0  0.71051  0.71870  0.89034  1.0000
  H   H23       1.0  0.15373  0.20315  0.99455  1.0000
  H   H24       1.0  0.84627  0.79685  0.00544  1.0000
  H   H25       1.0  0.25828  0.09119  0.82334  1.0000
  H   H26       1.0  0.74172  0.90881  0.17665  1.0000
  H   H27       1.0  0.63243  0.14084  0.88387  1.0000
  H   H28       1.0  0.36757  0.85916  0.11614  1.0000
  H   H29       1.0  0.93460  0.12010  0.85717  1.0000
  H   H30       1.0  0.06539  0.87990  0.14283  1.0000
  H   H31       1.0  0.93523  0.39040  0.52300  1.0000
  H   H32       1.0  0.06477  0.60960  0.47699  1.0000
  H   H33       1.0  0.91529  0.56404  0.63874  1.0000
  H   H34       1.0  0.08471  0.43597  0.36126  1.0000
  H   H35       1.0  0.90967  0.51632  0.86007  1.0000
  H   H36       1.0  0.09032  0.48368  0.13993  1.0000
  H   H37       1.0  0.41012  0.54285  0.29247  1.0000
  H   H38       1.0  0.58988  0.45715  0.70754  1.0000
  H   H39       1.0  0.29429  0.67686  0.43961  1.0000
  H   H40       1.0  0.70572  0.32314  0.56039  1.0000
  H   H41       1.0  0.41603  0.77621  0.54854  1.0000
  H   H42       1.0  0.58398  0.22379  0.45146  1.0000
  H   H43       1.0  0.77993  0.59955  0.36201  1.0000
  H   H44       1.0  0.22006  0.40046  0.63799  1.0000
  C   C1        1.0  0.72515  0.31483  0.12882  1.0000
  C   C2        1.0  0.27485  0.68517  0.87118  1.0000
  C   C3        1.0  0.66415  0.27080  0.03378  1.0000
  C   C4        1.0  0.33585  0.72920  0.96622  1.0000
  C   C5        1.0  0.83272  0.37173  0.06470  1.0000
  C   C6        1.0  0.16728  0.62827  0.93530  1.0000
  C   C7        1.0  0.61596  0.42194  0.17890  1.0000
  C   C8        1.0  0.38403  0.57806  0.82110  1.0000
  C   C9        1.0  0.78692  0.19953  0.23025  1.0000
  C   C10       1.0  0.21309  0.80046  0.76976  1.0000
  C   C11       1.0  0.46818  0.21947  0.00345  1.0000
  C   C12       1.0  0.53182  0.78053  0.99655  1.0000
  C   C13       1.0  0.33330  0.23544  0.03352  1.0000
  C   C14       1.0  0.66670  0.76456  0.96648  1.0000
  C   C15       1.0  0.25798  0.19018  0.96891  1.0000
  C   C16       1.0  0.74202  0.80982  0.03109  1.0000
  C   C17       1.0  0.31608  0.12720  0.87440  1.0000
  C   C18       1.0  0.68392  0.87280  0.12559  1.0000
  C   C19       1.0  0.45169  0.10905  0.84630  1.0000
  C   C20       1.0  0.54831  0.89095  0.15370  1.0000
  C   C21       1.0  0.52794  0.15657  0.90916  1.0000
  C   C22       1.0  0.47206  0.84344  0.09084  1.0000
  C   C23       1.0  0.51953  0.03298  0.75446  1.0000
  C   C24       1.0  0.48046  0.96702  0.24554  1.0000
  C   C25       1.0  0.92031  0.31472  0.87317  1.0000
  C   C26       1.0  0.07969  0.68528  0.12683  1.0000
  C   C27       1.0  0.93160  0.21701  0.80896  1.0000
  C   C28       1.0  0.06840  0.78299  0.19104  1.0000
  C   C29       1.0  0.93804  0.24432  0.68294  1.0000
  C   C30       1.0  0.06195  0.75568  0.31706  1.0000
  C   C31       1.0  0.93169  0.36980  0.62089  1.0000
  C   C32       1.0  0.06831  0.63021  0.37911  1.0000
  C   C33       1.0  0.92010  0.46646  0.68572  1.0000
  C   C34       1.0  0.07990  0.53355  0.31427  1.0000
  C   C35       1.0  0.91535  0.43984  0.81141  1.0000
  C   C36       1.0  0.08464  0.56016  0.18859  1.0000
  C   C37       1.0  0.94697  0.14103  0.61482  1.0000
  C   C38       1.0  0.05303  0.85897  0.38518  1.0000
  C   C39       1.0  0.60455  0.55913  0.32023  1.0000
  C   C40       1.0  0.39545  0.44087  0.67977  1.0000
  C   C41       1.0  0.46645  0.58413  0.33957  1.0000
  C   C42       1.0  0.53354  0.41588  0.66043  1.0000
  C   C43       1.0  0.40050  0.66100  0.42273  1.0000
  C   C44       1.0  0.59950  0.33900  0.57727  1.0000
  C   C45       1.0  0.46869  0.71529  0.48509  1.0000
  C   C46       1.0  0.53131  0.28471  0.51492  1.0000
  C   C47       1.0  0.60558  0.69367  0.46198  1.0000
  C   C48       1.0  0.39443  0.30632  0.53803  1.0000
  C   C49       1.0  0.67369  0.61563  0.38017  1.0000
  C   C50       1.0  0.32631  0.38437  0.61983  1.0000
  C   C51       1.0  0.67964  0.75507  0.52176  1.0000
  C   C52       1.0  0.32036  0.24493  0.47825  1.0000
  O   O1        1.0  0.89314  0.76883  0.73588  1.0000
  O   O2        1.0  0.10687  0.23116  0.26412  1.0000
  O   O3        1.0  0.74920  0.02530  0.48358  1.0000
  O   O4        1.0  0.25081  0.97470  0.51642  1.0000
  O   O5        1.0  0.64332  0.00521  0.73497  1.0000
  O   O6        1.0  0.35669  0.99479  0.26503  1.0000
  O   O7        1.0  0.98247  0.15746  0.50358  1.0000
  O   O8        1.0  0.01753  0.84254  0.49643  1.0000
  O   O9        1.0  0.91653  0.04087  0.66907  1.0000
  O   O10       1.0  0.08347  0.95913  0.33093  1.0000
  O   O11       1.0  0.80181  0.74382  0.49450  1.0000
  O   O12       1.0  0.19820  0.25617  0.50551  1.0000
  O   O13       1.0  0.62461  0.82237  0.60318  1.0000
  O   O14       1.0  0.37539  0.17762  0.39682  1.0000
  O   O15       1.0  0.44213  0.99287  0.69706  1.0000
  O   O16       1.0  0.55787  0.00713  0.30293  1.0000
  O   O17       1.0  0.53349  0.26605  0.07349  1.0000
  O   O18       1.0  0.46651  0.73394  0.92652  1.0000
  O   O19       1.0  0.91981  0.27975  0.99643  1.0000
  O   O20       1.0  0.08019  0.72025  0.00356  1.0000
  O   O21       1.0  0.68059  0.48074  0.24570  1.0000
  O   O22       1.0  0.31941  0.51926  0.75430  1.0000
