data_image0
_chemical_formula_structural       Ni2H36C36N8O8
_chemical_formula_sum              "Ni2 H36 C36 N8 O8"
_cell_length_a       8.88287
_cell_length_b       8.88288
_cell_length_c       12.7575
_cell_angle_alpha    77.6924
_cell_angle_beta     77.6923
_cell_angle_gamma    64.0384

_space_group_name_H-M_alt    "P 1"
_space_group_IT_number       1

loop_
  _space_group_symop_operation_xyz
  'x, y, z'

loop_
  _atom_site_type_symbol
  _atom_site_label
  _atom_site_symmetry_multiplicity
  _atom_site_fract_x
  _atom_site_fract_y
  _atom_site_fract_z
  _atom_site_occupancy
  Ni  Ni1       1.0  1.00000  0.00000  0.50000  1.0000
  Ni  Ni2       1.0  0.00000  1.00000  0.00000  1.0000
  H   H1        1.0  0.09409  0.08731  0.24218  1.0000
  H   H2        1.0  0.91269  0.90591  0.25782  1.0000
  H   H3        1.0  0.90591  0.91269  0.75782  1.0000
  H   H4        1.0  0.08731  0.09409  0.74218  1.0000
  H   H5        1.0  0.44985  0.20147  0.11150  1.0000
  H   H6        1.0  0.79852  0.55015  0.38850  1.0000
  H   H7        1.0  0.55015  0.79853  0.88850  1.0000
  H   H8        1.0  0.20147  0.44986  0.61150  1.0000
  H   H9        1.0  0.25968  0.19673  0.09104  1.0000
  H   H10       1.0  0.80327  0.74032  0.40896  1.0000
  H   H11       1.0  0.74032  0.80327  0.90896  1.0000
  H   H12       1.0  0.19673  0.25968  0.59104  1.0000
  H   H13       1.0  0.41963  0.88654  0.07455  1.0000
  H   H14       1.0  0.11346  0.58037  0.42545  1.0000
  H   H15       1.0  0.58037  0.11346  0.92545  1.0000
  H   H16       1.0  0.88653  0.41963  0.57455  1.0000
  H   H17       1.0  0.60799  0.89779  0.09145  1.0000
  H   H18       1.0  0.10221  0.39201  0.40855  1.0000
  H   H19       1.0  0.39201  0.10222  0.90855  1.0000
  H   H20       1.0  0.89779  0.60800  0.59145  1.0000
  H   H21       1.0  0.56495  0.49616  0.43102  1.0000
  H   H22       1.0  0.50385  0.43504  0.06898  1.0000
  H   H23       1.0  0.43504  0.50385  0.56898  1.0000
  H   H24       1.0  0.49616  0.56495  0.93102  1.0000
  H   H25       1.0  0.38830  0.95541  0.49427  1.0000
  H   H26       1.0  0.04459  0.61170  0.00574  1.0000
  H   H27       1.0  0.61170  0.04459  0.50573  1.0000
  H   H28       1.0  0.95541  0.38830  0.99427  1.0000
  H   H29       1.0  0.32087  0.71236  0.34200  1.0000
  H   H30       1.0  0.28765  0.67913  0.15799  1.0000
  H   H31       1.0  0.67913  0.28765  0.65799  1.0000
  H   H32       1.0  0.71236  0.32087  0.84200  1.0000
  H   H33       1.0  0.56959  0.03112  0.29849  1.0000
  H   H34       1.0  0.96888  0.43041  0.20151  1.0000
  H   H35       1.0  0.43041  0.96888  0.70151  1.0000
  H   H36       1.0  0.03112  0.56959  0.79849  1.0000
  C   C1        1.0  0.79825  0.21500  0.37166  1.0000
  C   C2        1.0  0.78500  0.20175  0.12834  1.0000
  C   C3        1.0  0.20175  0.78500  0.62835  1.0000
  C   C4        1.0  0.21500  0.79825  0.87166  1.0000
  C   C5        1.0  0.67034  0.34477  0.30246  1.0000
  C   C6        1.0  0.65523  0.32966  0.19754  1.0000
  C   C7        1.0  0.32966  0.65523  0.69754  1.0000
  C   C8        1.0  0.34477  0.67034  0.80246  1.0000
  C   C9        1.0  0.19652  0.06070  0.28674  1.0000
  C   C10       1.0  0.93930  0.80348  0.21327  1.0000
  C   C11       1.0  0.80348  0.93930  0.71327  1.0000
  C   C12       1.0  0.06070  0.19652  0.78673  1.0000
  C   C13       1.0  0.38125  0.12132  0.12201  1.0000
  C   C14       1.0  0.87868  0.61875  0.37799  1.0000
  C   C15       1.0  0.61875  0.87868  0.87799  1.0000
  C   C16       1.0  0.12132  0.38125  0.62201  1.0000
  C   C17       1.0  0.48558  0.97029  0.06057  1.0000
  C   C18       1.0  0.02971  0.51442  0.43943  1.0000
  C   C19       1.0  0.51442  0.02971  0.93943  1.0000
  C   C20       1.0  0.97029  0.48558  0.56057  1.0000
  C   C21       1.0  0.54943  0.48510  0.35112  1.0000
  C   C22       1.0  0.51490  0.45056  0.14887  1.0000
  C   C23       1.0  0.45056  0.51490  0.64887  1.0000
  C   C24       1.0  0.48510  0.54944  0.85112  1.0000
  C   C25       1.0  0.35444  0.99309  0.41312  1.0000
  C   C26       1.0  0.00691  0.64556  0.08688  1.0000
  C   C27       1.0  0.64556  0.00691  0.58688  1.0000
  C   C28       1.0  0.99309  0.35444  0.91312  1.0000
  C   C29       1.0  0.41263  0.60611  0.30082  1.0000
  C   C30       1.0  0.39390  0.58737  0.19917  1.0000
  C   C31       1.0  0.58737  0.39390  0.69917  1.0000
  C   C32       1.0  0.60611  0.41263  0.80082  1.0000
  C   C33       1.0  0.44531  0.02959  0.31710  1.0000
  C   C34       1.0  0.97041  0.55469  0.18291  1.0000
  C   C35       1.0  0.55469  0.97041  0.68290  1.0000
  C   C36       1.0  0.02959  0.44531  0.81710  1.0000
  N   N1        1.0  0.34280  0.07287  0.23823  1.0000
  N   N2        1.0  0.92712  0.65720  0.26177  1.0000
  N   N3        1.0  0.65720  0.92712  0.76177  1.0000
  N   N4        1.0  0.07287  0.34280  0.73823  1.0000
  N   N5        1.0  0.19902  0.01352  0.39320  1.0000
  N   N6        1.0  0.98648  0.80098  0.10681  1.0000
  N   N7        1.0  0.80098  0.98648  0.60680  1.0000
  N   N8        1.0  0.01352  0.19902  0.89320  1.0000
  O   O1        1.0  0.84864  0.05712  0.36774  1.0000
  O   O2        1.0  0.94289  0.15136  0.13226  1.0000
  O   O3        1.0  0.15136  0.94289  0.63226  1.0000
  O   O4        1.0  0.05711  0.84864  0.86774  1.0000
  O   O5        1.0  0.84809  0.26343  0.43983  1.0000
  O   O6        1.0  0.73658  0.15190  0.06017  1.0000
  O   O7        1.0  0.15190  0.73658  0.56017  1.0000
  O   O8        1.0  0.26343  0.84810  0.93983  1.0000
