data_image0
_chemical_formula_structural       Co2H36C44N8O8
_chemical_formula_sum              "Co2 H36 C44 N8 O8"
_cell_length_a       10.3388
_cell_length_b       10.4394
_cell_length_c       10.7349
_cell_angle_alpha    84.0394
_cell_angle_beta     61.2126
_cell_angle_gamma    77.5445

_space_group_name_H-M_alt    "P 1"
_space_group_IT_number       1

loop_
  _space_group_symop_operation_xyz
  'x, y, z'

loop_
  _atom_site_type_symbol
  _atom_site_label
  _atom_site_symmetry_multiplicity
  _atom_site_fract_x
  _atom_site_fract_y
  _atom_site_fract_z
  _atom_site_occupancy
  Co  Co1       1.0  0.39806  0.08729  0.39872  1.0000
  Co  Co2       1.0  0.79680  0.58727  0.60129  1.0000
  H   H1        1.0  0.08955  0.22365  0.37166  1.0000
  H   H2        1.0  0.46123  0.72364  0.62835  1.0000
  H   H3        1.0  0.21377  0.87010  0.55029  1.0000
  H   H4        1.0  0.76409  0.37008  0.44972  1.0000
  H   H5        1.0  0.95943  0.85593  0.52307  1.0000
  H   H6        1.0  0.48253  0.35591  0.47695  1.0000
  H   H7        1.0  0.78838  0.17402  0.46690  1.0000
  H   H8        1.0  0.25531  0.67401  0.53309  1.0000
  H   H9        1.0  0.79944  0.00606  0.45003  1.0000
  H   H10       1.0  0.24951  0.50604  0.54995  1.0000
  H   H11       1.0  0.72849  0.26268  0.28036  1.0000
  H   H12       1.0  0.00885  0.76266  0.71962  1.0000
  H   H13       1.0  0.80875  0.29699  0.02542  1.0000
  H   H14       1.0  0.83415  0.79698  0.97457  1.0000
  H   H15       1.0  0.18768  0.98011  0.92476  1.0000
  H   H16       1.0  0.11244  0.48012  0.07523  1.0000
  H   H17       1.0  0.11340  0.95218  0.18092  1.0000
  H   H18       1.0  0.29434  0.45220  0.81907  1.0000
  H   H19       1.0  0.15736  0.20638  0.74934  1.0000
  H   H20       1.0  0.90670  0.70638  0.25064  1.0000
  H   H21       1.0  0.09291  0.06535  0.74579  1.0000
  H   H22       1.0  0.83868  0.56537  0.25420  1.0000
  H   H23       1.0  0.04307  0.41605  0.68538  1.0000
  H   H24       1.0  0.72845  0.91608  0.31460  1.0000
  H   H25       1.0  0.78394  0.11760  0.82762  1.0000
  H   H26       1.0  0.61155  0.61762  0.17238  1.0000
  H   H27       1.0  0.63433  0.33450  0.74530  1.0000
  H   H28       1.0  0.37961  0.83452  0.25473  1.0000
  H   H29       1.0  0.13440  0.74219  0.21137  1.0000
  H   H30       1.0  0.34577  0.24218  0.78863  1.0000
  H   H31       1.0  0.37193  0.76485  0.98975  1.0000
  H   H32       1.0  0.36165  0.26485  0.01025  1.0000
  H   H33       1.0  0.59208  0.58343  0.91358  1.0000
  H   H34       1.0  0.50564  0.08344  0.08642  1.0000
  H   H35       1.0  0.57758  0.37912  0.06169  1.0000
  H   H36       1.0  0.63927  0.87912  0.93831  1.0000
  C   C1        1.0  0.09253  0.12444  0.41449  1.0000
  C   C2        1.0  0.50705  0.62443  0.58551  1.0000
  C   C3        1.0  0.15019  0.93907  0.50814  1.0000
  C   C4        1.0  0.65837  0.43905  0.49187  1.0000
  C   C5        1.0  0.02388  0.93279  0.49887  1.0000
  C   C6        1.0  0.52277  0.43277  0.50115  1.0000
  C   C7        1.0  0.86400  0.08576  0.40685  1.0000
  C   C8        1.0  0.27087  0.58576  0.59314  1.0000
  C   C9        1.0  0.91509  0.10522  0.24960  1.0000
  C   C10       1.0  0.16468  0.60522  0.75039  1.0000
  C   C11       1.0  0.83057  0.20129  0.20330  1.0000
  C   C12       1.0  0.03386  0.70128  0.79669  1.0000
  C   C13       1.0  0.87536  0.21989  0.05866  1.0000
  C   C14       1.0  0.93400  0.71988  0.94133  1.0000
  C   C15       1.0  0.00385  0.14107  0.95696  1.0000
  C   C16       1.0  0.96081  0.64107  0.04302  1.0000
  C   C17       1.0  0.08739  0.04282  0.00303  1.0000
  C   C18       1.0  0.09042  0.54282  0.99695  1.0000
  C   C19       1.0  0.04432  0.02635  0.14738  1.0000
  C   C20       1.0  0.19171  0.52635  0.85261  1.0000
  C   C21       1.0  0.05767  0.16035  0.79907  1.0000
  C   C22       1.0  0.85674  0.66036  0.20091  1.0000
  C   C23       1.0  0.94965  0.36778  0.71471  1.0000
  C   C24       1.0  0.66436  0.86780  0.28528  1.0000
  C   C25       1.0  0.81421  0.21170  0.78564  1.0000
  C   C26       1.0  0.59984  0.71172  0.21437  1.0000
  C   C27       1.0  0.74119  0.32015  0.74523  1.0000
  C   C28       1.0  0.48641  0.82017  0.25478  1.0000
  C   C29       1.0  0.35051  0.44817  0.21986  1.0000
  C   C30       1.0  0.57037  0.94817  0.78014  1.0000
  C   C31       1.0  0.22330  0.54938  0.26018  1.0000
  C   C32       1.0  0.48349  0.04937  0.73981  1.0000
  C   C33       1.0  0.23320  0.66378  0.17813  1.0000
  C   C34       1.0  0.41133  0.16378  0.82187  1.0000
  C   C35       1.0  0.36532  0.67592  0.05385  1.0000
  C   C36       1.0  0.41916  0.17591  0.94615  1.0000
  C   C37       1.0  0.48946  0.57304  0.01040  1.0000
  C   C38       1.0  0.49984  0.07306  0.98960  1.0000
  C   C39       1.0  0.48174  0.46028  0.09353  1.0000
  C   C40       1.0  0.57527  0.96028  0.90647  1.0000
  C   C41       1.0  0.34928  0.33158  0.31321  1.0000
  C   C42       1.0  0.66249  0.83156  0.68679  1.0000
  C   C43       1.0  0.07079  0.53182  0.37572  1.0000
  C   C44       1.0  0.44648  0.03182  0.62430  1.0000
  N   N1        1.0  0.19296  0.05804  0.45409  1.0000
  N   N2        1.0  0.64707  0.55803  0.54591  1.0000
  N   N3        1.0  0.98897  0.05059  0.43982  1.0000
  N   N4        1.0  0.42881  0.55059  0.56019  1.0000
  N   N5        1.0  0.94603  0.24345  0.76542  1.0000
  N   N6        1.0  0.71144  0.74347  0.23458  1.0000
  N   N7        1.0  0.82719  0.41706  0.70043  1.0000
  N   N8        1.0  0.52761  0.91709  0.29958  1.0000
  O   O1        1.0  0.44402  0.22534  0.25216  1.0000
  O   O2        1.0  0.69618  0.72532  0.74785  1.0000
  O   O3        1.0  0.26236  0.33816  0.44512  1.0000
  O   O4        1.0  0.70747  0.83812  0.55490  1.0000
  O   O5        1.0  0.01295  0.44281  0.36393  1.0000
  O   O6        1.0  0.37683  0.94283  0.63610  1.0000
  O   O7        1.0  0.00065  0.61921  0.47586  1.0000
  O   O8        1.0  0.47649  0.11921  0.52415  1.0000
