data_image0
_chemical_formula_structural       Zn2H24C32O10
_chemical_formula_sum              "Zn2 H24 C32 O10"
_cell_length_a       5.72291
_cell_length_b       7.90796
_cell_length_c       15.006
_cell_angle_alpha    97.1465
_cell_angle_beta     90.0695
_cell_angle_gamma    90.182

_space_group_name_H-M_alt    "P 1"
_space_group_IT_number       1

loop_
  _space_group_symop_operation_xyz
  'x, y, z'

loop_
  _atom_site_type_symbol
  _atom_site_label
  _atom_site_symmetry_multiplicity
  _atom_site_fract_x
  _atom_site_fract_y
  _atom_site_fract_z
  _atom_site_occupancy
  Zn  Zn1       1.0  0.68989  0.25021  0.50007  1.0000
  Zn  Zn2       1.0  0.31017  0.74976  0.49995  1.0000
  H   H1        1.0  0.13260  0.15417  0.51609  1.0000
  H   H2        1.0  0.13373  0.34692  0.48541  1.0000
  H   H3        1.0  0.86746  0.84598  0.48411  1.0000
  H   H4        1.0  0.86626  0.65322  0.51479  1.0000
  H   H5        1.0  0.98602  0.06894  0.32560  1.0000
  H   H6        1.0  0.98413  0.43184  0.67433  1.0000
  H   H7        1.0  0.01410  0.93101  0.67431  1.0000
  H   H8        1.0  0.01582  0.56809  0.32561  1.0000
  H   H9        1.0  0.12215  0.09690  0.17209  1.0000
  H   H10       1.0  0.12092  0.40358  0.82790  1.0000
  H   H11       1.0  0.87781  0.90310  0.82783  1.0000
  H   H12       1.0  0.87916  0.59646  0.17204  1.0000
  H   H13       1.0  0.49895  0.83560  0.06486  1.0000
  H   H14       1.0  0.49972  0.66384  0.93514  1.0000
  H   H15       1.0  0.50095  0.16436  0.93512  1.0000
  H   H16       1.0  0.50036  0.33615  0.06485  1.0000
  H   H17       1.0  0.36961  0.80320  0.21947  1.0000
  H   H18       1.0  0.36986  0.69655  0.78050  1.0000
  H   H19       1.0  0.63044  0.19677  0.78052  1.0000
  H   H20       1.0  0.63012  0.30338  0.21950  1.0000
  H   H21       1.0  0.76760  0.92220  0.96281  1.0000
  H   H22       1.0  0.76851  0.57777  0.03713  1.0000
  H   H23       1.0  0.23231  0.07781  0.03713  1.0000
  H   H24       1.0  0.23154  0.42223  0.96284  1.0000
  C   C1        1.0  0.59850  0.90921  0.37506  1.0000
  C   C2        1.0  0.59746  0.59152  0.62504  1.0000
  C   C3        1.0  0.40172  0.09075  0.62492  1.0000
  C   C4        1.0  0.40226  0.40840  0.37495  1.0000
  C   C5        1.0  0.67048  0.93314  0.28228  1.0000
  C   C6        1.0  0.66983  0.56731  0.71776  1.0000
  C   C7        1.0  0.32958  0.06682  0.71769  1.0000
  C   C8        1.0  0.33012  0.43260  0.28220  1.0000
  C   C9        1.0  0.88171  0.01683  0.26778  1.0000
  C   C10       1.0  0.88070  0.48381  0.73221  1.0000
  C   C11       1.0  0.11831  0.98313  0.73217  1.0000
  C   C12       1.0  0.11927  0.51615  0.26773  1.0000
  C   C13       1.0  0.95722  0.03196  0.18131  1.0000
  C   C14       1.0  0.95637  0.46838  0.81869  1.0000
  C   C15       1.0  0.04276  0.96803  0.81863  1.0000
  C   C16       1.0  0.04368  0.53165  0.18125  1.0000
  C   C17       1.0  0.82268  0.96496  0.10597  1.0000
  C   C18       1.0  0.82251  0.53501  0.89400  1.0000
  C   C19       1.0  0.17726  0.03505  0.89398  1.0000
  C   C20       1.0  0.17757  0.46499  0.10596  1.0000
  C   C21       1.0  0.60762  0.88588  0.12190  1.0000
  C   C22       1.0  0.60785  0.61388  0.87810  1.0000
  C   C23       1.0  0.39231  0.11413  0.87806  1.0000
  C   C24       1.0  0.39221  0.38611  0.12187  1.0000
  C   C25       1.0  0.53321  0.86814  0.20835  1.0000
  C   C26       1.0  0.53320  0.63185  0.79166  1.0000
  C   C27       1.0  0.46679  0.13186  0.79163  1.0000
  C   C28       1.0  0.46681  0.36809  0.20832  1.0000
  C   C29       1.0  0.89590  0.97129  0.01361  1.0000
  C   C30       1.0  0.89612  0.52873  0.98635  1.0000
  C   C31       1.0  0.10402  0.02873  0.98633  1.0000
  C   C32       1.0  0.10394  0.47128  0.01361  1.0000
  O   O1        1.0  0.71302  0.98479  0.44192  1.0000
  O   O2        1.0  0.71182  0.51687  0.55824  1.0000
  O   O3        1.0  0.28734  0.01517  0.55802  1.0000
  O   O4        1.0  0.28769  0.48309  0.44170  1.0000
  O   O5        1.0  0.42966  0.80632  0.38356  1.0000
  O   O6        1.0  0.42837  0.69357  0.61652  1.0000
  O   O7        1.0  0.57057  0.19366  0.61647  1.0000
  O   O8        1.0  0.57133  0.30634  0.38353  1.0000
  O   O9        1.0  0.03442  0.25259  0.50337  1.0000
  O   O10       1.0  0.96565  0.74787  0.49728  1.0000
