data_image0
_chemical_formula_structural       Cd2H24C32O10
_chemical_formula_sum              "Cd2 H24 C32 O10"
_cell_length_a       4.97717
_cell_length_b       8.4943
_cell_length_c       15.9429
_cell_angle_alpha    99.7848
_cell_angle_beta     94.118
_cell_angle_gamma    92.7917

_space_group_name_H-M_alt    "P 1"
_space_group_IT_number       1

loop_
  _space_group_symop_operation_xyz
  'x, y, z'

loop_
  _atom_site_type_symbol
  _atom_site_label
  _atom_site_symmetry_multiplicity
  _atom_site_fract_x
  _atom_site_fract_y
  _atom_site_fract_z
  _atom_site_occupancy
  Cd  Cd1       1.0  0.11856  0.24201  0.01283  1.0000
  Cd  Cd2       1.0  0.88138  0.75801  0.98718  1.0000
  H   H1        1.0  0.64352  0.35533  0.97189  1.0000
  H   H2        1.0  0.56054  0.16473  0.95762  1.0000
  H   H3        1.0  0.35643  0.64470  0.02811  1.0000
  H   H4        1.0  0.43941  0.83531  0.04238  1.0000
  H   H5        1.0  0.42731  0.90205  0.19080  1.0000
  H   H6        1.0  0.50898  0.58766  0.80753  1.0000
  H   H7        1.0  0.57261  0.09799  0.80919  1.0000
  H   H8        1.0  0.49111  0.41236  0.19245  1.0000
  H   H9        1.0  0.32116  0.88506  0.33683  1.0000
  H   H10       1.0  0.37800  0.61325  0.65897  1.0000
  H   H11       1.0  0.67872  0.11497  0.66316  1.0000
  H   H12       1.0  0.62213  0.38674  0.34101  1.0000
  H   H13       1.0  0.03467  0.18876  0.43534  1.0000
  H   H14       1.0  0.03587  0.32764  0.57535  1.0000
  H   H15       1.0  0.96527  0.81120  0.56467  1.0000
  H   H16       1.0  0.96426  0.67231  0.42466  1.0000
  H   H17       1.0  0.13264  0.20893  0.28743  1.0000
  H   H18       1.0  0.15717  0.29739  0.72514  1.0000
  H   H19       1.0  0.86734  0.79105  0.71258  1.0000
  H   H20       1.0  0.84293  0.70261  0.27487  1.0000
  H   H21       1.0  0.77040  0.09118  0.53432  1.0000
  H   H22       1.0  0.74950  0.41270  0.47046  1.0000
  H   H23       1.0  0.22949  0.90879  0.46567  1.0000
  H   H24       1.0  0.25061  0.58726  0.52953  1.0000
  C   C1        1.0  0.86127  0.06335  0.14030  1.0000
  C   C2        1.0  0.89835  0.41483  0.86524  1.0000
  C   C3        1.0  0.13864  0.93666  0.85970  1.0000
  C   C4        1.0  0.10168  0.58519  0.13477  1.0000
  C   C5        1.0  0.78854  0.05635  0.22900  1.0000
  C   C6        1.0  0.83961  0.43981  0.77585  1.0000
  C   C7        1.0  0.21141  0.94365  0.77100  1.0000
  C   C8        1.0  0.16045  0.56023  0.22415  1.0000
  C   C9        1.0  0.55983  0.96547  0.24441  1.0000
  C   C10       1.0  0.62210  0.53011  0.75609  1.0000
  C   C11       1.0  0.44009  0.03453  0.75559  1.0000
  C   C12       1.0  0.37795  0.46990  0.24389  1.0000
  C   C13       1.0  0.49974  0.95686  0.32725  1.0000
  C   C14       1.0  0.54864  0.54322  0.67219  1.0000
  C   C15       1.0  0.50015  0.04317  0.67276  1.0000
  C   C16       1.0  0.45147  0.45675  0.32778  1.0000
  C   C17       1.0  0.66708  0.03766  0.39836  1.0000
  C   C18       1.0  0.69149  0.46720  0.60489  1.0000
  C   C19       1.0  0.33284  0.96233  0.60165  1.0000
  C   C20       1.0  0.30868  0.53277  0.39511  1.0000
  C   C21       1.0  0.89757  0.12757  0.38196  1.0000
  C   C22       1.0  0.91706  0.38296  0.62611  1.0000
  C   C23       1.0  0.10236  0.87242  0.61804  1.0000
  C   C24       1.0  0.08308  0.61700  0.37390  1.0000
  C   C25       1.0  0.95542  0.13823  0.29903  1.0000
  C   C26       1.0  0.98828  0.36726  0.71003  1.0000
  C   C27       1.0  0.04450  0.86176  0.70097  1.0000
  C   C28       1.0  0.01178  0.63270  0.28999  1.0000
  C   C29       1.0  0.61216  0.03319  0.48650  1.0000
  C   C30       1.0  0.61285  0.46936  0.51549  1.0000
  C   C31       1.0  0.38774  0.96680  0.51349  1.0000
  C   C32       1.0  0.38727  0.53060  0.48451  1.0000
  O   O1        1.0  0.06799  0.15479  0.13338  1.0000
  O   O2        1.0  0.05971  0.30919  0.87960  1.0000
  O   O3        1.0  0.93200  0.84523  0.86663  1.0000
  O   O4        1.0  0.94030  0.69082  0.12042  1.0000
  O   O5        1.0  0.72065  0.97980  0.07659  1.0000
  O   O6        1.0  0.76848  0.49495  0.92389  1.0000
  O   O7        1.0  0.27933  0.02022  0.92342  1.0000
  O   O8        1.0  0.23152  0.50507  0.07610  1.0000
  O   O9        1.0  0.61751  0.26048  0.00143  1.0000
  O   O10       1.0  0.38246  0.73955  0.99857  1.0000
