data_image0
_chemical_formula_structural       Cu4H10C6I4N6
_chemical_formula_sum              "Cu4 H10 C6 I4 N6"
_cell_length_a       7.84395
_cell_length_b       8.08147
_cell_length_c       8.08471
_cell_angle_alpha    115.954
_cell_angle_beta     99.3922
_cell_angle_gamma    104.121

_space_group_name_H-M_alt    "P 1"
_space_group_IT_number       1

loop_
  _space_group_symop_operation_xyz
  'x, y, z'

loop_
  _atom_site_type_symbol
  _atom_site_label
  _atom_site_symmetry_multiplicity
  _atom_site_fract_x
  _atom_site_fract_y
  _atom_site_fract_z
  _atom_site_occupancy
  Cu  Cu1       1.0  0.88931  0.97449  0.85021  1.0000
  Cu  Cu2       1.0  0.11069  0.02552  0.14979  1.0000
  Cu  Cu3       1.0  0.66441  0.00977  0.08286  1.0000
  Cu  Cu4       1.0  0.33559  0.99022  0.91713  1.0000
  H   H1        1.0  0.28711  0.67483  0.46242  1.0000
  H   H2        1.0  0.71287  0.32514  0.53756  1.0000
  H   H3        1.0  0.93063  0.48897  0.19369  1.0000
  H   H4        1.0  0.06936  0.51102  0.80631  1.0000
  H   H5        1.0  0.62112  0.65238  0.49352  1.0000
  H   H6        1.0  0.37889  0.34765  0.50649  1.0000
  H   H7        1.0  0.61418  0.48630  0.25265  1.0000
  H   H8        1.0  0.38582  0.51372  0.74736  1.0000
  H   H9        1.0  0.65004  0.73873  0.32605  1.0000
  H   H10       1.0  0.34997  0.26129  0.67396  1.0000
  C   C1        1.0  0.15801  0.69402  0.47913  1.0000
  C   C2        1.0  0.84201  0.30597  0.52087  1.0000
  C   C3        1.0  0.98407  0.60255  0.34493  1.0000
  C   C4        1.0  0.01591  0.39741  0.65503  1.0000
  C   C5        1.0  0.67726  0.63744  0.37420  1.0000
  C   C6        1.0  0.32273  0.36257  0.62580  1.0000
  I   I1        1.0  0.79081  0.70758  0.95959  1.0000
  I   I2        1.0  0.20920  0.29243  0.04042  1.0000
  I   I3        1.0  0.63366  0.12178  0.82552  1.0000
  I   I4        1.0  0.36634  0.87822  0.17448  1.0000
  N   N1        1.0  0.97331  0.81794  0.62808  1.0000
  N   N2        1.0  0.02670  0.18207  0.37192  1.0000
  N   N3        1.0  0.14627  0.82335  0.65087  1.0000
  N   N4        1.0  0.85374  0.17665  0.34914  1.0000
  N   N5        1.0  0.87466  0.68285  0.44319  1.0000
  N   N6        1.0  0.12533  0.31716  0.55681  1.0000
