data_image0
_chemical_formula_structural       Cd2H16C24N4O12
_chemical_formula_sum              "Cd2 H16 C24 N4 O12"
_cell_length_a       7.70268
_cell_length_b       9.73606
_cell_length_c       9.51872
_cell_angle_alpha    84.9494
_cell_angle_beta     113.866
_cell_angle_gamma    89.9703

_space_group_name_H-M_alt    "P 1"
_space_group_IT_number       1

loop_
  _space_group_symop_operation_xyz
  'x, y, z'

loop_
  _atom_site_type_symbol
  _atom_site_label
  _atom_site_symmetry_multiplicity
  _atom_site_fract_x
  _atom_site_fract_y
  _atom_site_fract_z
  _atom_site_occupancy
  Cd  Cd1       1.0  0.32673  0.95530  0.49254  1.0000
  Cd  Cd2       1.0  0.83404  0.04477  0.50720  1.0000
  H   H1        1.0  0.82876  0.54093  0.69686  1.0000
  H   H2        1.0  0.13074  0.45953  0.30327  1.0000
  H   H3        1.0  0.35605  0.80785  0.86750  1.0000
  H   H4        1.0  0.48823  0.19217  0.13254  1.0000
  H   H5        1.0  0.47865  0.33569  0.77226  1.0000
  H   H6        1.0  0.70515  0.66458  0.22845  1.0000
  H   H7        1.0  0.15906  0.44909  0.70343  1.0000
  H   H8        1.0  0.45421  0.55082  0.29669  1.0000
  H   H9        1.0  0.09576  0.69478  0.58699  1.0000
  H   H10       1.0  0.50766  0.30501  0.41266  1.0000
  H   H11       1.0  0.05809  0.75741  0.83944  1.0000
  H   H12       1.0  0.21804  0.24205  0.16059  1.0000
  H   H13       1.0  0.82220  0.77492  0.95730  1.0000
  H   H14       1.0  0.86443  0.22424  0.04256  1.0000
  H   H15       1.0  0.93025  0.85281  0.22236  1.0000
  H   H16       1.0  0.70783  0.14676  0.77727  1.0000
  C   C1        1.0  0.54443  0.66139  0.64057  1.0000
  C   C2        1.0  0.90298  0.33885  0.35959  1.0000
  C   C3        1.0  0.58866  0.52096  0.69915  1.0000
  C   C4        1.0  0.88842  0.47934  0.30124  1.0000
  C   C5        1.0  0.44839  0.44356  0.72520  1.0000
  C   C6        1.0  0.72198  0.55666  0.27530  1.0000
  C   C7        1.0  0.27129  0.50647  0.68576  1.0000
  C   C8        1.0  0.58429  0.49355  0.31441  1.0000
  C   C9        1.0  0.23487  0.64422  0.62122  1.0000
  C   C10       1.0  0.61258  0.35572  0.37870  1.0000
  C   C11       1.0  0.69391  0.75108  0.62494  1.0000
  C   C12       1.0  0.06825  0.24926  0.37506  1.0000
  C   C13       1.0  0.33705  0.87514  0.18249  1.0000
  C   C14       1.0  0.15462  0.12482  0.81739  1.0000
  C   C15       1.0  0.28951  0.82507  0.03804  1.0000
  C   C16       1.0  0.25125  0.17480  0.96194  1.0000
  C   C17       1.0  0.10102  0.78943  0.95543  1.0000
  C   C18       1.0  0.14521  0.21013  0.04454  1.0000
  C   C19       1.0  0.96997  0.80003  0.01979  1.0000
  C   C20       1.0  0.94983  0.19939  0.98007  1.0000
  C   C21       1.0  0.02866  0.84432  0.16720  1.0000
  C   C22       1.0  0.86137  0.15533  0.83254  1.0000
  C   C23       1.0  0.52159  0.93922  0.27213  1.0000
  C   C24       1.0  0.24979  0.06096  0.72775  1.0000
  N   N1        1.0  0.37027  0.71914  0.60183  1.0000
  N   N2        1.0  0.76757  0.28092  0.39811  1.0000
  N   N3        1.0  0.20646  0.88157  0.24394  1.0000
  N   N4        1.0  0.96261  0.11826  0.75584  1.0000
  O   O1        1.0  0.66161  0.88196  0.60373  1.0000
  O   O2        1.0  0.05751  0.11835  0.39624  1.0000
  O   O3        1.0  0.84727  0.69178  0.63764  1.0000
  O   O4        1.0  0.20863  0.30862  0.36209  1.0000
  O   O5        1.0  0.76010  0.46314  0.73090  1.0000
  O   O6        1.0  0.02799  0.53731  0.26958  1.0000
  O   O7        1.0  0.50413  0.04539  0.33960  1.0000
  O   O8        1.0  0.16526  0.95466  0.66037  1.0000
  O   O9        1.0  0.67948  0.89207  0.28439  1.0000
  O   O10       1.0  0.39511  0.10843  0.71534  1.0000
  O   O11       1.0  0.42189  0.81902  0.97801  1.0000
  O   O12       1.0  0.44361  0.18096  0.02205  1.0000
