data_image0
_chemical_formula_structural       Cd3H28C46S6N14
_chemical_formula_sum              "Cd3 H28 C46 S6 N14"
_cell_length_a       8.97257
_cell_length_b       11.3238
_cell_length_c       14.1815
_cell_angle_alpha    77.0367
_cell_angle_beta     81.3015
_cell_angle_gamma    68.6568

_space_group_name_H-M_alt    "P 1"
_space_group_IT_number       1

loop_
  _space_group_symop_operation_xyz
  'x, y, z'

loop_
  _atom_site_type_symbol
  _atom_site_label
  _atom_site_symmetry_multiplicity
  _atom_site_fract_x
  _atom_site_fract_y
  _atom_site_fract_z
  _atom_site_occupancy
  Cd  Cd1       1.0  0.78382  0.35798  0.26572  1.0000
  Cd  Cd2       1.0  0.21618  0.64203  0.73427  1.0000
  Cd  Cd3       1.0  1.00000  0.00000  0.00001  1.0000
  H   H1        1.0  0.83612  0.70816  0.80293  1.0000
  H   H2        1.0  0.16387  0.29186  0.19708  1.0000
  H   H3        1.0  0.56394  0.80656  0.73476  1.0000
  H   H4        1.0  0.43606  0.19344  0.26523  1.0000
  H   H5        1.0  0.54975  0.90448  0.55914  1.0000
  H   H6        1.0  0.45025  0.09554  0.44085  1.0000
  H   H7        1.0  0.80207  0.90073  0.45637  1.0000
  H   H8        1.0  0.19794  0.09927  0.54363  1.0000
  H   H9        1.0  0.01664  0.90691  0.38348  1.0000
  H   H10       1.0  0.98336  0.09309  0.61652  1.0000
  H   H11       1.0  0.53067  0.72836  0.38496  1.0000
  H   H12       1.0  0.46934  0.27161  0.61503  1.0000
  H   H13       1.0  0.71210  0.58444  0.45993  1.0000
  H   H14       1.0  0.28790  0.41552  0.54007  1.0000
  H   H15       1.0  0.93087  0.44906  0.56891  1.0000
  H   H16       1.0  0.06913  0.55090  0.43110  1.0000
  H   H17       1.0  0.86232  0.40103  0.74770  1.0000
  H   H18       1.0  0.13767  0.59895  0.25230  1.0000
  H   H19       1.0  0.57420  0.48573  0.81057  1.0000
  H   H20       1.0  0.42580  0.51427  0.18942  1.0000
  H   H21       1.0  0.52094  0.90729  0.27890  1.0000
  H   H22       1.0  0.47908  0.09271  0.72109  1.0000
  H   H23       1.0  0.52951  0.02883  0.11079  1.0000
  H   H24       1.0  0.47048  0.97119  0.88920  1.0000
  H   H25       1.0  0.30091  0.07373  0.00769  1.0000
  H   H26       1.0  0.69907  0.92628  0.99231  1.0000
  H   H27       1.0  0.07475  0.87537  0.22678  1.0000
  H   H28       1.0  0.92526  0.12463  0.77323  1.0000
  C   C1        1.0  0.82319  0.75003  0.72603  1.0000
  C   C2        1.0  0.17682  0.24997  0.27397  1.0000
  C   C3        1.0  0.67296  0.80538  0.68862  1.0000
  C   C4        1.0  0.32704  0.19463  0.31138  1.0000
  C   C5        1.0  0.66563  0.86025  0.59045  1.0000
  C   C6        1.0  0.33437  0.13976  0.40954  1.0000
  C   C7        1.0  0.80696  0.85744  0.53302  1.0000
  C   C8        1.0  0.19305  0.14256  0.46697  1.0000
  C   C9        1.0  0.95386  0.79672  0.57515  1.0000
  C   C10       1.0  0.04614  0.20329  0.42485  1.0000
  C   C11       1.0  0.11056  0.78272  0.51741  1.0000
  C   C12       1.0  0.88945  0.21728  0.48259  1.0000
  C   C13       1.0  0.12299  0.84238  0.42028  1.0000
  C   C14       1.0  0.87702  0.15761  0.57972  1.0000
  C   C15       1.0  0.27551  0.82256  0.37090  1.0000
  C   C16       1.0  0.72451  0.17743  0.62910  1.0000
  C   C17       1.0  0.41096  0.74429  0.42138  1.0000
  C   C18       1.0  0.58906  0.25570  0.57861  1.0000
  C   C19       1.0  0.38978  0.68878  0.51880  1.0000
  C   C20       1.0  0.61022  0.31122  0.48119  1.0000
  C   C21       1.0  0.52650  0.60720  0.57879  1.0000
  C   C22       1.0  0.47351  0.39278  0.42121  1.0000
  C   C23       1.0  0.68464  0.56217  0.53791  1.0000
  C   C24       1.0  0.31537  0.43780  0.46209  1.0000
  C   C25       1.0  0.80695  0.48732  0.59844  1.0000
  C   C26       1.0  0.19306  0.51265  0.40156  1.0000
  C   C27       1.0  0.76990  0.45918  0.69812  1.0000
  C   C28       1.0  0.23010  0.54081  0.30188  1.0000
  C   C29       1.0  0.60979  0.50616  0.73322  1.0000
  C   C30       1.0  0.39021  0.49384  0.26678  1.0000
  C   C31       1.0  0.29255  0.88616  0.26906  1.0000
  C   C32       1.0  0.70745  0.11384  0.73094  1.0000
  C   C33       1.0  0.42402  0.92661  0.23321  1.0000
  C   C34       1.0  0.57598  0.07339  0.76679  1.0000
  C   C35       1.0  0.42987  0.99415  0.13858  1.0000
  C   C36       1.0  0.57011  0.00587  0.86141  1.0000
  C   C37       1.0  0.30522  0.01836  0.08142  1.0000
  C   C38       1.0  0.69477  0.98165  0.91858  1.0000
  C   C39       1.0  0.17550  0.91064  0.20489  1.0000
  C   C40       1.0  0.82450  0.08937  0.79512  1.0000
  C   C41       1.0  0.80552  0.64521  0.28282  1.0000
  C   C42       1.0  0.19447  0.35480  0.71718  1.0000
  C   C43       1.0  0.89245  0.30597  0.03921  1.0000
  C   C44       1.0  0.10754  0.69404  0.96080  1.0000
  C   C45       1.0  0.77436  0.07103  0.19482  1.0000
  C   C46       1.0  0.22564  0.92897  0.80518  1.0000
  S   S1        1.0  0.82667  0.76772  0.31288  1.0000
  S   S2        1.0  0.17332  0.23229  0.68712  1.0000
  S   S3        1.0  0.02154  0.74373  0.06137  1.0000
  S   S4        1.0  0.97845  0.25628  0.93864  1.0000
  S   S5        1.0  0.75909  0.09943  0.30402  1.0000
  S   S6        1.0  0.24093  0.90058  0.69599  1.0000
  N   N1        1.0  0.95931  0.74531  0.67080  1.0000
  N   N2        1.0  0.04069  0.25470  0.32919  1.0000
  N   N3        1.0  0.24232  0.70833  0.56375  1.0000
  N   N4        1.0  0.75769  0.29168  0.43624  1.0000
  N   N5        1.0  0.49154  0.57793  0.67538  1.0000
  N   N6        1.0  0.50846  0.42208  0.32462  1.0000
  N   N7        1.0  0.18236  0.97480  0.11362  1.0000
  N   N8        1.0  0.81764  0.02522  0.88639  1.0000
  N   N9        1.0  0.78587  0.55664  0.26165  1.0000
  N   N10       1.0  0.21413  0.44338  0.73836  1.0000
  N   N11       1.0  0.83014  0.34429  0.11143  1.0000
  N   N12       1.0  0.16985  0.65573  0.88856  1.0000
  N   N13       1.0  0.78438  0.05015  0.11535  1.0000
  N   N14       1.0  0.21561  0.94987  0.88466  1.0000
