data_image0
_chemical_formula_structural       Ag4H40C64N20O12
_chemical_formula_sum              "Ag4 H40 C64 N20 O12"
_cell_length_a       5.32793
_cell_length_b       16.1063
_cell_length_c       17.8344
_cell_angle_alpha    89.9996
_cell_angle_beta     90.0003
_cell_angle_gamma    99.3905

_space_group_name_H-M_alt    "P 1"
_space_group_IT_number       1

loop_
  _space_group_symop_operation_xyz
  'x, y, z'

loop_
  _atom_site_type_symbol
  _atom_site_label
  _atom_site_symmetry_multiplicity
  _atom_site_fract_x
  _atom_site_fract_y
  _atom_site_fract_z
  _atom_site_occupancy
  Ag  Ag1       1.0  0.00183  0.41733  0.22815  1.0000
  Ag  Ag2       1.0  0.49817  0.08267  0.72815  1.0000
  Ag  Ag3       1.0  0.99817  0.58267  0.77186  1.0000
  Ag  Ag4       1.0  0.50184  0.91733  0.27185  1.0000
  H   H1        1.0  0.14214  0.42271  0.39947  1.0000
  H   H2        1.0  0.35784  0.07730  0.89947  1.0000
  H   H3        1.0  0.85783  0.57730  0.60053  1.0000
  H   H4        1.0  0.64217  0.92270  0.10052  1.0000
  H   H5        1.0  0.76306  0.54760  0.20498  1.0000
  H   H6        1.0  0.73689  0.95241  0.70497  1.0000
  H   H7        1.0  0.23688  0.45241  0.79502  1.0000
  H   H8        1.0  0.26313  0.04759  0.29502  1.0000
  H   H9        1.0  0.47276  0.65439  0.19887  1.0000
  H   H10       1.0  0.02719  0.84562  0.69886  1.0000
  H   H11       1.0  0.52719  0.34562  0.80114  1.0000
  H   H12       1.0  0.97280  0.15437  0.30114  1.0000
  H   H13       1.0  0.31449  0.71169  0.31485  1.0000
  H   H14       1.0  0.18550  0.78831  0.81484  1.0000
  H   H15       1.0  0.68550  0.28831  0.68516  1.0000
  H   H16       1.0  0.81450  0.21168  0.18516  1.0000
  H   H17       1.0  0.45940  0.66784  0.44075  1.0000
  H   H18       1.0  0.04060  0.83217  0.94075  1.0000
  H   H19       1.0  0.54059  0.33217  0.55925  1.0000
  H   H20       1.0  0.95942  0.16783  0.05925  1.0000
  H   H21       1.0  0.40482  0.50773  0.12803  1.0000
  H   H22       1.0  0.09519  0.99227  0.62803  1.0000
  H   H23       1.0  0.59519  0.49227  0.87198  1.0000
  H   H24       1.0  0.90482  0.00773  0.37197  1.0000
  H   H25       1.0  0.63518  0.32472  0.12765  1.0000
  H   H26       1.0  0.86483  0.17527  0.62765  1.0000
  H   H27       1.0  0.36483  0.67527  0.87235  1.0000
  H   H28       1.0  0.13518  0.82472  0.37235  1.0000
  H   H29       1.0  0.39901  0.23187  0.02943  1.0000
  H   H30       1.0  0.10099  0.26812  0.52943  1.0000
  H   H31       1.0  0.60098  0.76813  0.97057  1.0000
  H   H32       1.0  0.89903  0.73188  0.47057  1.0000
  H   H33       1.0  0.57126  0.22968  0.89992  1.0000
  H   H34       1.0  0.92874  0.27032  0.39992  1.0000
  H   H35       1.0  0.42874  0.77032  0.10008  1.0000
  H   H36       1.0  0.07126  0.72968  0.60008  1.0000
  H   H37       1.0  0.97767  0.31949  0.86643  1.0000
  H   H38       1.0  0.52233  0.18051  0.36644  1.0000
  H   H39       1.0  0.02234  0.68051  0.13356  1.0000
  H   H40       1.0  0.47768  0.81948  0.63356  1.0000
  C   C1        1.0  0.94652  0.50964  0.46335  1.0000
  C   C2        1.0  0.55346  0.99036  0.96335  1.0000
  C   C3        1.0  0.05345  0.49036  0.53665  1.0000
  C   C4        1.0  0.44653  0.00963  0.03665  1.0000
  C   C5        1.0  0.01713  0.46991  0.39688  1.0000
  C   C6        1.0  0.48284  0.03009  0.89687  1.0000
  C   C7        1.0  0.98284  0.53010  0.60312  1.0000
  C   C8        1.0  0.51717  0.96991  0.10312  1.0000
  C   C9        1.0  0.77597  0.54794  0.32603  1.0000
  C   C10       1.0  0.72401  0.95206  0.82602  1.0000
  C   C11       1.0  0.22399  0.45206  0.67397  1.0000
  C   C12       1.0  0.27601  0.04793  0.17397  1.0000
  C   C13       1.0  0.69443  0.57420  0.25592  1.0000
  C   C14       1.0  0.80553  0.92580  0.75592  1.0000
  C   C15       1.0  0.30552  0.42580  0.74408  1.0000
  C   C16       1.0  0.19448  0.07420  0.24408  1.0000
  C   C17       1.0  0.53234  0.63272  0.25288  1.0000
  C   C18       1.0  0.96764  0.86729  0.75287  1.0000
  C   C19       1.0  0.46763  0.36729  0.74713  1.0000
  C   C20       1.0  0.03237  0.13270  0.24713  1.0000
  C   C21       1.0  0.44383  0.66607  0.31958  1.0000
  C   C22       1.0  0.05616  0.83394  0.81957  1.0000
  C   C23       1.0  0.55616  0.33394  0.68043  1.0000
  C   C24       1.0  0.94385  0.16606  0.18043  1.0000
  C   C25       1.0  0.52314  0.64224  0.38879  1.0000
  C   C26       1.0  0.97685  0.85777  0.88878  1.0000
  C   C27       1.0  0.47684  0.35777  0.61122  1.0000
  C   C28       1.0  0.02316  0.14223  0.11122  1.0000
  C   C29       1.0  0.69497  0.58370  0.39369  1.0000
  C   C30       1.0  0.80503  0.91630  0.89368  1.0000
  C   C31       1.0  0.30502  0.41630  0.60632  1.0000
  C   C32       1.0  0.19499  0.08370  0.10632  1.0000
  C   C33       1.0  0.38143  0.47198  0.01019  1.0000
  C   C34       1.0  0.11856  0.02802  0.51019  1.0000
  C   C35       1.0  0.61858  0.52802  0.98981  1.0000
  C   C36       1.0  0.88142  0.97198  0.48981  1.0000
  C   C37       1.0  0.29388  0.46961  0.08556  1.0000
  C   C38       1.0  0.20612  0.03040  0.58556  1.0000
  C   C39       1.0  0.70613  0.53039  0.91445  1.0000
  C   C40       1.0  0.79388  0.96961  0.41444  1.0000
  C   C41       1.0  0.94228  0.37300  0.05252  1.0000
  C   C42       1.0  0.55773  0.12700  0.55252  1.0000
  C   C43       1.0  0.05774  0.62700  0.94748  1.0000
  C   C44       1.0  0.44229  0.87300  0.44749  1.0000
  C   C45       1.0  0.70905  0.32202  0.07074  1.0000
  C   C46       1.0  0.79096  0.17798  0.57074  1.0000
  C   C47       1.0  0.29096  0.67798  0.92926  1.0000
  C   C48       1.0  0.20906  0.82202  0.42926  1.0000
  C   C49       1.0  0.57884  0.27159  0.01600  1.0000
  C   C50       1.0  0.92118  0.22841  0.51600  1.0000
  C   C51       1.0  0.42117  0.72841  0.98400  1.0000
  C   C52       1.0  0.07884  0.77159  0.48400  1.0000
  C   C53       1.0  0.67552  0.27029  0.94217  1.0000
  C   C54       1.0  0.82450  0.22971  0.44217  1.0000
  C   C55       1.0  0.32449  0.72971  0.05783  1.0000
  C   C56       1.0  0.17552  0.77029  0.55783  1.0000
  C   C57       1.0  0.90022  0.32095  0.92276  1.0000
  C   C58       1.0  0.59978  0.17905  0.42276  1.0000
  C   C59       1.0  0.09979  0.67905  0.07724  1.0000
  C   C60       1.0  0.40023  0.82095  0.57724  1.0000
  C   C61       1.0  0.03725  0.37407  0.97710  1.0000
  C   C62       1.0  0.46275  0.12593  0.47711  1.0000
  C   C63       1.0  0.96275  0.62593  0.02290  1.0000
  C   C64       1.0  0.53726  0.87407  0.52290  1.0000
  N   N1        1.0  0.78369  0.56391  0.46175  1.0000
  N   N2        1.0  0.71631  0.93609  0.96175  1.0000
  N   N3        1.0  0.21629  0.43609  0.53825  1.0000
  N   N4        1.0  0.28369  0.06390  0.03825  1.0000
  N   N5        1.0  0.93287  0.48847  0.33021  1.0000
  N   N6        1.0  0.56711  0.01153  0.83020  1.0000
  N   N7        1.0  0.06709  0.51153  0.66980  1.0000
  N   N8        1.0  0.43292  0.98847  0.16980  1.0000
  N   N9        1.0  0.25540  0.42515  0.95682  1.0000
  N   N10       1.0  0.24461  0.07486  0.45682  1.0000
  N   N11       1.0  0.74461  0.57486  0.04319  1.0000
  N   N12       1.0  0.75539  0.92514  0.54318  1.0000
  N   N13       1.0  0.07913  0.42197  0.10620  1.0000
  N   N14       1.0  0.42087  0.07803  0.60620  1.0000
  N   N15       1.0  0.92088  0.57803  0.89380  1.0000
  N   N16       1.0  0.57913  0.92197  0.39380  1.0000
  N   N17       1.0  0.46598  0.32829  0.27833  1.0000
  N   N18       1.0  0.03401  0.17170  0.77833  1.0000
  N   N19       1.0  0.53401  0.67170  0.72167  1.0000
  N   N20       1.0  0.96600  0.82830  0.22167  1.0000
  O   O1        1.0  0.44673  0.38464  0.22895  1.0000
  O   O2        1.0  0.05326  0.11536  0.72895  1.0000
  O   O3        1.0  0.55326  0.61535  0.77104  1.0000
  O   O4        1.0  0.94675  0.88464  0.27104  1.0000
  O   O5        1.0  0.29172  0.30784  0.32554  1.0000
  O   O6        1.0  0.20828  0.19216  0.82553  1.0000
  O   O7        1.0  0.70827  0.69216  0.67446  1.0000
  O   O8        1.0  0.79173  0.80784  0.17446  1.0000
  O   O9        1.0  0.66533  0.29414  0.27849  1.0000
  O   O10       1.0  0.83466  0.20585  0.77849  1.0000
  O   O11       1.0  0.33466  0.70585  0.72151  1.0000
  O   O12       1.0  0.16535  0.79415  0.22151  1.0000
