data_image0
_chemical_formula_structural       Cd2H32C48N4Cl4O8
_chemical_formula_sum              "Cd2 H32 C48 N4 Cl4 O8"
_cell_length_a       9.82272
_cell_length_b       10.5369
_cell_length_c       13.6743
_cell_angle_alpha    105.07
_cell_angle_beta     96.0754
_cell_angle_gamma    110.125

_space_group_name_H-M_alt    "P 1"
_space_group_IT_number       1

loop_
  _space_group_symop_operation_xyz
  'x, y, z'

loop_
  _atom_site_type_symbol
  _atom_site_label
  _atom_site_symmetry_multiplicity
  _atom_site_fract_x
  _atom_site_fract_y
  _atom_site_fract_z
  _atom_site_occupancy
  Cd  Cd1       1.0  0.41322  0.12856  0.58383  1.0000
  Cd  Cd2       1.0  0.58678  0.87144  0.41617  1.0000
  H   H1        1.0  0.86177  0.73879  0.47666  1.0000
  H   H2        1.0  0.13823  0.26121  0.52334  1.0000
  H   H3        1.0  0.08066  0.94244  0.47285  1.0000
  H   H4        1.0  0.91933  0.05756  0.52715  1.0000
  H   H5        1.0  0.98957  0.44346  0.62265  1.0000
  H   H6        1.0  0.01044  0.55654  0.37736  1.0000
  H   H7        1.0  0.43662  0.89591  0.21042  1.0000
  H   H8        1.0  0.56337  0.10409  0.78958  1.0000
  H   H9        1.0  0.48554  0.43978  0.58051  1.0000
  H   H10       1.0  0.51447  0.56023  0.41949  1.0000
  H   H11       1.0  0.16175  0.14047  0.25779  1.0000
  H   H12       1.0  0.83824  0.85953  0.74221  1.0000
  H   H13       1.0  0.69562  0.65936  0.58030  1.0000
  H   H14       1.0  0.30439  0.34064  0.41970  1.0000
  H   H15       1.0  0.14675  0.68214  0.71240  1.0000
  H   H16       1.0  0.85325  0.31787  0.28760  1.0000
  H   H17       1.0  0.35442  0.88930  0.69708  1.0000
  H   H18       1.0  0.64559  0.11071  0.30292  1.0000
  H   H19       1.0  0.76716  0.23459  0.62075  1.0000
  H   H20       1.0  0.23285  0.76542  0.37925  1.0000
  H   H21       1.0  0.04419  0.26427  0.76318  1.0000
  H   H22       1.0  0.95581  0.73574  0.23682  1.0000
  H   H23       1.0  0.38540  0.86270  0.02273  1.0000
  H   H24       1.0  0.61459  0.13730  0.97727  1.0000
  H   H25       1.0  0.10832  0.10476  0.06842  1.0000
  H   H26       1.0  0.89166  0.89523  0.93158  1.0000
  H   H27       1.0  0.45875  0.33879  0.95236  1.0000
  H   H28       1.0  0.54126  0.66121  0.04763  1.0000
  H   H29       1.0  0.94458  0.32640  0.92240  1.0000
  H   H30       1.0  0.05542  0.67359  0.07761  1.0000
  H   H31       1.0  0.36435  0.41030  0.11275  1.0000
  H   H32       1.0  0.63566  0.58970  0.88725  1.0000
  C   C1        1.0  0.98569  0.69179  0.59550  1.0000
  C   C2        1.0  0.01432  0.30821  0.40450  1.0000
  C   C3        1.0  0.85972  0.56758  0.59880  1.0000
  C   C4        1.0  0.14029  0.43242  0.40120  1.0000
  C   C5        1.0  0.30523  0.02397  0.24765  1.0000
  C   C6        1.0  0.69477  0.97603  0.75234  1.0000
  C   C7        1.0  0.96743  0.76812  0.52843  1.0000
  C   C8        1.0  0.03257  0.23188  0.47157  1.0000
  C   C9        1.0  0.34242  0.05190  0.36215  1.0000
  C   C10       1.0  0.65757  0.94809  0.63785  1.0000
  C   C11       1.0  0.08963  0.88189  0.52521  1.0000
  C   C12       1.0  0.91037  0.11811  0.47479  1.0000
  C   C13       1.0  0.31486  0.25377  0.75302  1.0000
  C   C14       1.0  0.68514  0.74623  0.24698  1.0000
  C   C15       1.0  0.87989  0.44770  0.61290  1.0000
  C   C16       1.0  0.12012  0.55230  0.38711  1.0000
  C   C17       1.0  0.36591  0.94358  0.18061  1.0000
  C   C18       1.0  0.63408  0.05642  0.81939  1.0000
  C   C19       1.0  0.59924  0.44519  0.58800  1.0000
  C   C20       1.0  0.40077  0.55481  0.41200  1.0000
  C   C21       1.0  0.21133  0.08059  0.20619  1.0000
  C   C22       1.0  0.78865  0.91940  0.79380  1.0000
  C   C23       1.0  0.71534  0.56587  0.58731  1.0000
  C   C24       1.0  0.28467  0.43413  0.41269  1.0000
  C   C25       1.0  0.12728  0.73537  0.65711  1.0000
  C   C26       1.0  0.87272  0.26463  0.34289  1.0000
  C   C27       1.0  0.24330  0.85124  0.64956  1.0000
  C   C28       1.0  0.75670  0.14876  0.35045  1.0000
  C   C29       1.0  0.75720  0.33084  0.61152  1.0000
  C   C30       1.0  0.24281  0.66916  0.38849  1.0000
  C   C31       1.0  0.25776  0.29860  0.84822  1.0000
  C   C32       1.0  0.74224  0.70140  0.15178  1.0000
  C   C33       1.0  0.11341  0.29613  0.84003  1.0000
  C   C34       1.0  0.88660  0.70387  0.15997  1.0000
  C   C35       1.0  0.33681  0.92348  0.07457  1.0000
  C   C36       1.0  0.66318  0.07652  0.92543  1.0000
  C   C37       1.0  0.18074  0.06051  0.10036  1.0000
  C   C38       1.0  0.81924  0.93949  0.89964  1.0000
  C   C39       1.0  0.24511  0.98292  0.03531  1.0000
  C   C40       1.0  0.75488  0.01708  0.96468  1.0000
  C   C41       1.0  0.34717  0.33839  0.94676  1.0000
  C   C42       1.0  0.65284  0.66161  0.05324  1.0000
  C   C43       1.0  0.05758  0.33077  0.92840  1.0000
  C   C44       1.0  0.94242  0.66923  0.07160  1.0000
  C   C45       1.0  0.14954  0.37154  0.02561  1.0000
  C   C46       1.0  0.85047  0.62845  0.97439  1.0000
  C   C47       1.0  0.29471  0.37703  0.03592  1.0000
  C   C48       1.0  0.70529  0.62297  0.96408  1.0000
  N   N1        1.0  0.22504  0.92290  0.58444  1.0000
  N   N2        1.0  0.77496  0.07710  0.41556  1.0000
  N   N3        1.0  0.61892  0.32855  0.59775  1.0000
  N   N4        1.0  0.38108  0.67145  0.40226  1.0000
  Cl  Cl1       1.0  0.21094  0.96022  0.90387  1.0000
  Cl  Cl2       1.0  0.78905  0.03979  0.09613  1.0000
  Cl  Cl3       1.0  0.08268  0.41546  0.13677  1.0000
  Cl  Cl4       1.0  0.91734  0.58454  0.86324  1.0000
  O   O1        1.0  0.29546  0.13507  0.42176  1.0000
  O   O2        1.0  0.70454  0.86493  0.57824  1.0000
  O   O3        1.0  0.42112  0.99337  0.39901  1.0000
  O   O4        1.0  0.57886  0.00661  0.60098  1.0000
  O   O5        1.0  0.42744  0.21967  0.76398  1.0000
  O   O6        1.0  0.57256  0.78034  0.23601  1.0000
  O   O7        1.0  0.24895  0.24811  0.66561  1.0000
  O   O8        1.0  0.75105  0.75190  0.33439  1.0000
