data_image0
_chemical_formula_structural       Zn3H40C42N4O12
_chemical_formula_sum              "Zn3 H40 C42 N4 O12"
_cell_length_a       8.91304
_cell_length_b       9.04606
_cell_length_c       13.2619
_cell_angle_alpha    100.188
_cell_angle_beta     98.6492
_cell_angle_gamma    105.169

_space_group_name_H-M_alt    "P 1"
_space_group_IT_number       1

loop_
  _space_group_symop_operation_xyz
  'x, y, z'

loop_
  _atom_site_type_symbol
  _atom_site_label
  _atom_site_symmetry_multiplicity
  _atom_site_fract_x
  _atom_site_fract_y
  _atom_site_fract_z
  _atom_site_occupancy
  Zn  Zn1       1.0  0.00000  1.00000  0.00000  1.0000
  Zn  Zn2       1.0  0.15343  0.99924  0.24983  1.0000
  Zn  Zn3       1.0  0.84657  0.00076  0.75017  1.0000
  H   H1        1.0  0.81335  0.61710  0.29415  1.0000
  H   H2        1.0  0.18665  0.38290  0.70585  1.0000
  H   H3        1.0  0.64066  0.46064  0.23122  1.0000
  H   H4        1.0  0.35934  0.53936  0.76878  1.0000
  H   H5        1.0  0.96166  0.51780  0.16275  1.0000
  H   H6        1.0  0.03834  0.48220  0.83725  1.0000
  H   H7        1.0  0.79148  0.36097  0.10134  1.0000
  H   H8        1.0  0.20852  0.63903  0.89866  1.0000
  H   H9        1.0  0.52008  0.10380  0.92007  1.0000
  H   H10       1.0  0.47993  0.89620  0.07993  1.0000
  H   H11       1.0  0.33600  0.98374  0.93456  1.0000
  H   H12       1.0  0.66400  0.01626  0.06544  1.0000
  H   H13       1.0  0.65321  0.56257  0.06319  1.0000
  H   H14       1.0  0.34679  0.43743  0.93680  1.0000
  H   H15       1.0  0.61643  0.69083  0.16688  1.0000
  H   H16       1.0  0.38357  0.30917  0.83312  1.0000
  H   H17       1.0  0.56760  0.25853  0.10386  1.0000
  H   H18       1.0  0.43240  0.74148  0.89613  1.0000
  H   H19       1.0  0.38618  0.26128  0.02739  1.0000
  H   H20       1.0  0.61381  0.73871  0.97261  1.0000
  H   H21       1.0  0.97469  0.41747  0.32700  1.0000
  H   H22       1.0  0.02531  0.58253  0.67300  1.0000
  H   H23       1.0  0.79019  0.27390  0.27293  1.0000
  H   H24       1.0  0.20981  0.72610  0.72707  1.0000
  H   H25       1.0  0.19250  0.71948  0.07073  1.0000
  H   H26       1.0  0.80750  0.28052  0.92928  1.0000
  H   H27       1.0  0.25024  0.46022  0.07265  1.0000
  H   H28       1.0  0.74975  0.53978  0.92735  1.0000
  H   H29       1.0  0.18476  0.19472  0.47535  1.0000
  H   H30       1.0  0.81524  0.80529  0.52466  1.0000
  H   H31       1.0  0.26503  0.16293  0.65906  1.0000
  H   H32       1.0  0.73497  0.83707  0.34094  1.0000
  H   H33       1.0  0.36924  0.93629  0.68460  1.0000
  H   H34       1.0  0.63077  0.06370  0.31540  1.0000
  H   H35       1.0  0.34161  0.40226  0.24561  1.0000
  H   H36       1.0  0.65839  0.59774  0.75439  1.0000
  H   H37       1.0  0.41311  0.68329  0.60322  1.0000
  H   H38       1.0  0.58690  0.31671  0.39678  1.0000
  H   H39       1.0  0.39492  0.48308  0.44134  1.0000
  H   H40       1.0  0.60508  0.51693  0.55865  1.0000
  C   C1        1.0  0.84984  0.77145  0.13807  1.0000
  C   C2        1.0  0.15017  0.22855  0.86193  1.0000
  C   C3        1.0  0.74996  0.53838  0.21786  1.0000
  C   C4        1.0  0.25004  0.46162  0.78214  1.0000
  C   C5        1.0  0.35806  0.12662  0.14109  1.0000
  C   C6        1.0  0.64194  0.87338  0.85891  1.0000
  C   C7        1.0  0.85370  0.44035  0.17754  1.0000
  C   C8        1.0  0.14630  0.55965  0.82246  1.0000
  C   C9        1.0  0.98064  0.22300  0.21061  1.0000
  C   C10       1.0  0.01936  0.77699  0.78939  1.0000
  C   C11       1.0  0.28187  0.75801  0.32518  1.0000
  C   C12       1.0  0.71813  0.24200  0.67482  1.0000
  C   C13       1.0  0.28239  0.86857  0.41817  1.0000
  C   C14       1.0  0.71761  0.13143  0.58183  1.0000
  C   C15       1.0  0.45690  0.05303  0.97704  1.0000
  C   C16       1.0  0.54311  0.94698  0.02296  1.0000
  C   C17       1.0  0.70665  0.63739  0.14195  1.0000
  C   C18       1.0  0.29335  0.36261  0.85805  1.0000
  C   C19       1.0  0.33089  0.84055  0.51814  1.0000
  C   C20       1.0  0.66911  0.15945  0.48186  1.0000
  C   C21       1.0  0.44829  0.18655  0.06207  1.0000
  C   C22       1.0  0.55171  0.81345  0.93793  1.0000
  C   C23       1.0  0.89908  0.34243  0.25282  1.0000
  C   C24       1.0  0.10092  0.65757  0.74718  1.0000
  C   C25       1.0  0.32304  0.61920  0.33463  1.0000
  C   C26       1.0  0.67696  0.38080  0.66537  1.0000
  C   C27       1.0  0.23139  0.68817  0.14405  1.0000
  C   C28       1.0  0.76860  0.31184  0.85595  1.0000
  C   C29       1.0  0.26699  0.54569  0.14562  1.0000
  C   C30       1.0  0.73301  0.45431  0.85438  1.0000
  C   C31       1.0  0.22891  0.09733  0.49052  1.0000
  C   C32       1.0  0.77109  0.90268  0.50949  1.0000
  C   C33       1.0  0.27597  0.07973  0.59260  1.0000
  C   C34       1.0  0.72404  0.92027  0.40740  1.0000
  C   C35       1.0  0.32898  0.95259  0.60661  1.0000
  C   C36       1.0  0.67102  0.04741  0.39339  1.0000
  C   C37       1.0  0.31441  0.51190  0.24102  1.0000
  C   C38       1.0  0.68559  0.48810  0.75897  1.0000
  C   C39       1.0  0.37461  0.70026  0.52514  1.0000
  C   C40       1.0  0.62539  0.29974  0.47486  1.0000
  C   C41       1.0  0.36782  0.59273  0.43663  1.0000
  C   C42       1.0  0.63218  0.40727  0.56337  1.0000
  N   N1        1.0  0.23358  0.99557  0.40603  1.0000
  N   N2        1.0  0.76643  0.00444  0.59397  1.0000
  N   N3        1.0  0.23853  0.79070  0.23141  1.0000
  N   N4        1.0  0.76147  0.20931  0.76859  1.0000
  O   O1        1.0  0.21510  0.02976  0.10736  1.0000
  O   O2        1.0  0.78490  0.97024  0.89264  1.0000
  O   O3        1.0  0.92859  0.85525  0.22752  1.0000
  O   O4        1.0  0.07141  0.14475  0.77248  1.0000
  O   O5        1.0  0.08351  0.19744  0.27838  1.0000
  O   O6        1.0  0.91649  0.80256  0.72162  1.0000
  O   O7        1.0  0.41861  0.16682  0.23753  1.0000
  O   O8        1.0  0.58139  0.83318  0.76247  1.0000
  O   O9        1.0  0.88127  0.79085  0.05015  1.0000
  O   O10       1.0  0.11873  0.20914  0.94985  1.0000
  O   O11       1.0  0.93781  0.15619  0.11394  1.0000
  O   O12       1.0  0.06218  0.84380  0.88606  1.0000
