data_image0
_chemical_formula_structural       Cd2H32C48Br4N4O8
_chemical_formula_sum              "Cd2 H32 C48 Br4 N4 O8"
_cell_length_a       9.81181
_cell_length_b       10.629
_cell_length_c       13.8844
_cell_angle_alpha    103.813
_cell_angle_beta     95.7331
_cell_angle_gamma    110.315

_space_group_name_H-M_alt    "P 1"
_space_group_IT_number       1

loop_
  _space_group_symop_operation_xyz
  'x, y, z'

loop_
  _atom_site_type_symbol
  _atom_site_label
  _atom_site_symmetry_multiplicity
  _atom_site_fract_x
  _atom_site_fract_y
  _atom_site_fract_z
  _atom_site_occupancy
  Cd  Cd1       1.0  0.58845  0.87479  0.42042  1.0000
  Cd  Cd2       1.0  0.41155  0.12521  0.57958  1.0000
  H   H1        1.0  0.51636  0.56460  0.42299  1.0000
  H   H2        1.0  0.48364  0.43541  0.57703  1.0000
  H   H3        1.0  0.30693  0.34454  0.42099  1.0000
  H   H4        1.0  0.69306  0.65546  0.57902  1.0000
  H   H5        1.0  0.01070  0.55723  0.38093  1.0000
  H   H6        1.0  0.98929  0.44277  0.61906  1.0000
  H   H7        1.0  0.23281  0.76700  0.38531  1.0000
  H   H8        1.0  0.76719  0.23301  0.61470  1.0000
  H   H9        1.0  0.85674  0.32079  0.29092  1.0000
  H   H10       1.0  0.14326  0.67922  0.70908  1.0000
  H   H11       1.0  0.64961  0.11331  0.30615  1.0000
  H   H12       1.0  0.35039  0.88669  0.69385  1.0000
  H   H13       1.0  0.92049  0.05815  0.52727  1.0000
  H   H14       1.0  0.07952  0.94186  0.47273  1.0000
  H   H15       1.0  0.13839  0.26149  0.52322  1.0000
  H   H16       1.0  0.86161  0.73852  0.47677  1.0000
  H   H17       1.0  0.53199  0.67436  0.06332  1.0000
  H   H18       1.0  0.46802  0.32566  0.93669  1.0000
  H   H19       1.0  0.61152  0.59707  0.90099  1.0000
  H   H20       1.0  0.38848  0.40293  0.09902  1.0000
  H   H21       1.0  0.03527  0.66129  0.07120  1.0000
  H   H22       1.0  0.96474  0.33871  0.92881  1.0000
  H   H23       1.0  0.95007  0.73052  0.23254  1.0000
  H   H24       1.0  0.04993  0.26947  0.76747  1.0000
  H   H25       1.0  0.56681  0.10561  0.78087  1.0000
  H   H26       1.0  0.43318  0.89437  0.21912  1.0000
  H   H27       1.0  0.61852  0.14375  0.96550  1.0000
  H   H28       1.0  0.38148  0.85624  0.03450  1.0000
  H   H29       1.0  0.88171  0.88989  0.92684  1.0000
  H   H30       1.0  0.11829  0.11011  0.07316  1.0000
  H   H31       1.0  0.82949  0.85161  0.74086  1.0000
  H   H32       1.0  0.17051  0.14838  0.25913  1.0000
  C   C1        1.0  0.40244  0.55860  0.41576  1.0000
  C   C2        1.0  0.59756  0.44140  0.58425  1.0000
  C   C3        1.0  0.28651  0.43740  0.41510  1.0000
  C   C4        1.0  0.71348  0.56261  0.58491  1.0000
  C   C5        1.0  0.14160  0.43453  0.40371  1.0000
  C   C6        1.0  0.85840  0.56548  0.59629  1.0000
  C   C7        1.0  0.12077  0.55387  0.39076  1.0000
  C   C8        1.0  0.87923  0.44613  0.60923  1.0000
  C   C9        1.0  0.24349  0.67134  0.39360  1.0000
  C   C10       1.0  0.75651  0.32867  0.60640  1.0000
  C   C11       1.0  0.01602  0.30995  0.40626  1.0000
  C   C12       1.0  0.98397  0.69006  0.59374  1.0000
  C   C13       1.0  0.87558  0.26692  0.34541  1.0000
  C   C14       1.0  0.12443  0.73309  0.65459  1.0000
  C   C15       1.0  0.75989  0.15088  0.35293  1.0000
  C   C16       1.0  0.24011  0.84913  0.64707  1.0000
  C   C17       1.0  0.91182  0.11903  0.47553  1.0000
  C   C18       1.0  0.08819  0.88097  0.52447  1.0000
  C   C19       1.0  0.03369  0.23284  0.47223  1.0000
  C   C20       1.0  0.96631  0.76716  0.52776  1.0000
  C   C21       1.0  0.68615  0.75195  0.25390  1.0000
  C   C22       1.0  0.31384  0.24804  0.74610  1.0000
  C   C23       1.0  0.73545  0.70531  0.15757  1.0000
  C   C24       1.0  0.26455  0.29469  0.84244  1.0000
  C   C25       1.0  0.64109  0.66941  0.06410  1.0000
  C   C26       1.0  0.35891  0.33060  0.93591  1.0000
  C   C27       1.0  0.68544  0.62749  0.97376  1.0000
  C   C28       1.0  0.31456  0.37251  0.02624  1.0000
  C   C29       1.0  0.82725  0.62513  0.97798  1.0000
  C   C30       1.0  0.17275  0.37487  0.02202  1.0000
  C   C31       1.0  0.92470  0.66277  0.06978  1.0000
  C   C32       1.0  0.07531  0.33724  0.93023  1.0000
  C   C33       1.0  0.87686  0.70126  0.15953  1.0000
  C   C34       1.0  0.12314  0.29874  0.84048  1.0000
  C   C35       1.0  0.65696  0.94618  0.63568  1.0000
  C   C36       1.0  0.34304  0.05382  0.36431  1.0000
  C   C37       1.0  0.69307  0.97385  0.74781  1.0000
  C   C38       1.0  0.30693  0.02614  0.25219  1.0000
  C   C39       1.0  0.63550  0.05751  0.81180  1.0000
  C   C40       1.0  0.36450  0.94248  0.18819  1.0000
  C   C41       1.0  0.66443  0.07983  0.91610  1.0000
  C   C42       1.0  0.33558  0.92017  0.08390  1.0000
  C   C43       1.0  0.75200  0.01815  0.95619  1.0000
  C   C44       1.0  0.24801  0.98185  0.04380  1.0000
  C   C45       1.0  0.81259  0.93630  0.89435  1.0000
  C   C46       1.0  0.18742  0.06370  0.10565  1.0000
  C   C47       1.0  0.78279  0.91483  0.79018  1.0000
  C   C48       1.0  0.21722  0.08517  0.20982  1.0000
  Br  Br1       1.0  0.78757  0.04550  0.09825  1.0000
  Br  Br2       1.0  0.21243  0.95450  0.90175  1.0000
  Br  Br3       1.0  0.88691  0.56778  0.85386  1.0000
  Br  Br4       1.0  0.11306  0.43217  0.14613  1.0000
  N   N1        1.0  0.38227  0.67478  0.40756  1.0000
  N   N2        1.0  0.61772  0.32523  0.59245  1.0000
  N   N3        1.0  0.77736  0.07860  0.41726  1.0000
  N   N4        1.0  0.22264  0.92140  0.58273  1.0000
  O   O1        1.0  0.75599  0.75647  0.33772  1.0000
  O   O2        1.0  0.24400  0.24353  0.66228  1.0000
  O   O3        1.0  0.57453  0.78806  0.24686  1.0000
  O   O4        1.0  0.42545  0.21191  0.75315  1.0000
  O   O5        1.0  0.70492  0.86477  0.57844  1.0000
  O   O6        1.0  0.29509  0.13523  0.42156  1.0000
  O   O7        1.0  0.57815  0.00377  0.59827  1.0000
  O   O8        1.0  0.42185  0.99621  0.40172  1.0000
