data_image0
_chemical_formula_structural       H44Pb2C32S4N8O12
_chemical_formula_sum              "H44 Pb2 C32 S4 N8 O12"
_cell_length_a       8.50196
_cell_length_b       10.7907
_cell_length_c       11.9073
_cell_angle_alpha    71.2246
_cell_angle_beta     86.2103
_cell_angle_gamma    84.1638

_space_group_name_H-M_alt    "P 1"
_space_group_IT_number       1

loop_
  _space_group_symop_operation_xyz
  'x, y, z'

loop_
  _atom_site_type_symbol
  _atom_site_label
  _atom_site_symmetry_multiplicity
  _atom_site_fract_x
  _atom_site_fract_y
  _atom_site_fract_z
  _atom_site_occupancy
  H   H1        1.0  0.60331  0.58553  0.33626  1.0000
  H   H2        1.0  0.39670  0.41447  0.66373  1.0000
  H   H3        1.0  0.66112  0.42285  0.33636  1.0000
  H   H4        1.0  0.33887  0.57715  0.66363  1.0000
  H   H5        1.0  0.09754  0.87317  0.48933  1.0000
  H   H6        1.0  0.90246  0.12684  0.51066  1.0000
  H   H7        1.0  0.84260  0.64687  0.40641  1.0000
  H   H8        1.0  0.15741  0.35314  0.59359  1.0000
  H   H9        1.0  0.85030  0.82062  0.37050  1.0000
  H   H10       1.0  0.14971  0.17938  0.62950  1.0000
  H   H11       1.0  0.84388  0.71992  0.52097  1.0000
  H   H12       1.0  0.15611  0.28009  0.47902  1.0000
  H   H13       1.0  0.35557  0.94964  0.49573  1.0000
  H   H14       1.0  0.64443  0.05036  0.50428  1.0000
  H   H15       1.0  0.51788  0.89512  0.41539  1.0000
  H   H16       1.0  0.48211  0.10488  0.58460  1.0000
  H   H17       1.0  0.48229  0.80772  0.56749  1.0000
  H   H18       1.0  0.51772  0.19229  0.43251  1.0000
  H   H19       1.0  0.85049  0.11900  0.26305  1.0000
  H   H20       1.0  0.14952  0.88101  0.73695  1.0000
  H   H21       1.0  0.85108  0.26491  0.30327  1.0000
  H   H22       1.0  0.14891  0.73510  0.69673  1.0000
  H   H23       1.0  0.32663  0.78549  0.09279  1.0000
  H   H24       1.0  0.67335  0.21450  0.90722  1.0000
  H   H25       1.0  0.88621  0.83242  0.15526  1.0000
  H   H26       1.0  0.11378  0.16758  0.84476  1.0000
  H   H27       1.0  0.03845  0.71803  0.12630  1.0000
  H   H28       1.0  0.96154  0.28196  0.87371  1.0000
  H   H29       1.0  0.98233  0.86339  0.01334  1.0000
  H   H30       1.0  0.01765  0.13660  0.98667  1.0000
  H   H31       1.0  0.62216  0.00032  0.13721  1.0000
  H   H32       1.0  0.37783  0.99969  0.86278  1.0000
  H   H33       1.0  0.59738  0.86684  0.08267  1.0000
  H   H34       1.0  0.40261  0.13316  0.91734  1.0000
  H   H35       1.0  0.60185  0.83927  0.23715  1.0000
  H   H36       1.0  0.39814  0.16073  0.76285  1.0000
  H   H37       1.0  0.07655  0.47972  0.78692  1.0000
  H   H38       1.0  0.92345  0.52028  0.21307  1.0000
  H   H39       1.0  0.94973  0.47422  0.69353  1.0000
  H   H40       1.0  0.05029  0.52576  0.30647  1.0000
  H   H41       1.0  0.43197  0.72646  0.84173  1.0000
  H   H42       1.0  0.56804  0.27354  0.15827  1.0000
  H   H43       1.0  0.56778  0.82447  0.79134  1.0000
  H   H44       1.0  0.43223  0.17552  0.20866  1.0000
  Pb  Pb1       1.0  0.75249  0.54831  0.91449  1.0000
  Pb  Pb2       1.0  0.24754  0.45169  0.08551  1.0000
  C   C1        1.0  0.61696  0.55883  0.16240  1.0000
  C   C2        1.0  0.38305  0.44118  0.83758  1.0000
  C   C3        1.0  0.58098  0.51028  0.29648  1.0000
  C   C4        1.0  0.41903  0.48973  0.70351  1.0000
  C   C5        1.0  0.30043  0.60306  0.38436  1.0000
  C   C6        1.0  0.69957  0.39694  0.61565  1.0000
  C   C7        1.0  0.06758  0.70815  0.42895  1.0000
  C   C8        1.0  0.93243  0.29185  0.57106  1.0000
  C   C9        1.0  0.15642  0.79359  0.46047  1.0000
  C   C10       1.0  0.84359  0.20641  0.53954  1.0000
  C   C11       1.0  0.32114  0.77761  0.44980  1.0000
  C   C12       1.0  0.67887  0.22238  0.55020  1.0000
  C   C13       1.0  0.89081  0.72390  0.43184  1.0000
  C   C14       1.0  0.10919  0.27611  0.56815  1.0000
  C   C15       1.0  0.42434  0.86298  0.48372  1.0000
  C   C16       1.0  0.57567  0.13701  0.51628  1.0000
  C   C17       1.0  0.87729  0.29777  0.11651  1.0000
  C   C18       1.0  0.12272  0.70223  0.88349  1.0000
  C   C19       1.0  0.90592  0.21118  0.24450  1.0000
  C   C20       1.0  0.09408  0.78883  0.75550  1.0000
  C   C21       1.0  0.17245  0.05465  0.21800  1.0000
  C   C22       1.0  0.82754  0.94534  0.78200  1.0000
  C   C23       1.0  0.11980  0.89334  0.14368  1.0000
  C   C24       1.0  0.88019  0.10666  0.85633  1.0000
  C   C25       1.0  0.28243  0.86387  0.12894  1.0000
  C   C26       1.0  0.71756  0.13612  0.87107  1.0000
  C   C27       1.0  0.38629  0.93777  0.16146  1.0000
  C   C28       1.0  0.61370  0.06222  0.83855  1.0000
  C   C29       1.0  0.00002  0.82210  0.10925  1.0000
  C   C30       1.0  0.99997  0.17790  0.89076  1.0000
  C   C31       1.0  0.56199  0.91074  0.15265  1.0000
  C   C32       1.0  0.43799  0.08926  0.84734  1.0000
  S   S1        1.0  0.38123  0.46976  0.33842  1.0000
  S   S2        1.0  0.61878  0.53025  0.66156  1.0000
  S   S3        1.0  0.11013  0.17751  0.28342  1.0000
  S   S4        1.0  0.88987  0.82250  0.71658  1.0000
  N   N1        1.0  0.14065  0.61131  0.39161  1.0000
  N   N2        1.0  0.85936  0.38869  0.60840  1.0000
  N   N3        1.0  0.39367  0.68165  0.40990  1.0000
  N   N4        1.0  0.60634  0.31834  0.59011  1.0000
  N   N5        1.0  0.06466  0.98985  0.18903  1.0000
  N   N6        1.0  0.93534  0.01015  0.81098  1.0000
  N   N7        1.0  0.33060  0.03519  0.20552  1.0000
  N   N8        1.0  0.66939  0.96481  0.79448  1.0000
  O   O1        1.0  0.76142  0.57779  0.13151  1.0000
  O   O2        1.0  0.23858  0.42222  0.86848  1.0000
  O   O3        1.0  0.50982  0.57691  0.08896  1.0000
  O   O4        1.0  0.49019  0.42309  0.91103  1.0000
  O   O5        1.0  0.73743  0.30591  0.08061  1.0000
  O   O6        1.0  0.26258  0.69410  0.91939  1.0000
  O   O7        1.0  0.98604  0.36012  0.05259  1.0000
  O   O8        1.0  0.01398  0.63986  0.94739  1.0000
  O   O9        1.0  0.53460  0.73732  0.79476  1.0000
  O   O10       1.0  0.46540  0.26267  0.20523  1.0000
  O   O11       1.0  0.97699  0.52359  0.74632  1.0000
  O   O12       1.0  0.02301  0.47640  0.25368  1.0000
