data_image0
_chemical_formula_structural       Tl4H40C32N4O8
_chemical_formula_sum              "Tl4 H40 C32 N4 O8"
_cell_length_a       6.72366
_cell_length_b       10.4039
_cell_length_c       13.4649
_cell_angle_alpha    85.3492
_cell_angle_beta     81.7034
_cell_angle_gamma    83.6297

_space_group_name_H-M_alt    "P 1"
_space_group_IT_number       1

loop_
  _space_group_symop_operation_xyz
  'x, y, z'

loop_
  _atom_site_type_symbol
  _atom_site_label
  _atom_site_symmetry_multiplicity
  _atom_site_fract_x
  _atom_site_fract_y
  _atom_site_fract_z
  _atom_site_occupancy
  Tl  Tl1       1.0  0.14244  0.49654  0.71453  1.0000
  Tl  Tl2       1.0  0.85756  0.50346  0.28547  1.0000
  Tl  Tl3       1.0  0.56811  0.71180  0.75778  1.0000
  Tl  Tl4       1.0  0.43189  0.28820  0.24222  1.0000
  H   H1        1.0  0.33870  0.18939  0.67108  1.0000
  H   H2        1.0  0.66129  0.81061  0.32891  1.0000
  H   H3        1.0  0.25849  0.97469  0.61779  1.0000
  H   H4        1.0  0.74151  0.02531  0.38221  1.0000
  H   H5        1.0  0.90130  0.95243  0.59369  1.0000
  H   H6        1.0  0.09871  0.04756  0.40631  1.0000
  H   H7        1.0  0.63909  0.14269  0.62623  1.0000
  H   H8        1.0  0.36091  0.85731  0.37377  1.0000
  H   H9        1.0  0.14100  0.52040  0.91489  1.0000
  H   H10       1.0  0.85900  0.47960  0.08511  1.0000
  H   H11       1.0  0.18889  0.35270  0.88691  1.0000
  H   H12       1.0  0.81111  0.64730  0.11309  1.0000
  H   H13       1.0  0.93626  0.43313  0.89439  1.0000
  H   H14       1.0  0.06374  0.56687  0.10561  1.0000
  H   H15       1.0  0.10214  0.64433  0.54390  1.0000
  H   H16       1.0  0.89786  0.35567  0.45610  1.0000
  H   H17       1.0  0.19208  0.48137  0.51353  1.0000
  H   H18       1.0  0.80792  0.51864  0.48647  1.0000
  H   H19       1.0  0.36493  0.58660  0.54332  1.0000
  H   H20       1.0  0.63506  0.41340  0.45668  1.0000
  H   H21       1.0  0.36055  0.00883  0.84262  1.0000
  H   H22       1.0  0.63946  0.99118  0.15738  1.0000
  H   H23       1.0  0.44131  0.20570  0.92183  1.0000
  H   H24       1.0  0.55870  0.79431  0.07817  1.0000
  H   H25       1.0  0.79899  0.21311  0.95602  1.0000
  H   H26       1.0  0.20101  0.78689  0.04398  1.0000
  H   H27       1.0  0.05846  0.03062  0.90210  1.0000
  H   H28       1.0  0.94154  0.96937  0.09790  1.0000
  H   H29       1.0  0.43055  0.77727  0.57712  1.0000
  H   H30       1.0  0.56945  0.22273  0.42287  1.0000
  H   H31       1.0  0.69987  0.74154  0.55924  1.0000
  H   H32       1.0  0.30013  0.25846  0.44075  1.0000
  H   H33       1.0  0.58886  0.89517  0.60331  1.0000
  H   H34       1.0  0.41114  0.10484  0.39669  1.0000
  H   H35       1.0  0.40324  0.65429  0.94852  1.0000
  H   H36       1.0  0.59677  0.34571  0.05148  1.0000
  H   H37       1.0  0.67517  0.63042  0.93919  1.0000
  H   H38       1.0  0.32483  0.36958  0.06081  1.0000
  H   H39       1.0  0.53930  0.51079  0.89692  1.0000
  H   H40       1.0  0.46071  0.48922  0.10308  1.0000
  C   C1        1.0  0.18645  0.17206  0.65971  1.0000
  C   C2        1.0  0.81355  0.82794  0.34029  1.0000
  C   C3        1.0  0.14120  0.05494  0.62960  1.0000
  C   C4        1.0  0.85879  0.94505  0.37040  1.0000
  C   C5        1.0  0.94219  0.04290  0.61652  1.0000
  C   C6        1.0  0.05781  0.95710  0.38347  1.0000
  C   C7        1.0  0.79640  0.14722  0.63479  1.0000
  C   C8        1.0  0.20360  0.85278  0.36521  1.0000
  C   C9        1.0  0.85320  0.26128  0.66568  1.0000
  C   C10       1.0  0.14680  0.73871  0.33433  1.0000
  C   C11       1.0  0.69751  0.37706  0.68859  1.0000
  C   C12       1.0  0.30248  0.62294  0.31141  1.0000
  C   C13       1.0  0.09710  0.44443  0.87348  1.0000
  C   C14       1.0  0.90290  0.55557  0.12652  1.0000
  C   C15       1.0  0.20986  0.56072  0.55900  1.0000
  C   C16       1.0  0.79014  0.43928  0.44100  1.0000
  C   C17       1.0  0.51332  0.02033  0.85679  1.0000
  C   C18       1.0  0.48668  0.97967  0.14321  1.0000
  C   C19       1.0  0.55881  0.12797  0.90135  1.0000
  C   C20       1.0  0.44120  0.87203  0.09865  1.0000
  C   C21       1.0  0.75692  0.13256  0.91932  1.0000
  C   C22       1.0  0.24308  0.86744  0.08068  1.0000
  C   C23       1.0  0.90188  0.03145  0.89024  1.0000
  C   C24       1.0  0.09813  0.96854  0.10976  1.0000
  C   C25       1.0  0.84547  0.92815  0.84409  1.0000
  C   C26       1.0  0.15453  0.07184  0.15592  1.0000
  C   C27       1.0  0.00374  0.82036  0.80522  1.0000
  C   C28       1.0  0.99627  0.17964  0.19478  1.0000
  C   C29       1.0  0.57102  0.79170  0.60483  1.0000
  C   C30       1.0  0.42897  0.20831  0.39517  1.0000
  C   C31       1.0  0.54281  0.61414  0.90493  1.0000
  C   C32       1.0  0.45719  0.38586  0.09507  1.0000
  N   N1        1.0  0.04585  0.27272  0.67666  1.0000
  N   N2        1.0  0.95414  0.72728  0.32334  1.0000
  N   N3        1.0  0.65309  0.92299  0.82898  1.0000
  N   N4        1.0  0.34692  0.07701  0.17101  1.0000
  O   O1        1.0  0.51436  0.35639  0.69673  1.0000
  O   O2        1.0  0.48564  0.64360  0.30326  1.0000
  O   O3        1.0  0.76578  0.48454  0.69772  1.0000
  O   O4        1.0  0.23421  0.51545  0.30229  1.0000
  O   O5        1.0  0.18164  0.82552  0.82318  1.0000
  O   O6        1.0  0.81837  0.17448  0.17682  1.0000
  O   O7        1.0  0.94435  0.73546  0.75584  1.0000
  O   O8        1.0  0.05567  0.26453  0.24416  1.0000
