data_image0
_chemical_formula_structural       Co2H14C16N2O10
_chemical_formula_sum              "Co2 H14 C16 N2 O10"
_cell_length_a       7.70772
_cell_length_b       8.84105
_cell_length_c       7.81834
_cell_angle_alpha    92.8439
_cell_angle_beta     82.8335
_cell_angle_gamma    62.344

_space_group_name_H-M_alt    "P 1"
_space_group_IT_number       1

loop_
  _space_group_symop_operation_xyz
  'x, y, z'

loop_
  _atom_site_type_symbol
  _atom_site_label
  _atom_site_symmetry_multiplicity
  _atom_site_fract_x
  _atom_site_fract_y
  _atom_site_fract_z
  _atom_site_occupancy
  Co  Co1       1.0  0.02057  0.35633  0.73519  1.0000
  Co  Co2       1.0  0.97945  0.64367  0.26479  1.0000
  H   H1        1.0  0.12603  0.06092  0.10914  1.0000
  H   H2        1.0  0.87395  0.93906  0.89087  1.0000
  H   H3        1.0  0.49725  0.56658  0.80502  1.0000
  H   H4        1.0  0.50274  0.43340  0.19500  1.0000
  H   H5        1.0  0.54407  0.00960  0.65803  1.0000
  H   H6        1.0  0.45595  0.99037  0.34198  1.0000
  H   H7        1.0  0.18401  0.29322  0.02697  1.0000
  H   H8        1.0  0.81599  0.70676  0.97300  1.0000
  H   H9        1.0  0.35412  0.27232  0.86238  1.0000
  H   H10       1.0  0.64586  0.72766  0.13760  1.0000
  H   H11       1.0  0.12396  0.58573  0.84041  1.0000
  H   H12       1.0  0.87611  0.41422  0.15960  1.0000
  H   H13       1.0  0.10096  0.57722  0.63269  1.0000
  H   H14       1.0  0.89906  0.42274  0.36734  1.0000
  C   C1        1.0  0.32241  0.05739  0.88265  1.0000
  C   C2        1.0  0.67759  0.94263  0.11731  1.0000
  C   C3        1.0  0.23980  0.98303  0.99786  1.0000
  C   C4        1.0  0.76016  0.01702  0.00210  1.0000
  C   C5        1.0  0.30076  0.80661  0.96837  1.0000
  C   C6        1.0  0.69929  0.19342  0.03161  1.0000
  C   C7        1.0  0.44935  0.70344  0.82851  1.0000
  C   C8        1.0  0.55071  0.29653  0.17150  1.0000
  C   C9        1.0  0.54062  0.77653  0.72052  1.0000
  C   C10       1.0  0.45934  0.22351  0.27952  1.0000
  C   C11       1.0  0.47466  0.95382  0.74578  1.0000
  C   C12       1.0  0.52532  0.04619  0.25422  1.0000
  C   C13       1.0  0.20014  0.73127  0.08198  1.0000
  C   C14       1.0  0.79987  0.26876  0.91797  1.0000
  C   C15       1.0  0.70924  0.66590  0.57841  1.0000
  C   C16       1.0  0.29070  0.33420  0.42165  1.0000
  N   N1        1.0  0.24634  0.23890  0.90099  1.0000
  N   N2        1.0  0.75376  0.76100  0.09904  1.0000
  O   O1        1.0  0.10561  0.80497  0.23297  1.0000
  O   O2        1.0  0.89437  0.19494  0.76700  1.0000
  O   O3        1.0  0.20068  0.59133  0.02438  1.0000
  O   O4        1.0  0.79921  0.40871  0.97571  1.0000
  O   O5        1.0  0.78553  0.50166  0.56974  1.0000
  O   O6        1.0  0.21449  0.49839  0.43020  1.0000
  O   O7        1.0  0.76798  0.74390  0.47164  1.0000
  O   O8        1.0  0.23205  0.25603  0.52835  1.0000
  O   O9        1.0  0.03689  0.58344  0.75598  1.0000
  O   O10       1.0  0.96310  0.41664  0.24404  1.0000
