data_image0
_chemical_formula_structural       K4Cu2H16C8O24
_chemical_formula_sum              "K4 Cu2 H16 C8 O24"
_cell_length_a       3.84365
_cell_length_b       10.8431
_cell_length_c       14.4139
_cell_angle_alpha    89.9998
_cell_angle_beta     89.9995
_cell_angle_gamma    93.6427

_space_group_name_H-M_alt    "P 1"
_space_group_IT_number       1

loop_
  _space_group_symop_operation_xyz
  'x, y, z'

loop_
  _atom_site_type_symbol
  _atom_site_label
  _atom_site_symmetry_multiplicity
  _atom_site_fract_x
  _atom_site_fract_y
  _atom_site_fract_z
  _atom_site_occupancy
  K   K1        1.0  0.20543  0.49238  0.64063  1.0000
  K   K2        1.0  0.29461  0.00762  0.14062  1.0000
  K   K3        1.0  0.79457  0.50760  0.35938  1.0000
  K   K4        1.0  0.70544  0.99239  0.85938  1.0000
  Cu  Cu1       1.0  0.50000  1.00000  0.50000  1.0000
  Cu  Cu2       1.0  0.99999  0.49999  0.00000  1.0000
  H   H1        1.0  0.71211  0.74462  0.62725  1.0000
  H   H2        1.0  0.78790  0.75539  0.12724  1.0000
  H   H3        1.0  0.28790  0.25539  0.37275  1.0000
  H   H4        1.0  0.21212  0.24462  0.87275  1.0000
  H   H5        1.0  0.72099  0.70627  0.73375  1.0000
  H   H6        1.0  0.77901  0.79373  0.23374  1.0000
  H   H7        1.0  0.27900  0.29374  0.26626  1.0000
  H   H8        1.0  0.22101  0.20627  0.76625  1.0000
  H   H9        1.0  0.62313  0.34180  0.78969  1.0000
  H   H10       1.0  0.87689  0.15821  0.28969  1.0000
  H   H11       1.0  0.37690  0.65821  0.21031  1.0000
  H   H12       1.0  0.12313  0.84180  0.71031  1.0000
  H   H13       1.0  0.58887  0.47665  0.82103  1.0000
  H   H14       1.0  0.91115  0.02336  0.32103  1.0000
  H   H15       1.0  0.41114  0.52336  0.17897  1.0000
  H   H16       1.0  0.08887  0.97664  0.67897  1.0000
  C   C1        1.0  0.32439  0.75208  0.47578  1.0000
  C   C2        1.0  0.17558  0.74790  0.97579  1.0000
  C   C3        1.0  0.67560  0.24792  0.52421  1.0000
  C   C4        1.0  0.82439  0.25209  0.02422  1.0000
  C   C5        1.0  0.12317  0.82212  0.40130  1.0000
  C   C6        1.0  0.37679  0.67787  0.90130  1.0000
  C   C7        1.0  0.87683  0.17788  0.59870  1.0000
  C   C8        1.0  0.62318  0.32212  0.09870  1.0000
  O   O1        1.0  0.51325  0.82333  0.53106  1.0000
  O   O2        1.0  0.98673  0.67666  0.03107  1.0000
  O   O3        1.0  0.48675  0.17668  0.46893  1.0000
  O   O4        1.0  0.01323  0.32333  0.96893  1.0000
  O   O5        1.0  0.29687  0.63751  0.47950  1.0000
  O   O6        1.0  0.20312  0.86248  0.97951  1.0000
  O   O7        1.0  0.70315  0.36249  0.52051  1.0000
  O   O8        1.0  0.79687  0.13751  0.02050  1.0000
  O   O9        1.0  0.16328  0.94157  0.40587  1.0000
  O   O10       1.0  0.33672  0.55842  0.90587  1.0000
  O   O11       1.0  0.83672  0.05843  0.59412  1.0000
  O   O12       1.0  0.66326  0.44158  0.09413  1.0000
  O   O13       1.0  0.93574  0.76370  0.34406  1.0000
  O   O14       1.0  0.56420  0.73629  0.84407  1.0000
  O   O15       1.0  0.06423  0.23630  0.65593  1.0000
  O   O16       1.0  0.43575  0.26371  0.15594  1.0000
  O   O17       1.0  0.84414  0.69937  0.67374  1.0000
  O   O18       1.0  0.65585  0.80063  0.17373  1.0000
  O   O19       1.0  0.15586  0.30063  0.32627  1.0000
  O   O20       1.0  0.34416  0.19937  0.82626  1.0000
  O   O21       1.0  0.69562  0.42768  0.77230  1.0000
  O   O22       1.0  0.80441  0.07232  0.27230  1.0000
  O   O23       1.0  0.30440  0.57232  0.22770  1.0000
  O   O24       1.0  0.19562  0.92769  0.72770  1.0000
