data_image0
_chemical_formula_structural       Tl4H24C32N12
_chemical_formula_sum              "Tl4 H24 C32 N12"
_cell_length_a       5.31909
_cell_length_b       10.9996
_cell_length_c       14.251
_cell_angle_alpha    104.435
_cell_angle_beta     89.9996
_cell_angle_gamma    90

_space_group_name_H-M_alt    "P 1"
_space_group_IT_number       1

loop_
  _space_group_symop_operation_xyz
  'x, y, z'

loop_
  _atom_site_type_symbol
  _atom_site_label
  _atom_site_symmetry_multiplicity
  _atom_site_fract_x
  _atom_site_fract_y
  _atom_site_fract_z
  _atom_site_occupancy
  Tl  Tl1       1.0  0.77822  0.10691  0.13204  1.0000
  Tl  Tl2       1.0  0.27822  0.39309  0.36797  1.0000
  Tl  Tl3       1.0  0.22178  0.89309  0.86796  1.0000
  Tl  Tl4       1.0  0.72178  0.60691  0.63204  1.0000
  H   H1        1.0  0.13724  0.20470  0.96460  1.0000
  H   H2        1.0  0.63725  0.29531  0.53541  1.0000
  H   H3        1.0  0.86275  0.79530  0.03541  1.0000
  H   H4        1.0  0.36277  0.70469  0.46459  1.0000
  H   H5        1.0  0.53174  0.37146  0.97727  1.0000
  H   H6        1.0  0.03174  0.12854  0.52274  1.0000
  H   H7        1.0  0.46826  0.62854  0.02274  1.0000
  H   H8        1.0  0.96828  0.87146  0.47726  1.0000
  H   H9        1.0  0.86716  0.48528  0.05717  1.0000
  H   H10       1.0  0.36716  0.01472  0.44283  1.0000
  H   H11       1.0  0.13284  0.51472  0.94283  1.0000
  H   H12       1.0  0.63284  0.98529  0.55716  1.0000
  H   H13       1.0  0.17291  0.64474  0.14700  1.0000
  H   H14       1.0  0.67291  0.85526  0.35300  1.0000
  H   H15       1.0  0.82708  0.35526  0.85301  1.0000
  H   H16       1.0  0.32709  0.14474  0.64699  1.0000
  H   H17       1.0  0.13519  0.71940  0.32734  1.0000
  H   H18       1.0  0.63520  0.78059  0.17266  1.0000
  H   H19       1.0  0.86480  0.28060  0.67266  1.0000
  H   H20       1.0  0.36480  0.21940  0.82734  1.0000
  H   H21       1.0  0.79354  0.62951  0.41063  1.0000
  H   H22       1.0  0.29354  0.87049  0.08937  1.0000
  H   H23       1.0  0.20646  0.37049  0.58937  1.0000
  H   H24       1.0  0.70647  0.12951  0.91063  1.0000
  C   C1        1.0  0.23561  0.25869  0.02836  1.0000
  C   C2        1.0  0.73562  0.24131  0.47165  1.0000
  C   C3        1.0  0.76438  0.74131  0.97165  1.0000
  C   C4        1.0  0.26439  0.75868  0.52835  1.0000
  C   C5        1.0  0.43616  0.34239  0.03524  1.0000
  C   C6        1.0  0.93617  0.15761  0.46476  1.0000
  C   C7        1.0  0.56382  0.65761  0.96476  1.0000
  C   C8        1.0  0.06384  0.84239  0.53523  1.0000
  C   C9        1.0  0.48115  0.38409  0.13572  1.0000
  C   C10       1.0  0.98116  0.11591  0.36429  1.0000
  C   C11       1.0  0.51884  0.61591  0.86429  1.0000
  C   C12       1.0  0.01886  0.88409  0.63571  1.0000
  C   C13       1.0  0.66409  0.47567  0.18663  1.0000
  C   C14       1.0  0.16409  0.02432  0.31337  1.0000
  C   C15       1.0  0.33590  0.52432  0.81337  1.0000
  C   C16       1.0  0.83592  0.97568  0.68662  1.0000
  C   C17       1.0  0.85383  0.52085  0.13534  1.0000
  C   C18       1.0  0.35382  0.97916  0.36466  1.0000
  C   C19       1.0  0.14617  0.47916  0.86466  1.0000
  C   C20       1.0  0.64619  0.02085  0.63533  1.0000
  C   C21       1.0  0.02424  0.60882  0.18527  1.0000
  C   C22       1.0  0.52425  0.89118  0.31473  1.0000
  C   C23       1.0  0.97575  0.39118  0.81473  1.0000
  C   C24       1.0  0.47575  0.10883  0.68527  1.0000
  C   C25       1.0  0.00451  0.65052  0.28591  1.0000
  C   C26       1.0  0.50450  0.84949  0.21410  1.0000
  C   C27       1.0  0.99549  0.34948  0.71410  1.0000
  C   C28       1.0  0.49550  0.15051  0.78590  1.0000
  C   C29       1.0  0.81291  0.60061  0.33177  1.0000
  C   C30       1.0  0.31291  0.89938  0.16823  1.0000
  C   C31       1.0  0.18709  0.39939  0.66823  1.0000
  C   C32       1.0  0.68709  0.10061  0.83176  1.0000
  N   N1        1.0  0.16685  0.24979  0.11809  1.0000
  N   N2        1.0  0.66686  0.25022  0.38192  1.0000
  N   N3        1.0  0.83313  0.75022  0.88192  1.0000
  N   N4        1.0  0.33315  0.74978  0.61807  1.0000
  N   N5        1.0  0.31647  0.32589  0.18367  1.0000
  N   N6        1.0  0.81647  0.17412  0.31634  1.0000
  N   N7        1.0  0.68352  0.67412  0.81634  1.0000
  N   N8        1.0  0.18354  0.82589  0.68366  1.0000
  N   N9        1.0  0.64546  0.51634  0.28433  1.0000
  N   N10       1.0  0.14546  0.98366  0.21567  1.0000
  N   N11       1.0  0.35454  0.48366  0.71567  1.0000
  N   N12       1.0  0.85455  0.01634  0.78432  1.0000
