data_image0
_chemical_formula_structural       Li2H26C22N8O2
_chemical_formula_sum              "Li2 H26 C22 N8 O2"
_cell_length_a       7.95665
_cell_length_b       8.78732
_cell_length_c       9.25706
_cell_angle_alpha    61.6647
_cell_angle_beta     87.9878
_cell_angle_gamma    85.7571

_space_group_name_H-M_alt    "P 1"
_space_group_IT_number       1

loop_
  _space_group_symop_operation_xyz
  'x, y, z'

loop_
  _atom_site_type_symbol
  _atom_site_label
  _atom_site_symmetry_multiplicity
  _atom_site_fract_x
  _atom_site_fract_y
  _atom_site_fract_z
  _atom_site_occupancy
  Li  Li1       1.0  0.86074  0.02273  0.13660  1.0000
  Li  Li2       1.0  0.36075  0.15934  0.86339  1.0000
  H   H1        1.0  0.57976  0.95774  0.41768  1.0000
  H   H2        1.0  0.07977  0.37543  0.58231  1.0000
  H   H3        1.0  0.56889  0.98738  0.67334  1.0000
  H   H4        1.0  0.06888  0.66073  0.32666  1.0000
  H   H5        1.0  0.83366  0.06224  0.76203  1.0000
  H   H6        1.0  0.33365  0.82427  0.23797  1.0000
  H   H7        1.0  0.09284  0.10343  0.59103  1.0000
  H   H8        1.0  0.59283  0.69447  0.40897  1.0000
  H   H9        1.0  0.32356  0.16258  0.41248  1.0000
  H   H10       1.0  0.82356  0.57509  0.58752  1.0000
  H   H11       1.0  0.48527  0.20089  0.12890  1.0000
  H   H12       1.0  0.98528  0.32980  0.87110  1.0000
  H   H13       1.0  0.64909  0.86728  0.97978  1.0000
  H   H14       1.0  0.14910  0.84707  0.02022  1.0000
  H   H15       1.0  0.45671  0.51204  0.07906  1.0000
  H   H16       1.0  0.95671  0.59110  0.92095  1.0000
  H   H17       1.0  0.53267  0.70139  0.90841  1.0000
  H   H18       1.0  0.03268  0.60980  0.09159  1.0000
  H   H19       1.0  0.63825  0.49362  0.96785  1.0000
  H   H20       1.0  0.13825  0.46146  0.03216  1.0000
  H   H21       1.0  0.82516  0.36889  0.22330  1.0000
  H   H22       1.0  0.32517  0.59218  0.77672  1.0000
  H   H23       1.0  0.64195  0.37230  0.33819  1.0000
  H   H24       1.0  0.14196  0.71048  0.66181  1.0000
  H   H25       1.0  0.81853  0.48649  0.33776  1.0000
  H   H26       1.0  0.31854  0.82424  0.66225  1.0000
  C   C1        1.0  0.69165  0.98925  0.46044  1.0000
  C   C2        1.0  0.19165  0.44969  0.53955  1.0000
  C   C3        1.0  0.68587  0.00427  0.60388  1.0000
  C   C4        1.0  0.18587  0.60817  0.39611  1.0000
  C   C5        1.0  0.83263  0.04617  0.65223  1.0000
  C   C6        1.0  0.33262  0.69841  0.34777  1.0000
  C   C7        1.0  0.97645  0.07164  0.55598  1.0000
  C   C8        1.0  0.47645  0.62763  0.44401  1.0000
  C   C9        1.0  0.97083  0.05883  0.41045  1.0000
  C   C10       1.0  0.47083  0.46929  0.58955  1.0000
  C   C11       1.0  0.11448  0.09566  0.29959  1.0000
  C   C12       1.0  0.61449  0.39526  0.70041  1.0000
  C   C13       1.0  0.27532  0.14478  0.31367  1.0000
  C   C14       1.0  0.77532  0.45847  0.68633  1.0000
  C   C15       1.0  0.35748  0.16631  0.17025  1.0000
  C   C16       1.0  0.85748  0.33658  0.82975  1.0000
  C   C17       1.0  0.71359  0.76232  0.08939  1.0000
  C   C18       1.0  0.21361  0.85171  0.91061  1.0000
  C   C19       1.0  0.56971  0.57607  0.01301  1.0000
  C   C20       1.0  0.06971  0.58908  0.98699  1.0000
  C   C21       1.0  0.74513  0.44895  0.26352  1.0000
  C   C22       1.0  0.24514  0.71246  0.73649  1.0000
  N   N1        1.0  0.82845  0.01673  0.36432  1.0000
  N   N2        1.0  0.32845  0.38107  0.63567  1.0000
  N   N3        1.0  0.10338  0.08938  0.15566  1.0000
  N   N4        1.0  0.60339  0.24504  0.84434  1.0000
  N   N5        1.0  0.75314  0.20945  0.92388  1.0000
  N   N6        1.0  0.25314  0.13333  0.07611  1.0000
  N   N7        1.0  0.67653  0.60314  0.12174  1.0000
  N   N8        1.0  0.17653  0.72487  0.87827  1.0000
  O   O1        1.0  0.81174  0.79421  0.17313  1.0000
  O   O2        1.0  0.31175  0.96733  0.82688  1.0000
