data_image0
_chemical_formula_structural       Cu2H36C42N4O14
_chemical_formula_sum              "Cu2 H36 C42 N4 O14"
_cell_length_a       7.85503
_cell_length_b       10.0491
_cell_length_c       13.1865
_cell_angle_alpha    86.7148
_cell_angle_beta     86.9705
_cell_angle_gamma    70.517

_space_group_name_H-M_alt    "P 1"
_space_group_IT_number       1

loop_
  _space_group_symop_operation_xyz
  'x, y, z'

loop_
  _atom_site_type_symbol
  _atom_site_label
  _atom_site_symmetry_multiplicity
  _atom_site_fract_x
  _atom_site_fract_y
  _atom_site_fract_z
  _atom_site_occupancy
  Cu  Cu1       1.0  0.73604  0.31959  0.76018  1.0000
  Cu  Cu2       1.0  0.26395  0.68041  0.23983  1.0000
  H   H1        1.0  0.47318  0.95628  0.63252  1.0000
  H   H2        1.0  0.52682  0.04372  0.36749  1.0000
  H   H3        1.0  0.19136  0.90715  0.77538  1.0000
  H   H4        1.0  0.80864  0.09285  0.22462  1.0000
  H   H5        1.0  0.30294  0.68020  0.87457  1.0000
  H   H6        1.0  0.69706  0.31980  0.12544  1.0000
  H   H7        1.0  0.10539  0.53187  0.90658  1.0000
  H   H8        1.0  0.89461  0.46812  0.09342  1.0000
  H   H9        1.0  0.10949  0.30868  0.71102  1.0000
  H   H10       1.0  0.89051  0.69132  0.28898  1.0000
  H   H11       1.0  0.40995  0.20827  0.79170  1.0000
  H   H12       1.0  0.59004  0.79173  0.20829  1.0000
  H   H13       1.0  0.13831  0.07115  0.04845  1.0000
  H   H14       1.0  0.86168  0.92886  0.95155  1.0000
  H   H15       1.0  0.85013  0.17554  0.95724  1.0000
  H   H16       1.0  0.14987  0.82446  0.04276  1.0000
  H   H17       1.0  0.58364  0.08924  0.92675  1.0000
  H   H18       1.0  0.41636  0.91077  0.07325  1.0000
  H   H19       1.0  0.46987  0.14437  0.04399  1.0000
  H   H20       1.0  0.53012  0.85564  0.95601  1.0000
  H   H21       1.0  0.60120  0.19024  0.60072  1.0000
  H   H22       1.0  0.39880  0.80976  0.39928  1.0000
  H   H23       1.0  0.33757  0.26384  0.48725  1.0000
  H   H24       1.0  0.66243  0.73616  0.51275  1.0000
  H   H25       1.0  0.18964  0.68054  0.60570  1.0000
  H   H26       1.0  0.81036  0.31946  0.39430  1.0000
  H   H27       1.0  0.45926  0.59000  0.71379  1.0000
  H   H28       1.0  0.54074  0.41000  0.28621  1.0000
  H   H29       1.0  0.02624  0.64149  0.46494  1.0000
  H   H30       1.0  0.97376  0.35851  0.53505  1.0000
  H   H31       1.0  0.11075  0.48257  0.39850  1.0000
  H   H32       1.0  0.88926  0.51743  0.60150  1.0000
  H   H33       1.0  0.44660  0.37831  0.95955  1.0000
  H   H34       1.0  0.55340  0.62169  0.04045  1.0000
  H   H35       1.0  0.60788  0.43796  0.93135  1.0000
  H   H36       1.0  0.39212  0.56204  0.06866  1.0000
  C   C1        1.0  0.86965  0.04058  0.70935  1.0000
  C   C2        1.0  0.13035  0.95942  0.29065  1.0000
  C   C3        1.0  0.93158  0.88924  0.75016  1.0000
  C   C4        1.0  0.06842  0.11075  0.24984  1.0000
  C   C5        1.0  0.10600  0.84149  0.78776  1.0000
  C   C6        1.0  0.89400  0.15851  0.21224  1.0000
  C   C7        1.0  0.16868  0.71354  0.84334  1.0000
  C   C8        1.0  0.83132  0.28646  0.15666  1.0000
  C   C9        1.0  0.05833  0.63046  0.86112  1.0000
  C   C10       1.0  0.94167  0.36954  0.13888  1.0000
  C   C11       1.0  0.88574  0.67418  0.82165  1.0000
  C   C12       1.0  0.11426  0.32581  0.17835  1.0000
  C   C13       1.0  0.77976  0.57388  0.83930  1.0000
  C   C14       1.0  0.22024  0.42611  0.16070  1.0000
  C   C15       1.0  0.12266  0.25453  0.78557  1.0000
  C   C16       1.0  0.87733  0.74547  0.21442  1.0000
  C   C17       1.0  0.28876  0.19863  0.83067  1.0000
  C   C18       1.0  0.71124  0.80137  0.16933  1.0000
  C   C19       1.0  0.30031  0.13124  0.92735  1.0000
  C   C20       1.0  0.69969  0.86876  0.07265  1.0000
  C   C21       1.0  0.13989  0.12106  0.97306  1.0000
  C   C22       1.0  0.86011  0.87895  0.02694  1.0000
  C   C23       1.0  0.97836  0.17867  0.92341  1.0000
  C   C24       1.0  0.02163  0.82134  0.07659  1.0000
  C   C25       1.0  0.47702  0.07690  0.97975  1.0000
  C   C26       1.0  0.52298  0.92311  0.02025  1.0000
  C   C27       1.0  0.50513  0.29720  0.59978  1.0000
  C   C28       1.0  0.49487  0.70280  0.40022  1.0000
  C   C29       1.0  0.35861  0.33947  0.53711  1.0000
  C   C30       1.0  0.64139  0.66053  0.46289  1.0000
  C   C31       1.0  0.23927  0.47894  0.53786  1.0000
  C   C32       1.0  0.76073  0.52105  0.46213  1.0000
  C   C33       1.0  0.27640  0.57051  0.60250  1.0000
  C   C34       1.0  0.72360  0.42949  0.39750  1.0000
  C   C35       1.0  0.42550  0.52122  0.66340  1.0000
  C   C36       1.0  0.57450  0.47878  0.33660  1.0000
  C   C37       1.0  0.07535  0.52553  0.47456  1.0000
  C   C38       1.0  0.92464  0.47448  0.52544  1.0000
  C   C39       1.0  0.63301  0.84854  0.73108  1.0000
  C   C40       1.0  0.36699  0.15145  0.26892  1.0000
  C   C41       1.0  0.82083  0.80403  0.76554  1.0000
  C   C42       1.0  0.17918  0.19596  0.23446  1.0000
  N   N1        1.0  0.96942  0.24531  0.83142  1.0000
  N   N2        1.0  0.03058  0.75469  0.16858  1.0000
  N   N3        1.0  0.53742  0.38652  0.66295  1.0000
  N   N4        1.0  0.46258  0.61348  0.33705  1.0000
  O   O1        1.0  0.95463  0.08061  0.63891  1.0000
  O   O2        1.0  0.04536  0.91939  0.36110  1.0000
  O   O3        1.0  0.73483  0.12165  0.76332  1.0000
  O   O4        1.0  0.26517  0.87835  0.23669  1.0000
  O   O5        1.0  0.76243  0.51247  0.75941  1.0000
  O   O6        1.0  0.23757  0.48753  0.24060  1.0000
  O   O7        1.0  0.72929  0.55044  0.92874  1.0000
  O   O8        1.0  0.27073  0.44956  0.07126  1.0000
  O   O9        1.0  0.60349  0.92938  0.64278  1.0000
  O   O10       1.0  0.39651  0.07062  0.35722  1.0000
  O   O11       1.0  0.51126  0.81517  0.77559  1.0000
  O   O12       1.0  0.48874  0.18483  0.22441  1.0000
  O   O13       1.0  0.55755  0.36233  0.91746  1.0000
  O   O14       1.0  0.44245  0.63768  0.08254  1.0000
