data_image0
_chemical_formula_structural       Cu2H44C34Br2N2O6
_chemical_formula_sum              "Cu2 H44 C34 Br2 N2 O6"
_cell_length_a       7.27667
_cell_length_b       11.4657
_cell_length_c       11.681
_cell_angle_alpha    112.948
_cell_angle_beta     90.0005
_cell_angle_gamma    90.0005

_space_group_name_H-M_alt    "P 1"
_space_group_IT_number       1

loop_
  _space_group_symop_operation_xyz
  'x, y, z'

loop_
  _atom_site_type_symbol
  _atom_site_label
  _atom_site_symmetry_multiplicity
  _atom_site_fract_x
  _atom_site_fract_y
  _atom_site_fract_z
  _atom_site_occupancy
  Cu  Cu1       1.0  0.12447  0.64090  0.08267  1.0000
  Cu  Cu2       1.0  0.62446  0.35910  0.91733  1.0000
  H   H1        1.0  0.84229  0.21737  0.59312  1.0000
  H   H2        1.0  0.34229  0.78265  0.40689  1.0000
  H   H3        1.0  0.82921  0.00182  0.50161  1.0000
  H   H4        1.0  0.32920  0.99820  0.49840  1.0000
  H   H5        1.0  0.43302  0.78936  0.61404  1.0000
  H   H6        1.0  0.93300  0.21065  0.38596  1.0000
  H   H7        1.0  0.05682  0.85774  0.81647  1.0000
  H   H8        1.0  0.55681  0.14224  0.18352  1.0000
  H   H9        1.0  0.26619  0.77876  0.76000  1.0000
  H   H10       1.0  0.76619  0.22123  0.23998  1.0000
  H   H11       1.0  0.12443  0.82764  0.66175  1.0000
  H   H12       1.0  0.62442  0.17236  0.33823  1.0000
  H   H13       1.0  0.07211  0.05998  0.71206  1.0000
  H   H14       1.0  0.57209  0.94001  0.28795  1.0000
  H   H15       1.0  0.17665  0.17891  0.84402  1.0000
  H   H16       1.0  0.67663  0.82108  0.15600  1.0000
  H   H17       1.0  0.00486  0.07729  0.86377  1.0000
  H   H18       1.0  0.50483  0.92269  0.13624  1.0000
  H   H19       1.0  0.40177  0.10492  0.98124  1.0000
  H   H20       1.0  0.90174  0.89506  0.01877  1.0000
  H   H21       1.0  0.43402  0.93913  0.93964  1.0000
  H   H22       1.0  0.93400  0.06085  0.06035  1.0000
  H   H23       1.0  0.21876  0.00964  0.99893  1.0000
  H   H24       1.0  0.71875  0.99035  0.00107  1.0000
  H   H25       1.0  0.58789  0.36422  0.55653  1.0000
  H   H26       1.0  0.08793  0.63578  0.44348  1.0000
  H   H27       1.0  0.79174  0.42968  0.52050  1.0000
  H   H28       1.0  0.29180  0.57032  0.47950  1.0000
  H   H29       1.0  0.57828  0.50864  0.53508  1.0000
  H   H30       1.0  0.07834  0.49136  0.46493  1.0000
  H   H31       1.0  0.94703  0.42040  0.69945  1.0000
  H   H32       1.0  0.44705  0.57960  0.30054  1.0000
  H   H33       1.0  0.42870  0.61665  0.74578  1.0000
  H   H34       1.0  0.92871  0.38336  0.25423  1.0000
  H   H35       1.0  0.53872  0.62086  0.88279  1.0000
  H   H36       1.0  0.03870  0.37916  0.11722  1.0000
  H   H37       1.0  0.43888  0.47815  0.77798  1.0000
  H   H38       1.0  0.93888  0.52186  0.22204  1.0000
  H   H39       1.0  0.71802  0.70448  0.68355  1.0000
  H   H40       1.0  0.21805  0.29553  0.31644  1.0000
  H   H41       1.0  0.93429  0.63180  0.68069  1.0000
  H   H42       1.0  0.43432  0.36821  0.31929  1.0000
  H   H43       1.0  0.82112  0.71290  0.82446  1.0000
  H   H44       1.0  0.32112  0.28710  0.17553  1.0000
  C   C1        1.0  0.52934  0.10628  0.75154  1.0000
  C   C2        1.0  0.02933  0.89372  0.24846  1.0000
  C   C3        1.0  0.66576  0.10991  0.66371  1.0000
  C   C4        1.0  0.16576  0.89009  0.33629  1.0000
  C   C5        1.0  0.75163  0.22492  0.67080  1.0000
  C   C6        1.0  0.25165  0.77510  0.32920  1.0000
  C   C7        1.0  0.72262  0.99736  0.56534  1.0000
  C   C8        1.0  0.22260  0.00265  0.43467  1.0000
  C   C9        1.0  0.64400  0.88410  0.55305  1.0000
  C   C10       1.0  0.14399  0.11591  0.44694  1.0000
  C   C11       1.0  0.26919  0.98430  0.80671  1.0000
  C   C12       1.0  0.76917  0.01569  0.19328  1.0000
  C   C13       1.0  0.49811  0.88003  0.63063  1.0000
  C   C14       1.0  0.99811  0.11996  0.36936  1.0000
  C   C15       1.0  0.43371  0.98859  0.72653  1.0000
  C   C16       1.0  0.93370  0.01142  0.27348  1.0000
  C   C17       1.0  0.17542  0.85424  0.75724  1.0000
  C   C18       1.0  0.67541  0.14575  0.24275  1.0000
  C   C19       1.0  0.12280  0.08210  0.80683  1.0000
  C   C20       1.0  0.62278  0.91788  0.19317  1.0000
  C   C21       1.0  0.33548  0.01197  0.94024  1.0000
  C   C22       1.0  0.83546  0.98801  0.05976  1.0000
  C   C23       1.0  0.66221  0.45265  0.57321  1.0000
  C   C24       1.0  0.16224  0.54735  0.42679  1.0000
  C   C25       1.0  0.82539  0.44733  0.76026  1.0000
  C   C26       1.0  0.32540  0.55267  0.23974  1.0000
  C   C27       1.0  0.69815  0.52939  0.71183  1.0000
  C   C28       1.0  0.19817  0.47062  0.28817  1.0000
  C   C29       1.0  0.51651  0.56244  0.78381  1.0000
  C   C30       1.0  0.01652  0.43757  0.21621  1.0000
  C   C31       1.0  0.79944  0.65157  0.72650  1.0000
  C   C32       1.0  0.29946  0.34843  0.27349  1.0000
  C   C33       1.0  0.89081  0.51927  0.89361  1.0000
  C   C34       1.0  0.39081  0.48073  0.10638  1.0000
  Br  Br1       1.0  0.73144  0.73091  0.42610  1.0000
  Br  Br2       1.0  0.23142  0.26910  0.57391  1.0000
  N   N1        1.0  0.73227  0.33501  0.76076  1.0000
  N   N2        1.0  0.23229  0.66499  0.23923  1.0000
  O   O1        1.0  0.02856  0.59192  0.91245  1.0000
  O   O2        1.0  0.52856  0.40809  0.08756  1.0000
  O   O3        1.0  0.48780  0.20434  0.85190  1.0000
  O   O4        1.0  0.98781  0.79566  0.14810  1.0000
  O   O5        1.0  0.80540  0.50111  0.98118  1.0000
  O   O6        1.0  0.30538  0.49888  0.01882  1.0000
