data_image0
_chemical_formula_structural       Cu2H44C34N4O10
_chemical_formula_sum              "Cu2 H44 C34 N4 O10"
_cell_length_a       6.31094
_cell_length_b       10.7801
_cell_length_c       13.7879
_cell_angle_alpha    100.135
_cell_angle_beta     89.9991
_cell_angle_gamma    89.9991

_space_group_name_H-M_alt    "P 1"
_space_group_IT_number       1

loop_
  _space_group_symop_operation_xyz
  'x, y, z'

loop_
  _atom_site_type_symbol
  _atom_site_label
  _atom_site_symmetry_multiplicity
  _atom_site_fract_x
  _atom_site_fract_y
  _atom_site_fract_z
  _atom_site_occupancy
  Cu  Cu1       1.0  0.14933  0.93358  0.88769  1.0000
  Cu  Cu2       1.0  0.64932  0.06641  0.11231  1.0000
  H   H1        1.0  0.44536  0.67475  0.74911  1.0000
  H   H2        1.0  0.94535  0.32526  0.25090  1.0000
  H   H3        1.0  0.47309  0.80313  0.68496  1.0000
  H   H4        1.0  0.97309  0.19688  0.31505  1.0000
  H   H5        1.0  0.63077  0.79700  0.79112  1.0000
  H   H6        1.0  0.13077  0.20301  0.20889  1.0000
  H   H7        1.0  0.31834  0.10669  0.67980  1.0000
  H   H8        1.0  0.81834  0.89330  0.32019  1.0000
  H   H9        1.0  0.28093  0.98767  0.52489  1.0000
  H   H10       1.0  0.78093  0.01233  0.47511  1.0000
  H   H11       1.0  0.49139  0.52597  0.60310  1.0000
  H   H12       1.0  0.99138  0.47405  0.39691  1.0000
  H   H13       1.0  0.71166  0.51989  0.52331  1.0000
  H   H14       1.0  0.21165  0.48012  0.47669  1.0000
  H   H15       1.0  0.52099  0.64332  0.52807  1.0000
  H   H16       1.0  0.02098  0.35670  0.47194  1.0000
  H   H17       1.0  0.85939  0.67223  0.46783  1.0000
  H   H18       1.0  0.35938  0.32777  0.53218  1.0000
  H   H19       1.0  0.92745  0.62550  0.77963  1.0000
  H   H20       1.0  0.42745  0.37449  0.22036  1.0000
  H   H21       1.0  0.96390  0.51803  0.66693  1.0000
  H   H22       1.0  0.46389  0.48197  0.33307  1.0000
  H   H23       1.0  0.73299  0.50752  0.73863  1.0000
  H   H24       1.0  0.23299  0.49248  0.26138  1.0000
  H   H25       1.0  0.49080  0.19120  0.82815  1.0000
  H   H26       1.0  0.99079  0.80879  0.17185  1.0000
  H   H27       1.0  0.01063  0.40222  0.82411  1.0000
  H   H28       1.0  0.51063  0.59777  0.17589  1.0000
  H   H29       1.0  0.98797  0.24095  0.77175  1.0000
  H   H30       1.0  0.48796  0.75904  0.22825  1.0000
  H   H31       1.0  0.21731  0.32831  0.74784  1.0000
  H   H32       1.0  0.71731  0.67168  0.25216  1.0000
  H   H33       1.0  0.25012  0.48139  0.95777  1.0000
  H   H34       1.0  0.75012  0.51861  0.04223  1.0000
  H   H35       1.0  0.47138  0.41408  0.88758  1.0000
  H   H36       1.0  0.97138  0.58592  0.11241  1.0000
  H   H37       1.0  0.42840  0.38174  0.00841  1.0000
  H   H38       1.0  0.92840  0.61825  0.99158  1.0000
  H   H39       1.0  0.10689  0.24917  0.04208  1.0000
  H   H40       1.0  0.60689  0.75084  0.95792  1.0000
  H   H41       1.0  0.94008  0.18018  0.94336  1.0000
  H   H42       1.0  0.44007  0.81982  0.05665  1.0000
  H   H43       1.0  0.93209  0.34426  0.98602  1.0000
  H   H44       1.0  0.43208  0.65575  0.01398  1.0000
  C   C1        1.0  0.56000  0.74027  0.72546  1.0000
  C   C2        1.0  0.05999  0.25974  0.27455  1.0000
  C   C3        1.0  0.13765  0.93424  0.65444  1.0000
  C   C4        1.0  0.63766  0.06576  0.34556  1.0000
  C   C5        1.0  0.88781  0.75218  0.62151  1.0000
  C   C6        1.0  0.38781  0.24782  0.37850  1.0000
  C   C7        1.0  0.00314  0.84404  0.69134  1.0000
  C   C8        1.0  0.50315  0.15596  0.30867  1.0000
  C   C9        1.0  0.08263  0.82424  0.48895  1.0000
  C   C10       1.0  0.58263  0.17576  0.51105  1.0000
  C   C11       1.0  0.23877  0.03824  0.71729  1.0000
  C   C12       1.0  0.73877  0.96175  0.28271  1.0000
  C   C13       1.0  0.17609  0.92229  0.55344  1.0000
  C   C14       1.0  0.67609  0.07770  0.44656  1.0000
  C   C15       1.0  0.60743  0.58432  0.57237  1.0000
  C   C16       1.0  0.10742  0.41569  0.42764  1.0000
  C   C17       1.0  0.72773  0.66411  0.65817  1.0000
  C   C18       1.0  0.22772  0.33590  0.34183  1.0000
  C   C19       1.0  0.93501  0.74302  0.52275  1.0000
  C   C20       1.0  0.43500  0.25698  0.47725  1.0000
  C   C21       1.0  0.84601  0.57368  0.71476  1.0000
  C   C22       1.0  0.34600  0.42632  0.28524  1.0000
  C   C23       1.0  0.35389  0.16470  0.86982  1.0000
  C   C24       1.0  0.85388  0.83530  0.13017  1.0000
  C   C25       1.0  0.20823  0.28462  0.89712  1.0000
  C   C26       1.0  0.70823  0.71537  0.10288  1.0000
  C   C27       1.0  0.10064  0.31426  0.80411  1.0000
  C   C28       1.0  0.60064  0.68574  0.19588  1.0000
  C   C29       1.0  0.34935  0.39665  0.94056  1.0000
  C   C30       1.0  0.84934  0.60334  0.05943  1.0000
  C   C31       1.0  0.03822  0.26257  0.97137  1.0000
  C   C32       1.0  0.53821  0.73743  0.02863  1.0000
  C   C33       1.0  0.43225  0.11983  0.96256  1.0000
  C   C34       1.0  0.93224  0.88017  0.03744  1.0000
  N   N1        1.0  0.24338  0.05673  0.81248  1.0000
  N   N2        1.0  0.74337  0.94326  0.18752  1.0000
  N   N3        1.0  0.13451  0.80684  0.38599  1.0000
  N   N4        1.0  0.63451  0.19317  0.61400  1.0000
  O   O1        1.0  0.35412  0.01772  0.98385  1.0000
  O   O2        1.0  0.85411  0.98227  0.01614  1.0000
  O   O3        1.0  0.57025  0.18139  0.01764  1.0000
  O   O4        1.0  0.07026  0.81860  0.98237  1.0000
  O   O5        1.0  0.98160  0.84193  0.78422  1.0000
  O   O6        1.0  0.48159  0.15807  0.21578  1.0000
  O   O7        1.0  0.24982  0.88665  0.35579  1.0000
  O   O8        1.0  0.74982  0.11336  0.64421  1.0000
  O   O9        1.0  0.05912  0.71301  0.32963  1.0000
  O   O10       1.0  0.55912  0.28700  0.67036  1.0000
