data_image0
_chemical_formula_structural       Hg2H40C52S4I4N12
_chemical_formula_sum              "Hg2 H40 C52 S4 I4 N12"
_cell_length_a       8.5327
_cell_length_b       12.4106
_cell_length_c       13.9033
_cell_angle_alpha    110.17
_cell_angle_beta     93.0014
_cell_angle_gamma    97.7515

_space_group_name_H-M_alt    "P 1"
_space_group_IT_number       1

loop_
  _space_group_symop_operation_xyz
  'x, y, z'

loop_
  _atom_site_type_symbol
  _atom_site_label
  _atom_site_symmetry_multiplicity
  _atom_site_fract_x
  _atom_site_fract_y
  _atom_site_fract_z
  _atom_site_occupancy
  Hg  Hg1       1.0  0.05556  0.24452  0.36316  1.0000
  Hg  Hg2       1.0  0.94444  0.75548  0.63683  1.0000
  H   H1        1.0  0.56628  0.92145  0.63560  1.0000
  H   H2        1.0  0.43372  0.07855  0.36440  1.0000
  H   H3        1.0  0.86696  0.02627  0.39797  1.0000
  H   H4        1.0  0.13303  0.97373  0.60203  1.0000
  H   H5        1.0  0.98021  0.35794  0.61837  1.0000
  H   H6        1.0  0.01980  0.64206  0.38163  1.0000
  H   H7        1.0  0.79832  0.30452  0.73696  1.0000
  H   H8        1.0  0.20168  0.69547  0.26304  1.0000
  H   H9        1.0  0.64650  0.10401  0.68169  1.0000
  H   H10       1.0  0.35350  0.89599  0.31830  1.0000
  H   H11       1.0  0.45924  0.70765  0.55579  1.0000
  H   H12       1.0  0.54076  0.29235  0.44422  1.0000
  H   H13       1.0  0.66734  0.81182  0.17127  1.0000
  H   H14       1.0  0.33266  0.18818  0.82873  1.0000
  H   H15       1.0  0.84991  0.81061  0.23776  1.0000
  H   H16       1.0  0.15008  0.18940  0.76224  1.0000
  H   H17       1.0  0.57394  0.59549  0.00703  1.0000
  H   H18       1.0  0.42606  0.40451  0.99297  1.0000
  H   H19       1.0  0.67332  0.48990  0.84111  1.0000
  H   H20       1.0  0.32669  0.51010  0.15890  1.0000
  H   H21       1.0  0.96099  0.52474  0.81963  1.0000
  H   H22       1.0  0.03902  0.47527  0.18037  1.0000
  H   H23       1.0  0.05310  0.76318  0.13285  1.0000
  H   H24       1.0  0.94690  0.23682  0.86716  1.0000
  H   H25       1.0  0.21194  0.69926  0.89541  1.0000
  H   H26       1.0  0.78806  0.30074  0.10459  1.0000
  H   H27       1.0  0.24433  0.58074  0.93340  1.0000
  H   H28       1.0  0.75567  0.41926  0.06661  1.0000
  H   H29       1.0  0.11848  0.02092  0.93729  1.0000
  H   H30       1.0  0.88153  0.97908  0.06271  1.0000
  H   H31       1.0  0.30320  0.19631  0.05618  1.0000
  H   H32       1.0  0.69679  0.80369  0.94381  1.0000
  H   H33       1.0  0.38298  0.32025  0.20737  1.0000
  H   H34       1.0  0.61702  0.67975  0.79263  1.0000
  H   H35       1.0  0.58340  0.48526  0.32452  1.0000
  H   H36       1.0  0.41660  0.51474  0.67548  1.0000
  H   H37       1.0  0.85225  0.44368  0.37094  1.0000
  H   H38       1.0  0.14775  0.55631  0.62906  1.0000
  H   H39       1.0  0.71448  0.08898  0.21757  1.0000
  H   H40       1.0  0.28552  0.91101  0.78243  1.0000
  C   C1        1.0  0.58333  0.87260  0.55633  1.0000
  C   C2        1.0  0.41667  0.12740  0.44367  1.0000
  C   C3        1.0  0.84872  0.08600  0.47367  1.0000
  C   C4        1.0  0.15128  0.91400  0.52633  1.0000
  C   C5        1.0  0.91213  0.27071  0.59690  1.0000
  C   C6        1.0  0.08786  0.72929  0.40310  1.0000
  C   C7        1.0  0.81078  0.24052  0.66221  1.0000
  C   C8        1.0  0.18922  0.75948  0.33778  1.0000
  C   C9        1.0  0.72645  0.12777  0.63101  1.0000
  C   C10       1.0  0.27354  0.87223  0.36898  1.0000
  C   C11       1.0  0.74576  0.04714  0.53441  1.0000
  C   C12       1.0  0.25423  0.95286  0.46559  1.0000
  C   C13       1.0  0.66849  0.92379  0.49535  1.0000
  C   C14       1.0  0.33151  0.07621  0.50465  1.0000
  C   C15       1.0  0.52443  0.75373  0.51216  1.0000
  C   C16       1.0  0.47558  0.24626  0.48785  1.0000
  C   C17       1.0  0.62620  0.74736  0.36285  1.0000
  C   C18       1.0  0.37380  0.25264  0.63715  1.0000
  C   C19       1.0  0.75031  0.75533  0.18207  1.0000
  C   C20       1.0  0.24969  0.24467  0.81793  1.0000
  C   C21       1.0  0.80693  0.68697  0.08145  1.0000
  C   C22       1.0  0.19308  0.31303  0.91855  1.0000
  C   C23       1.0  0.70074  0.60892  0.99868  1.0000
  C   C24       1.0  0.29926  0.39108  0.00132  1.0000
  C   C25       1.0  0.75685  0.55003  0.90529  1.0000
  C   C26       1.0  0.24316  0.44997  0.09471  1.0000
  C   C27       1.0  0.91851  0.56891  0.89356  1.0000
  C   C28       1.0  0.08150  0.43110  0.10645  1.0000
  C   C29       1.0  0.02654  0.64594  0.97566  1.0000
  C   C30       1.0  0.97347  0.35406  0.02435  1.0000
  C   C31       1.0  0.96926  0.70328  0.06882  1.0000
  C   C32       1.0  0.03074  0.29672  0.93118  1.0000
  C   C33       1.0  0.19992  0.66429  0.95770  1.0000
  C   C34       1.0  0.80008  0.33572  0.04231  1.0000
  C   C35       1.0  0.32566  0.89735  0.05925  1.0000
  C   C36       1.0  0.67434  0.10265  0.94075  1.0000
  C   C37       1.0  0.20859  0.01322  0.99234  1.0000
  C   C38       1.0  0.79141  0.98678  0.00766  1.0000
  C   C39       1.0  0.31021  0.11038  0.05855  1.0000
  C   C40       1.0  0.68978  0.88962  0.94145  1.0000
  C   C41       1.0  0.42207  0.09212  0.12661  1.0000
  C   C42       1.0  0.57793  0.90788  0.87339  1.0000
  C   C43       1.0  0.53466  0.19113  0.19919  1.0000
  C   C44       1.0  0.46534  0.80887  0.80081  1.0000
  C   C45       1.0  0.49901  0.30456  0.23076  1.0000
  C   C46       1.0  0.50099  0.69544  0.76924  1.0000
  C   C47       1.0  0.61086  0.39716  0.29487  1.0000
  C   C48       1.0  0.38914  0.60284  0.70514  1.0000
  C   C49       1.0  0.75800  0.37433  0.32342  1.0000
  C   C50       1.0  0.24200  0.62566  0.67658  1.0000
  C   C51       1.0  0.68235  0.17570  0.23710  1.0000
  C   C52       1.0  0.31765  0.82430  0.76289  1.0000
  S   S1        1.0  0.64814  0.65576  0.23726  1.0000
  S   S2        1.0  0.35186  0.34424  0.76274  1.0000
  S   S3        1.0  0.34132  0.75922  0.06454  1.0000
  S   S4        1.0  0.65868  0.24078  0.93547  1.0000
  I   I1        1.0  0.22296  0.45722  0.40742  1.0000
  I   I2        1.0  0.77703  0.54278  0.59258  1.0000
  I   I3        1.0  0.06254  0.02160  0.24459  1.0000
  I   I4        1.0  0.93746  0.97840  0.75541  1.0000
  N   N1        1.0  0.92909  0.19454  0.50356  1.0000
  N   N2        1.0  0.07090  0.80546  0.49644  1.0000
  N   N3        1.0  0.68819  0.86016  0.39715  1.0000
  N   N4        1.0  0.31181  0.13984  0.60285  1.0000
  N   N5        1.0  0.21460  0.90539  0.99150  1.0000
  N   N6        1.0  0.78540  0.09461  0.00850  1.0000
  N   N7        1.0  0.43100  0.98464  0.12674  1.0000
  N   N8        1.0  0.56900  0.01536  0.87326  1.0000
  N   N9        1.0  0.79128  0.26556  0.29640  1.0000
  N   N10       1.0  0.20871  0.73444  0.70360  1.0000
  N   N11       1.0  0.54515  0.68943  0.41582  1.0000
  N   N12       1.0  0.45486  0.31056  0.58418  1.0000
