data_image0
_chemical_formula_structural       V4H32C48I4N8O20
_chemical_formula_sum              "V4 H32 C48 I4 N8 O20"
_cell_length_a       11.5535
_cell_length_b       11.5535
_cell_length_c       12.0464
_cell_angle_alpha    114.105
_cell_angle_beta     113.64
_cell_angle_gamma    98.9786

_space_group_name_H-M_alt    "P 1"
_space_group_IT_number       1

loop_
  _space_group_symop_operation_xyz
  'x, y, z'

loop_
  _atom_site_type_symbol
  _atom_site_label
  _atom_site_symmetry_multiplicity
  _atom_site_fract_x
  _atom_site_fract_y
  _atom_site_fract_z
  _atom_site_occupancy
  V   V1        1.0  0.63428  0.61639  0.26948  1.0000
  V   V2        1.0  0.34690  0.86480  0.23051  1.0000
  V   V3        1.0  0.36571  0.38361  0.73051  1.0000
  V   V4        1.0  0.65310  0.13520  0.76949  1.0000
  H   H1        1.0  0.55479  0.43722  0.39391  1.0000
  H   H2        1.0  0.04331  0.66088  0.10609  1.0000
  H   H3        1.0  0.44521  0.56278  0.60609  1.0000
  H   H4        1.0  0.95670  0.33912  0.89391  1.0000
  H   H5        1.0  0.67311  0.37494  0.57203  1.0000
  H   H6        1.0  0.80292  0.60108  0.92797  1.0000
  H   H7        1.0  0.32689  0.62505  0.42797  1.0000
  H   H8        1.0  0.19709  0.39892  0.07203  1.0000
  H   H9        1.0  0.93038  0.47265  0.71627  1.0000
  H   H10       1.0  0.75638  0.71411  0.78373  1.0000
  H   H11       1.0  0.06962  0.52735  0.28373  1.0000
  H   H12       1.0  0.24363  0.28589  0.21627  1.0000
  H   H13       1.0  0.15121  0.62970  0.77656  1.0000
  H   H14       1.0  0.85314  0.87466  0.72345  1.0000
  H   H15       1.0  0.84879  0.37030  0.22345  1.0000
  H   H16       1.0  0.14686  0.12534  0.27656  1.0000
  H   H17       1.0  0.27221  0.78992  0.73662  1.0000
  H   H18       1.0  0.05330  0.03558  0.76338  1.0000
  H   H19       1.0  0.72779  0.21008  0.26338  1.0000
  H   H20       1.0  0.94670  0.96442  0.23663  1.0000
  H   H21       1.0  0.26243  0.90446  0.58986  1.0000
  H   H22       1.0  0.31459  0.17257  0.91014  1.0000
  H   H23       1.0  0.73756  0.09554  0.41014  1.0000
  H   H24       1.0  0.68540  0.82743  0.08986  1.0000
  H   H25       1.0  0.11848  0.93123  0.39224  1.0000
  H   H26       1.0  0.53899  0.22624  0.10776  1.0000
  H   H27       1.0  0.88152  0.06877  0.60776  1.0000
  H   H28       1.0  0.46101  0.77376  0.89223  1.0000
  H   H29       1.0  0.86090  0.80546  0.25546  1.0000
  H   H30       1.0  0.55000  0.10545  0.24454  1.0000
  H   H31       1.0  0.13910  0.19454  0.74454  1.0000
  H   H32       1.0  0.45000  0.89455  0.75545  1.0000
  C   C1        1.0  0.66607  0.47703  0.45606  1.0000
  C   C2        1.0  0.02097  0.71001  0.04394  1.0000
  C   C3        1.0  0.33393  0.52297  0.54393  1.0000
  C   C4        1.0  0.97903  0.28999  0.95606  1.0000
  C   C5        1.0  0.73359  0.44217  0.55655  1.0000
  C   C6        1.0  0.88562  0.67704  0.94345  1.0000
  C   C7        1.0  0.26640  0.55783  0.44344  1.0000
  C   C8        1.0  0.11439  0.32296  0.05655  1.0000
  C   C9        1.0  0.87485  0.49634  0.63619  1.0000
  C   C10       1.0  0.86015  0.73865  0.86381  1.0000
  C   C11       1.0  0.12515  0.50366  0.36380  1.0000
  C   C12       1.0  0.13986  0.26135  0.13620  1.0000
  C   C13       1.0  0.94865  0.58597  0.61464  1.0000
  C   C14       1.0  0.97133  0.83401  0.88537  1.0000
  C   C15       1.0  0.05135  0.41404  0.38537  1.0000
  C   C16       1.0  0.02867  0.16599  0.11464  1.0000
  C   C17       1.0  0.09454  0.65147  0.69557  1.0000
  C   C18       1.0  0.95590  0.89897  0.80443  1.0000
  C   C19       1.0  0.90546  0.34853  0.30443  1.0000
  C   C20       1.0  0.04410  0.10103  0.19557  1.0000
  C   C21       1.0  0.16135  0.73940  0.67245  1.0000
  C   C22       1.0  0.06696  0.98890  0.82756  1.0000
  C   C23       1.0  0.83865  0.26060  0.32755  1.0000
  C   C24       1.0  0.93304  0.01110  0.17244  1.0000
  C   C25       1.0  0.08836  0.76589  0.56349  1.0000
  C   C26       1.0  0.20239  0.02487  0.93651  1.0000
  C   C27       1.0  0.91164  0.23411  0.43651  1.0000
  C   C28       1.0  0.79761  0.97513  0.06349  1.0000
  C   C29       1.0  0.15135  0.85168  0.53052  1.0000
  C   C30       1.0  0.32115  0.12082  0.96948  1.0000
  C   C31       1.0  0.84865  0.14832  0.46948  1.0000
  C   C32       1.0  0.67885  0.87918  0.03052  1.0000
  C   C33       1.0  0.07109  0.86729  0.42032  1.0000
  C   C34       1.0  0.44697  0.15078  0.07968  1.0000
  C   C35       1.0  0.92890  0.13272  0.57968  1.0000
  C   C36       1.0  0.55304  0.84922  0.92032  1.0000
  C   C37       1.0  0.92848  0.79800  0.34423  1.0000
  C   C38       1.0  0.45377  0.08426  0.15577  1.0000
  C   C39       1.0  0.07151  0.20200  0.65577  1.0000
  C   C40       1.0  0.54623  0.91574  0.84423  1.0000
  C   C41       1.0  0.87261  0.61346  0.50918  1.0000
  C   C42       1.0  0.10428  0.86344  0.99083  1.0000
  C   C43       1.0  0.12739  0.38654  0.49082  1.0000
  C   C44       1.0  0.89572  0.13656  0.00918  1.0000
  C   C45       1.0  0.94348  0.70125  0.48108  1.0000
  C   C46       1.0  0.22017  0.96240  0.01892  1.0000
  C   C47       1.0  0.05651  0.29875  0.51892  1.0000
  C   C48       1.0  0.77983  0.03760  0.98108  1.0000
  I   I1        1.0  0.57653  0.84340  0.50514  1.0000
  I   I2        1.0  0.33826  0.57140  0.99486  1.0000
  I   I3        1.0  0.42347  0.15660  0.49487  1.0000
  I   I4        1.0  0.66173  0.42860  0.00513  1.0000
  N   N1        1.0  0.73384  0.56029  0.43269  1.0000
  N   N2        1.0  0.12760  0.80115  0.06731  1.0000
  N   N3        1.0  0.26616  0.43971  0.56731  1.0000
  N   N4        1.0  0.87240  0.19885  0.93269  1.0000
  N   N5        1.0  0.86653  0.71816  0.37415  1.0000
  N   N6        1.0  0.34401  0.99239  0.12585  1.0000
  N   N7        1.0  0.13347  0.28184  0.62585  1.0000
  N   N8        1.0  0.65599  0.00761  0.87415  1.0000
  O   O1        1.0  0.48015  0.55339  0.24021  1.0000
  O   O2        1.0  0.31318  0.73994  0.25978  1.0000
  O   O3        1.0  0.51984  0.44660  0.75978  1.0000
  O   O4        1.0  0.68682  0.26006  0.74022  1.0000
  O   O5        1.0  0.58188  0.74168  0.58547  1.0000
  O   O6        1.0  0.15621  0.49641  0.91453  1.0000
  O   O7        1.0  0.41811  0.25832  0.41453  1.0000
  O   O8        1.0  0.84379  0.50359  0.08547  1.0000
  O   O9        1.0  0.60967  0.64949  0.13887  1.0000
  O   O10       1.0  0.51062  0.97079  0.36112  1.0000
  O   O11       1.0  0.39033  0.35051  0.86113  1.0000
  O   O12       1.0  0.48939  0.02921  0.63888  1.0000
  O   O13       1.0  0.69000  0.79868  0.43127  1.0000
  O   O14       1.0  0.36740  0.75873  0.06873  1.0000
  O   O15       1.0  0.31000  0.20132  0.56873  1.0000
  O   O16       1.0  0.63259  0.24127  0.93127  1.0000
  O   O17       1.0  0.72041  0.00842  0.66352  1.0000
  O   O18       1.0  0.34490  0.55690  0.83648  1.0000
  O   O19       1.0  0.27959  0.99158  0.33649  1.0000
  O   O20       1.0  0.65510  0.44310  0.16351  1.0000
