data_image0
_chemical_formula_structural       Mo4H44C56N12O20
_chemical_formula_sum              "Mo4 H44 C56 N12 O20"
_cell_length_a       7.46283
_cell_length_b       10.5218
_cell_length_c       18.49
_cell_angle_alpha    106.804
_cell_angle_beta     89.9998
_cell_angle_gamma    90.0003

_space_group_name_H-M_alt    "P 1"
_space_group_IT_number       1

loop_
  _space_group_symop_operation_xyz
  'x, y, z'

loop_
  _atom_site_type_symbol
  _atom_site_label
  _atom_site_symmetry_multiplicity
  _atom_site_fract_x
  _atom_site_fract_y
  _atom_site_fract_z
  _atom_site_occupancy
  Mo  Mo1       1.0  0.47483  0.72755  0.65660  1.0000
  Mo  Mo2       1.0  0.97483  0.27245  0.84339  1.0000
  Mo  Mo3       1.0  0.52516  0.27245  0.34340  1.0000
  Mo  Mo4       1.0  0.02517  0.72755  0.15661  1.0000
  H   H1        1.0  0.19094  0.43690  0.49015  1.0000
  H   H2        1.0  0.69094  0.56309  0.00985  1.0000
  H   H3        1.0  0.80906  0.56309  0.50985  1.0000
  H   H4        1.0  0.30907  0.43691  0.99015  1.0000
  H   H5        1.0  0.61575  0.08824  0.79817  1.0000
  H   H6        1.0  0.11575  0.91175  0.70183  1.0000
  H   H7        1.0  0.38425  0.91175  0.20183  1.0000
  H   H8        1.0  0.88424  0.08825  0.29817  1.0000
  H   H9        1.0  0.70369  0.45504  0.76263  1.0000
  H   H10       1.0  0.20369  0.54496  0.73737  1.0000
  H   H11       1.0  0.29631  0.54496  0.23737  1.0000
  H   H12       1.0  0.79631  0.45504  0.26263  1.0000
  H   H13       1.0  0.08171  0.50867  0.39166  1.0000
  H   H14       1.0  0.58170  0.49132  0.10834  1.0000
  H   H15       1.0  0.91829  0.49133  0.60834  1.0000
  H   H16       1.0  0.41829  0.50867  0.89166  1.0000
  H   H17       1.0  0.11848  0.91493  0.38936  1.0000
  H   H18       1.0  0.61847  0.08506  0.11063  1.0000
  H   H19       1.0  0.88153  0.08506  0.61064  1.0000
  H   H20       1.0  0.38152  0.91494  0.88936  1.0000
  H   H21       1.0  0.35945  0.05955  0.43194  1.0000
  H   H22       1.0  0.85945  0.94045  0.06805  1.0000
  H   H23       1.0  0.64056  0.94046  0.56806  1.0000
  H   H24       1.0  0.14055  0.05955  0.93194  1.0000
  H   H25       1.0  0.33846  0.18617  0.52047  1.0000
  H   H26       1.0  0.83846  0.81382  0.97953  1.0000
  H   H27       1.0  0.66154  0.81382  0.47953  1.0000
  H   H28       1.0  0.16154  0.18618  0.02047  1.0000
  H   H29       1.0  0.14146  0.11552  0.47012  1.0000
  H   H30       1.0  0.64146  0.88448  0.02987  1.0000
  H   H31       1.0  0.85853  0.88449  0.52988  1.0000
  H   H32       1.0  0.35854  0.11552  0.97012  1.0000
  H   H33       1.0  0.02167  0.68558  0.32920  1.0000
  H   H34       1.0  0.52166  0.31441  0.17079  1.0000
  H   H35       1.0  0.97834  0.31442  0.67079  1.0000
  H   H36       1.0  0.47833  0.68559  0.82921  1.0000
  H   H37       1.0  0.26987  0.21405  0.64531  1.0000
  H   H38       1.0  0.76987  0.78596  0.85469  1.0000
  H   H39       1.0  0.73013  0.78596  0.35469  1.0000
  H   H40       1.0  0.23013  0.21405  0.14531  1.0000
  H   H41       1.0  0.35452  0.04519  0.71141  1.0000
  H   H42       1.0  0.85451  0.95480  0.78859  1.0000
  H   H43       1.0  0.64549  0.95481  0.28859  1.0000
  H   H44       1.0  0.14548  0.04520  0.21141  1.0000
  C   C1        1.0  0.44770  0.45373  0.66438  1.0000
  C   C2        1.0  0.94770  0.54627  0.83562  1.0000
  C   C3        1.0  0.55231  0.54627  0.33562  1.0000
  C   C4        1.0  0.05230  0.45373  0.16439  1.0000
  C   C5        1.0  0.26036  0.77523  0.52547  1.0000
  C   C6        1.0  0.76036  0.22477  0.97453  1.0000
  C   C7        1.0  0.73963  0.22478  0.47453  1.0000
  C   C8        1.0  0.23964  0.77523  0.02547  1.0000
  C   C9        1.0  0.20818  0.64257  0.48926  1.0000
  C   C10       1.0  0.70819  0.35743  0.01075  1.0000
  C   C11       1.0  0.79181  0.35744  0.51075  1.0000
  C   C12       1.0  0.29182  0.64257  0.98926  1.0000
  C   C13       1.0  0.48282  0.34783  0.69959  1.0000
  C   C14       1.0  0.98283  0.65217  0.80041  1.0000
  C   C15       1.0  0.51718  0.65217  0.30041  1.0000
  C   C16       1.0  0.01717  0.34784  0.19959  1.0000
  C   C17       1.0  0.24290  0.53500  0.52042  1.0000
  C   C18       1.0  0.74291  0.46500  0.97958  1.0000
  C   C19       1.0  0.75709  0.46500  0.47958  1.0000
  C   C20       1.0  0.25709  0.53500  0.02042  1.0000
  C   C21       1.0  0.22869  0.87458  0.48878  1.0000
  C   C22       1.0  0.72869  0.12541  0.01122  1.0000
  C   C23       1.0  0.77130  0.12542  0.51122  1.0000
  C   C24       1.0  0.27131  0.87458  0.98878  1.0000
  C   C25       1.0  0.57526  0.16108  0.76974  1.0000
  C   C26       1.0  0.07525  0.83892  0.73026  1.0000
  C   C27       1.0  0.42475  0.83892  0.23026  1.0000
  C   C28       1.0  0.92474  0.16108  0.26974  1.0000
  C   C29       1.0  0.62510  0.36467  0.75059  1.0000
  C   C30       1.0  0.12510  0.63533  0.74940  1.0000
  C   C31       1.0  0.37490  0.63533  0.24940  1.0000
  C   C32       1.0  0.87490  0.36468  0.25060  1.0000
  C   C33       1.0  0.12041  0.61143  0.41849  1.0000
  C   C34       1.0  0.62041  0.38856  0.08151  1.0000
  C   C35       1.0  0.87958  0.38857  0.58151  1.0000
  C   C36       1.0  0.37959  0.61144  0.91849  1.0000
  C   C37       1.0  0.14360  0.84001  0.41825  1.0000
  C   C38       1.0  0.64360  0.15998  0.08175  1.0000
  C   C39       1.0  0.85639  0.15999  0.58175  1.0000
  C   C40       1.0  0.35640  0.84002  0.91825  1.0000
  C   C41       1.0  0.27982  0.09501  0.48381  1.0000
  C   C42       1.0  0.77982  0.90498  0.01619  1.0000
  C   C43       1.0  0.72018  0.90499  0.51619  1.0000
  C   C44       1.0  0.22018  0.09501  0.98381  1.0000
  C   C45       1.0  0.08817  0.70945  0.38385  1.0000
  C   C46       1.0  0.58818  0.29054  0.11615  1.0000
  C   C47       1.0  0.91182  0.29055  0.61615  1.0000
  C   C48       1.0  0.41183  0.70945  0.88385  1.0000
  C   C49       1.0  0.38259  0.23057  0.68420  1.0000
  C   C50       1.0  0.88259  0.76943  0.81580  1.0000
  C   C51       1.0  0.61742  0.76943  0.31580  1.0000
  C   C52       1.0  0.11741  0.23058  0.18420  1.0000
  C   C53       1.0  0.42932  0.13698  0.72074  1.0000
  C   C54       1.0  0.92932  0.86302  0.77926  1.0000
  C   C55       1.0  0.57068  0.86302  0.27926  1.0000
  C   C56       1.0  0.07068  0.13698  0.22074  1.0000
  N   N1        1.0  0.33744  0.54472  0.58103  1.0000
  N   N2        1.0  0.83744  0.45528  0.91897  1.0000
  N   N3        1.0  0.66255  0.45528  0.41897  1.0000
  N   N4        1.0  0.16256  0.54472  0.08103  1.0000
  N   N5        1.0  0.67340  0.27315  0.78414  1.0000
  N   N6        1.0  0.17339  0.72685  0.71586  1.0000
  N   N7        1.0  0.32661  0.72685  0.21586  1.0000
  N   N8        1.0  0.82660  0.27315  0.28414  1.0000
  N   N9        1.0  0.35412  0.42961  0.60213  1.0000
  N   N10       1.0  0.85412  0.57039  0.89787  1.0000
  N   N11       1.0  0.64587  0.57040  0.39787  1.0000
  N   N12       1.0  0.14587  0.42961  0.10213  1.0000
  O   O1        1.0  0.33842  0.81179  0.59402  1.0000
  O   O2        1.0  0.83842  0.18821  0.90598  1.0000
  O   O3        1.0  0.66158  0.18822  0.40598  1.0000
  O   O4        1.0  0.16159  0.81179  0.09402  1.0000
  O   O5        1.0  0.51084  0.57371  0.70019  1.0000
  O   O6        1.0  0.01085  0.42629  0.79982  1.0000
  O   O7        1.0  0.48916  0.42629  0.29981  1.0000
  O   O8        1.0  0.98915  0.57371  0.20019  1.0000
  O   O9        1.0  0.50269  0.85169  0.74031  1.0000
  O   O10       1.0  0.00269  0.14830  0.75968  1.0000
  O   O11       1.0  0.49731  0.14831  0.25969  1.0000
  O   O12       1.0  0.99731  0.85170  0.24031  1.0000
  O   O13       1.0  0.28497  0.99921  0.52583  1.0000
  O   O14       1.0  0.78496  0.00078  0.97416  1.0000
  O   O15       1.0  0.71503  0.00079  0.47417  1.0000
  O   O16       1.0  0.21503  0.99921  0.02584  1.0000
  O   O17       1.0  0.67738  0.70949  0.61075  1.0000
  O   O18       1.0  0.17737  0.29051  0.88925  1.0000
  O   O19       1.0  0.32262  0.29051  0.38925  1.0000
  O   O20       1.0  0.82263  0.70949  0.11075  1.0000
