data_image0
_chemical_formula_structural       Zn2H36C36N8O10
_chemical_formula_sum              "Zn2 H36 C36 N8 O10"
_cell_length_a       8.7093
_cell_length_b       8.70932
_cell_length_c       13.1724
_cell_angle_alpha    84.2413
_cell_angle_beta     84.2412
_cell_angle_gamma    67.5367

_space_group_name_H-M_alt    "P 1"
_space_group_IT_number       1

loop_
  _space_group_symop_operation_xyz
  'x, y, z'

loop_
  _atom_site_type_symbol
  _atom_site_label
  _atom_site_symmetry_multiplicity
  _atom_site_fract_x
  _atom_site_fract_y
  _atom_site_fract_z
  _atom_site_occupancy
  Zn  Zn1       1.0  0.48442  0.60691  0.69793  1.0000
  Zn  Zn2       1.0  0.60691  0.48442  0.19793  1.0000
  H   H1        1.0  0.51340  0.36469  0.51625  1.0000
  H   H2        1.0  0.36469  0.51340  0.01625  1.0000
  H   H3        1.0  0.12769  0.57950  0.74150  1.0000
  H   H4        1.0  0.57950  0.12769  0.24150  1.0000
  H   H5        1.0  0.01820  0.41309  0.61075  1.0000
  H   H6        1.0  0.41309  0.01820  0.11075  1.0000
  H   H7        1.0  0.18509  0.20465  0.47161  1.0000
  H   H8        1.0  0.20465  0.18509  0.97161  1.0000
  H   H9        1.0  0.39016  0.19226  0.43117  1.0000
  H   H10       1.0  0.19226  0.39016  0.93117  1.0000
  H   H11       1.0  0.27240  0.48089  0.34719  1.0000
  H   H12       1.0  0.48089  0.27240  0.84719  1.0000
  H   H13       1.0  0.21592  0.33181  0.29208  1.0000
  H   H14       1.0  0.33181  0.21592  0.79208  1.0000
  H   H15       1.0  0.03083  0.66034  0.25377  1.0000
  H   H16       1.0  0.66034  0.03083  0.75377  1.0000
  H   H17       1.0  0.02558  0.73810  0.37489  1.0000
  H   H18       1.0  0.73810  0.02557  0.87489  1.0000
  H   H19       1.0  0.74371  0.66091  0.29656  1.0000
  H   H20       1.0  0.66091  0.74371  0.79656  1.0000
  H   H21       1.0  0.75429  0.86094  0.29024  1.0000
  H   H22       1.0  0.86094  0.75428  0.79024  1.0000
  H   H23       1.0  0.66276  0.02512  0.44968  1.0000
  H   H24       1.0  0.02512  0.66276  0.94968  1.0000
  H   H25       1.0  0.50354  0.96272  0.63531  1.0000
  H   H26       1.0  0.96273  0.50354  0.13531  1.0000
  H   H27       1.0  0.70815  0.52012  0.48017  1.0000
  H   H28       1.0  0.52012  0.70816  0.98016  1.0000
  H   H29       1.0  0.73602  0.35457  0.96388  1.0000
  H   H30       1.0  0.35457  0.73602  0.46388  1.0000
  H   H31       1.0  0.89759  0.13773  0.09181  1.0000
  H   H32       1.0  0.13773  0.89759  0.59181  1.0000
  H   H33       1.0  0.12783  0.88005  0.03194  1.0000
  H   H34       1.0  0.88005  0.12783  0.53194  1.0000
  H   H35       1.0  0.05083  0.07876  0.71964  1.0000
  H   H36       1.0  0.07875  0.05083  0.21964  1.0000
  C   C1        1.0  0.39527  0.40251  0.56174  1.0000
  C   C2        1.0  0.40251  0.39526  0.06174  1.0000
  C   C3        1.0  0.18978  0.51220  0.67484  1.0000
  C   C4        1.0  0.51220  0.18977  0.17484  1.0000
  C   C5        1.0  0.13498  0.43076  0.61139  1.0000
  C   C6        1.0  0.43076  0.13498  0.11139  1.0000
  C   C7        1.0  0.26310  0.27779  0.45112  1.0000
  C   C8        1.0  0.27779  0.26310  0.95112  1.0000
  C   C9        1.0  0.19898  0.40106  0.36077  1.0000
  C   C10       1.0  0.40106  0.19898  0.86077  1.0000
  C   C11       1.0  0.97894  0.66233  0.33390  1.0000
  C   C12       1.0  0.66233  0.97894  0.83390  1.0000
  C   C13       1.0  0.79104  0.73956  0.33357  1.0000
  C   C14       1.0  0.73956  0.79104  0.83357  1.0000
  C   C15       1.0  0.64658  0.91277  0.48404  1.0000
  C   C16       1.0  0.91277  0.64658  0.98403  1.0000
  C   C17       1.0  0.57205  0.88016  0.57604  1.0000
  C   C18       1.0  0.88016  0.57205  0.07604  1.0000
  C   C19       1.0  0.67309  0.64802  0.49866  1.0000
  C   C20       1.0  0.64802  0.67309  0.99866  1.0000
  C   C21       1.0  0.77130  0.35033  0.75749  1.0000
  C   C22       1.0  0.35033  0.77130  0.25749  1.0000
  C   C23       1.0  0.88237  0.22966  0.83412  1.0000
  C   C24       1.0  0.22965  0.88237  0.33412  1.0000
  C   C25       1.0  0.84113  0.24572  0.93923  1.0000
  C   C26       1.0  0.24572  0.84113  0.43923  1.0000
  C   C27       1.0  0.93027  0.12192  0.01036  1.0000
  C   C28       1.0  0.12192  0.93027  0.51036  1.0000
  C   C29       1.0  0.05893  0.97852  0.97698  1.0000
  C   C30       1.0  0.97851  0.05893  0.47698  1.0000
  C   C31       1.0  0.10399  0.96296  0.87194  1.0000
  C   C32       1.0  0.96296  0.10400  0.37194  1.0000
  C   C33       1.0  0.01775  0.09037  0.80122  1.0000
  C   C34       1.0  0.09037  0.01775  0.30122  1.0000
  C   C35       1.0  0.23715  0.80563  0.83582  1.0000
  C   C36       1.0  0.80563  0.23715  0.33582  1.0000
  N   N1        1.0  0.35196  0.49373  0.64311  1.0000
  N   N2        1.0  0.49373  0.35196  0.14311  1.0000
  N   N3        1.0  0.26671  0.36203  0.54081  1.0000
  N   N4        1.0  0.36203  0.26671  0.04081  1.0000
  N   N5        1.0  0.70783  0.76508  0.43584  1.0000
  N   N6        1.0  0.76508  0.70783  0.93584  1.0000
  N   N7        1.0  0.59032  0.71449  0.58437  1.0000
  N   N8        1.0  0.71449  0.59032  0.08437  1.0000
  O   O1        1.0  0.64415  0.46981  0.79742  1.0000
  O   O2        1.0  0.46981  0.64415  0.29741  1.0000
  O   O3        1.0  0.79881  0.32870  0.66382  1.0000
  O   O4        1.0  0.32869  0.79881  0.16382  1.0000
  O   O5        1.0  0.25972  0.67022  0.88777  1.0000
  O   O6        1.0  0.67022  0.25972  0.38777  1.0000
  O   O7        1.0  0.31828  0.81935  0.74995  1.0000
  O   O8        1.0  0.81934  0.31828  0.24995  1.0000
  O   O9        1.0  0.02648  0.49834  0.38178  1.0000
  O   O10       1.0  0.49834  0.02648  0.88178  1.0000
