data_image0
_chemical_formula_structural       Cd2H36C36N8O12
_chemical_formula_sum              "Cd2 H36 C36 N8 O12"
_cell_length_a       8.36165
_cell_length_b       10.414
_cell_length_c       11.5142
_cell_angle_alpha    83.1849
_cell_angle_beta     72.9499
_cell_angle_gamma    79.0415

_space_group_name_H-M_alt    "P 1"
_space_group_IT_number       1

loop_
  _space_group_symop_operation_xyz
  'x, y, z'

loop_
  _atom_site_type_symbol
  _atom_site_label
  _atom_site_symmetry_multiplicity
  _atom_site_fract_x
  _atom_site_fract_y
  _atom_site_fract_z
  _atom_site_occupancy
  Cd  Cd1       1.0  0.47299  0.80617  0.61329  1.0000
  Cd  Cd2       1.0  0.52701  0.19383  0.38671  1.0000
  H   H1        1.0  0.71295  0.54022  0.45140  1.0000
  H   H2        1.0  0.28704  0.45979  0.54860  1.0000
  H   H3        1.0  0.84778  0.90931  0.45827  1.0000
  H   H4        1.0  0.15222  0.09069  0.54174  1.0000
  H   H5        1.0  0.12736  0.74755  0.31606  1.0000
  H   H6        1.0  0.87264  0.25245  0.68394  1.0000
  H   H7        1.0  0.02502  0.40839  0.34897  1.0000
  H   H8        1.0  0.97498  0.59161  0.65103  1.0000
  H   H9        1.0  0.18521  0.50587  0.28320  1.0000
  H   H10       1.0  0.81479  0.49413  0.71680  1.0000
  H   H11       1.0  0.10680  0.42520  0.12226  1.0000
  H   H12       1.0  0.89320  0.57480  0.87774  1.0000
  H   H13       1.0  0.88755  0.48471  0.18508  1.0000
  H   H14       1.0  0.11246  0.51529  0.81492  1.0000
  H   H15       1.0  0.80379  0.72400  0.19915  1.0000
  H   H16       1.0  0.19621  0.27600  0.80086  1.0000
  H   H17       1.0  0.81428  0.66657  0.05732  1.0000
  H   H18       1.0  0.18573  0.33343  0.94268  1.0000
  H   H19       1.0  0.79567  0.91100  0.06316  1.0000
  H   H20       1.0  0.20433  0.08900  0.93684  1.0000
  H   H21       1.0  0.99837  0.88230  0.08987  1.0000
  H   H22       1.0  0.00163  0.11770  0.91013  1.0000
  H   H23       1.0  0.78306  0.86919  0.84225  1.0000
  H   H24       1.0  0.21693  0.13081  0.15776  1.0000
  H   H25       1.0  0.04067  0.86278  0.62329  1.0000
  H   H26       1.0  0.95933  0.13722  0.37671  1.0000
  H   H27       1.0  0.26134  0.82442  0.91347  1.0000
  H   H28       1.0  0.73866  0.17558  0.08652  1.0000
  H   H29       1.0  0.45656  0.96041  0.10960  1.0000
  H   H30       1.0  0.54344  0.03960  0.89040  1.0000
  H   H31       1.0  0.53322  0.55127  0.04305  1.0000
  H   H32       1.0  0.46678  0.44873  0.95695  1.0000
  H   H33       1.0  0.43692  0.66558  0.40729  1.0000
  H   H34       1.0  0.56307  0.33443  0.59271  1.0000
  H   H35       1.0  0.52832  0.72322  0.89067  1.0000
  H   H36       1.0  0.47168  0.27678  0.10933  1.0000
  C   C1        1.0  0.78732  0.61856  0.43781  1.0000
  C   C2        1.0  0.21268  0.38144  0.56219  1.0000
  C   C3        1.0  0.86389  0.80812  0.43680  1.0000
  C   C4        1.0  0.13611  0.19188  0.56320  1.0000
  C   C5        1.0  0.00097  0.73022  0.36616  1.0000
  C   C6        1.0  0.99903  0.26979  0.63384  1.0000
  C   C7        1.0  0.05136  0.50111  0.29685  1.0000
  C   C8        1.0  0.94864  0.49889  0.70315  1.0000
  C   C9        1.0  0.01659  0.50416  0.17337  1.0000
  C   C10       1.0  0.98342  0.49584  0.82663  1.0000
  C   C11       1.0  0.88483  0.71025  0.10537  1.0000
  C   C12       1.0  0.11517  0.28976  0.89463  1.0000
  C   C13       1.0  0.91746  0.84432  0.04677  1.0000
  C   C14       1.0  0.08254  0.15568  0.95323  1.0000
  C   C15       1.0  0.91963  0.85929  0.82367  1.0000
  C   C16       1.0  0.08036  0.14071  0.17633  1.0000
  C   C17       1.0  0.04788  0.85537  0.71644  1.0000
  C   C18       1.0  0.95211  0.14463  0.28356  1.0000
  C   C19       1.0  0.16816  0.83503  0.86291  1.0000
  C   C20       1.0  0.83184  0.16497  0.13709  1.0000
  C   C21       1.0  0.41056  0.93208  0.35079  1.0000
  C   C22       1.0  0.58944  0.06792  0.64921  1.0000
  C   C23       1.0  0.43942  0.82415  0.26701  1.0000
  C   C24       1.0  0.56058  0.17585  0.73299  1.0000
  C   C25       1.0  0.46066  0.85767  0.14272  1.0000
  C   C26       1.0  0.53934  0.14233  0.85728  1.0000
  C   C27       1.0  0.49139  0.75984  0.06175  1.0000
  C   C28       1.0  0.50861  0.24016  0.93825  1.0000
  C   C29       1.0  0.50288  0.62820  0.10580  1.0000
  C   C30       1.0  0.49712  0.37180  0.89419  1.0000
  C   C31       1.0  0.48571  0.59449  0.22951  1.0000
  C   C32       1.0  0.51428  0.40551  0.77049  1.0000
  C   C33       1.0  0.45188  0.69245  0.31095  1.0000
  C   C34       1.0  0.54812  0.30755  0.68904  1.0000
  C   C35       1.0  0.50641  0.45285  0.27478  1.0000
  C   C36       1.0  0.49359  0.54716  0.72522  1.0000
  N   N1        1.0  0.73203  0.73721  0.48090  1.0000
  N   N2        1.0  0.26797  0.26279  0.51910  1.0000
  N   N3        1.0  0.95077  0.61057  0.36807  1.0000
  N   N4        1.0  0.04923  0.38943  0.63193  1.0000
  N   N5        1.0  0.99857  0.84655  0.91582  1.0000
  N   N6        1.0  0.00143  0.15344  0.08418  1.0000
  N   N7        1.0  0.20175  0.84051  0.74235  1.0000
  N   N8        1.0  0.79825  0.15949  0.25764  1.0000
  O   O1        1.0  0.35034  0.90890  0.46481  1.0000
  O   O2        1.0  0.64966  0.09110  0.53519  1.0000
  O   O3        1.0  0.44822  0.04167  0.29923  1.0000
  O   O4        1.0  0.55177  0.95833  0.70077  1.0000
  O   O5        1.0  0.46757  0.36923  0.21886  1.0000
  O   O6        1.0  0.53243  0.63078  0.78114  1.0000
  O   O7        1.0  0.55835  0.42237  0.36931  1.0000
  O   O8        1.0  0.44165  0.57763  0.63069  1.0000
  O   O9        1.0  0.51494  0.79807  0.94164  1.0000
  O   O10       1.0  0.48506  0.20193  0.05836  1.0000
  O   O11       1.0  0.04165  0.62601  0.10409  1.0000
  O   O12       1.0  0.95835  0.37399  0.89591  1.0000
