data_image0
_chemical_formula_structural       Zn4H56C48N16O20
_chemical_formula_sum              "Zn4 H56 C48 N16 O20"
_cell_length_a       10.4609
_cell_length_b       11.6204
_cell_length_c       12.1676
_cell_angle_alpha    92.1977
_cell_angle_beta     89.9998
_cell_angle_gamma    90.0004

_space_group_name_H-M_alt    "P 1"
_space_group_IT_number       1

loop_
  _space_group_symop_operation_xyz
  'x, y, z'

loop_
  _atom_site_type_symbol
  _atom_site_label
  _atom_site_symmetry_multiplicity
  _atom_site_fract_x
  _atom_site_fract_y
  _atom_site_fract_z
  _atom_site_occupancy
  Zn  Zn1       1.0  0.64066  0.01657  0.30874  1.0000
  Zn  Zn2       1.0  0.64066  0.48343  0.19127  1.0000
  Zn  Zn3       1.0  0.35934  0.98343  0.69126  1.0000
  Zn  Zn4       1.0  0.35934  0.51657  0.80874  1.0000
  H   H1        1.0  0.78005  0.90888  0.52851  1.0000
  H   H2        1.0  0.78006  0.59112  0.97149  1.0000
  H   H3        1.0  0.21995  0.09112  0.47149  1.0000
  H   H4        1.0  0.21994  0.40887  0.02851  1.0000
  H   H5        1.0  0.10420  0.83479  0.33124  1.0000
  H   H6        1.0  0.10420  0.66523  0.16877  1.0000
  H   H7        1.0  0.89579  0.16521  0.66877  1.0000
  H   H8        1.0  0.89580  0.33477  0.83124  1.0000
  H   H9        1.0  0.90220  0.90655  0.19866  1.0000
  H   H10       1.0  0.90219  0.59345  0.30133  1.0000
  H   H11       1.0  0.09780  0.09344  0.80133  1.0000
  H   H12       1.0  0.09780  0.40654  0.69866  1.0000
  H   H13       1.0  0.00562  0.88520  0.62377  1.0000
  H   H14       1.0  0.00562  0.61480  0.87623  1.0000
  H   H15       1.0  0.99438  0.11479  0.37624  1.0000
  H   H16       1.0  0.99438  0.38519  0.12377  1.0000
  H   H17       1.0  0.13504  0.84180  0.53878  1.0000
  H   H18       1.0  0.13504  0.65821  0.96122  1.0000
  H   H19       1.0  0.86496  0.15820  0.46122  1.0000
  H   H20       1.0  0.86496  0.34180  0.03880  1.0000
  H   H21       1.0  0.03448  0.64620  0.50933  1.0000
  H   H22       1.0  0.03448  0.85381  0.99067  1.0000
  H   H23       1.0  0.96552  0.35381  0.49068  1.0000
  H   H24       1.0  0.96553  0.14619  0.00933  1.0000
  H   H25       1.0  0.07317  0.68215  0.65042  1.0000
  H   H26       1.0  0.07317  0.81787  0.84958  1.0000
  H   H27       1.0  0.92683  0.31786  0.34958  1.0000
  H   H28       1.0  0.92684  0.18214  0.15043  1.0000
  H   H29       1.0  0.89222  0.55973  0.72475  1.0000
  H   H30       1.0  0.89223  0.94027  0.77525  1.0000
  H   H31       1.0  0.10777  0.44027  0.27525  1.0000
  H   H32       1.0  0.10777  0.05973  0.22475  1.0000
  H   H33       1.0  0.90239  0.51174  0.58387  1.0000
  H   H34       1.0  0.90239  0.98826  0.91613  1.0000
  H   H35       1.0  0.09761  0.48825  0.41614  1.0000
  H   H36       1.0  0.09761  0.01173  0.08387  1.0000
  H   H37       1.0  0.66103  0.61109  0.69915  1.0000
  H   H38       1.0  0.66104  0.88891  0.80085  1.0000
  H   H39       1.0  0.33896  0.38891  0.30086  1.0000
  H   H40       1.0  0.33897  0.11109  0.19915  1.0000
  H   H41       1.0  0.69011  0.46462  0.66412  1.0000
  H   H42       1.0  0.69011  0.03539  0.83586  1.0000
  H   H43       1.0  0.30989  0.53539  0.33587  1.0000
  H   H44       1.0  0.30989  0.96461  0.16413  1.0000
  H   H45       1.0  0.57396  0.73901  0.55791  1.0000
  H   H46       1.0  0.57396  0.76099  0.94209  1.0000
  H   H47       1.0  0.42604  0.26098  0.44209  1.0000
  H   H48       1.0  0.42603  0.23901  0.05791  1.0000
  H   H49       1.0  0.53130  0.71344  0.33290  1.0000
  H   H50       1.0  0.53130  0.78657  0.16710  1.0000
  H   H51       1.0  0.46869  0.28656  0.66710  1.0000
  H   H52       1.0  0.46869  0.21343  0.83290  1.0000
  H   H53       1.0  0.71870  0.41692  0.44169  1.0000
  H   H54       1.0  0.71871  0.08308  0.05830  1.0000
  H   H55       1.0  0.28129  0.58308  0.55831  1.0000
  H   H56       1.0  0.28130  0.91691  0.94169  1.0000
  C   C1        1.0  0.83855  0.89847  0.45541  1.0000
  C   C2        1.0  0.83855  0.60153  0.04459  1.0000
  C   C3        1.0  0.16145  0.10154  0.54459  1.0000
  C   C4        1.0  0.16145  0.39847  0.95541  1.0000
  C   C5        1.0  0.00688  0.86051  0.35041  1.0000
  C   C6        1.0  0.00688  0.63950  0.14959  1.0000
  C   C7        1.0  0.99312  0.13949  0.64959  1.0000
  C   C8        1.0  0.99312  0.36050  0.85041  1.0000
  C   C9        1.0  0.90693  0.89652  0.28676  1.0000
  C   C10       1.0  0.90692  0.60348  0.21324  1.0000
  C   C11       1.0  0.09307  0.10348  0.71324  1.0000
  C   C12       1.0  0.09307  0.39652  0.78676  1.0000
  C   C13       1.0  0.03292  0.82793  0.55393  1.0000
  C   C14       1.0  0.03293  0.67207  0.94607  1.0000
  C   C15       1.0  0.96708  0.17207  0.44607  1.0000
  C   C16       1.0  0.96708  0.32793  0.05393  1.0000
  C   C17       1.0  0.01021  0.70358  0.58139  1.0000
  C   C18       1.0  0.01021  0.79642  0.91861  1.0000
  C   C19       1.0  0.98979  0.29642  0.41862  1.0000
  C   C20       1.0  0.98979  0.20358  0.08139  1.0000
  C   C21       1.0  0.85424  0.57393  0.64156  1.0000
  C   C22       1.0  0.85424  0.92608  0.85844  1.0000
  C   C23       1.0  0.14576  0.42608  0.35844  1.0000
  C   C24       1.0  0.14576  0.07392  0.14156  1.0000
  C   C25       1.0  0.71106  0.55299  0.64032  1.0000
  C   C26       1.0  0.71107  0.94702  0.85967  1.0000
  C   C27       1.0  0.28893  0.44702  0.35968  1.0000
  C   C28       1.0  0.28893  0.05299  0.14033  1.0000
  C   C29       1.0  0.59689  0.66954  0.49919  1.0000
  C   C30       1.0  0.59689  0.83047  0.00081  1.0000
  C   C31       1.0  0.40311  0.33046  0.50080  1.0000
  C   C32       1.0  0.40312  0.16953  0.99919  1.0000
  C   C33       1.0  0.57672  0.65493  0.38791  1.0000
  C   C34       1.0  0.57672  0.84508  0.11209  1.0000
  C   C35       1.0  0.42328  0.34507  0.61208  1.0000
  C   C36       1.0  0.42329  0.15492  0.88791  1.0000
  C   C37       1.0  0.67396  0.50093  0.44063  1.0000
  C   C38       1.0  0.67397  0.99907  0.05937  1.0000
  C   C39       1.0  0.32603  0.49907  0.55937  1.0000
  C   C40       1.0  0.32603  0.00092  0.94063  1.0000
  C   C41       1.0  0.56147  0.25000  0.25000  1.0000
  C   C42       1.0  0.43853  0.75000  0.75001  1.0000
  C   C43       1.0  0.70986  0.25000  0.25000  1.0000
  C   C44       1.0  0.29014  0.75000  0.75000  1.0000
  C   C45       1.0  0.54325  0.04617  0.53129  1.0000
  C   C46       1.0  0.54324  0.45381  0.96871  1.0000
  C   C47       1.0  0.45676  0.95381  0.46871  1.0000
  C   C48       1.0  0.45675  0.54618  0.03129  1.0000
  N   N1        1.0  0.80294  0.92051  0.35323  1.0000
  N   N2        1.0  0.80294  0.57950  0.14677  1.0000
  N   N3        1.0  0.19706  0.07950  0.64677  1.0000
  N   N4        1.0  0.19706  0.42051  0.85323  1.0000
  N   N5        1.0  0.96172  0.86223  0.45724  1.0000
  N   N6        1.0  0.96172  0.63778  0.04276  1.0000
  N   N7        1.0  0.03828  0.13778  0.54276  1.0000
  N   N8        1.0  0.03828  0.36223  0.95725  1.0000
  N   N9        1.0  0.65792  0.57099  0.53138  1.0000
  N   N10       1.0  0.65793  0.92901  0.96861  1.0000
  N   N11       1.0  0.34207  0.42901  0.46861  1.0000
  N   N12       1.0  0.34208  0.07098  0.03139  1.0000
  N   N13       1.0  0.62552  0.54942  0.35228  1.0000
  N   N14       1.0  0.62553  0.95058  0.14772  1.0000
  N   N15       1.0  0.37447  0.45058  0.64772  1.0000
  N   N16       1.0  0.37447  0.04942  0.85228  1.0000
  O   O1        1.0  0.63846  0.08448  0.48016  1.0000
  O   O2        1.0  0.63846  0.41554  0.01985  1.0000
  O   O3        1.0  0.36153  0.91553  0.51984  1.0000
  O   O4        1.0  0.36154  0.58448  0.98016  1.0000
  O   O5        1.0  0.51180  0.07606  0.62910  1.0000
  O   O6        1.0  0.51180  0.42393  0.87090  1.0000
  O   O7        1.0  0.48820  0.92395  0.37090  1.0000
  O   O8        1.0  0.48821  0.57606  0.12909  1.0000
  O   O9        1.0  0.50654  0.15993  0.28144  1.0000
  O   O10       1.0  0.50655  0.34006  0.21857  1.0000
  O   O11       1.0  0.49345  0.84006  0.71856  1.0000
  O   O12       1.0  0.49346  0.65994  0.78143  1.0000
  O   O13       1.0  0.76606  0.15506  0.26453  1.0000
  O   O14       1.0  0.76605  0.34493  0.23547  1.0000
  O   O15       1.0  0.23394  0.84493  0.73547  1.0000
  O   O16       1.0  0.23395  0.65507  0.76452  1.0000
  O   O17       1.0  0.87910  0.68815  0.60945  1.0000
  O   O18       1.0  0.87910  0.81186  0.89055  1.0000
  O   O19       1.0  0.12090  0.31186  0.39055  1.0000
  O   O20       1.0  0.12090  0.18814  0.10945  1.0000
