data_image0
_chemical_formula_structural       Fe3H42C30N12
_chemical_formula_sum              "Fe3 H42 C30 N12"
_cell_length_a       8.36792
_cell_length_b       8.36615
_cell_length_c       13.0715
_cell_angle_alpha    90.0025
_cell_angle_beta     90.0151
_cell_angle_gamma    119.993

_space_group_name_H-M_alt    "P 1"
_space_group_IT_number       1

loop_
  _space_group_symop_operation_xyz
  'x, y, z'

loop_
  _atom_site_type_symbol
  _atom_site_label
  _atom_site_symmetry_multiplicity
  _atom_site_fract_x
  _atom_site_fract_y
  _atom_site_fract_z
  _atom_site_occupancy
  Fe  Fe1       1.0  0.00004  0.47343  0.66669  1.0000
  Fe  Fe2       1.0  0.52688  0.52663  0.99987  1.0000
  Fe  Fe3       1.0  0.47321  0.99980  0.33342  1.0000
  H   H1        1.0  0.01531  0.12627  0.57921  1.0000
  H   H2        1.0  0.87367  0.88913  0.91264  1.0000
  H   H3        1.0  0.11034  0.98581  0.24650  1.0000
  H   H4        1.0  0.12652  0.01560  0.42083  1.0000
  H   H5        1.0  0.88955  0.87532  0.08658  1.0000
  H   H6        1.0  0.98467  0.11079  0.75431  1.0000
  H   H7        1.0  0.79291  0.92729  0.41626  1.0000
  H   H8        1.0  0.07256  0.86593  0.74969  1.0000
  H   H9        1.0  0.13410  0.20547  0.08220  1.0000
  H   H10       1.0  0.92756  0.79334  0.58372  1.0000
  H   H11       1.0  0.86610  0.07129  0.25096  1.0000
  H   H12       1.0  0.20716  0.13445  0.91724  1.0000
  H   H13       1.0  0.36565  0.08854  0.61982  1.0000
  H   H14       1.0  0.91135  0.27702  0.95299  1.0000
  H   H15       1.0  0.72258  0.63434  0.28622  1.0000
  H   H16       1.0  0.08850  0.36565  0.38013  1.0000
  H   H17       1.0  0.27714  0.91146  0.04713  1.0000
  H   H18       1.0  0.63439  0.72274  0.71368  1.0000
  H   H19       1.0  0.36543  0.30065  0.62661  1.0000
  H   H20       1.0  0.69924  0.06471  0.95970  1.0000
  H   H21       1.0  0.93488  0.63456  0.29304  1.0000
  H   H22       1.0  0.30058  0.36541  0.37339  1.0000
  H   H23       1.0  0.06490  0.69930  0.04042  1.0000
  H   H24       1.0  0.63467  0.93510  0.70682  1.0000
  H   H25       1.0  0.53153  0.27364  0.69605  1.0000
  H   H26       1.0  0.72632  0.25777  0.02921  1.0000
  H   H27       1.0  0.74188  0.46866  0.36258  1.0000
  H   H28       1.0  0.27355  0.53144  0.30392  1.0000
  H   H29       1.0  0.25786  0.72644  0.97082  1.0000
  H   H30       1.0  0.46855  0.74194  0.63740  1.0000
  H   H31       1.0  0.50545  0.29021  0.46148  1.0000
  H   H32       1.0  0.70977  0.21552  0.79462  1.0000
  H   H33       1.0  0.78402  0.49399  0.12800  1.0000
  H   H34       1.0  0.29020  0.50556  0.53849  1.0000
  H   H35       1.0  0.21603  0.70992  0.20542  1.0000
  H   H36       1.0  0.49448  0.78462  0.87197  1.0000
  H   H37       1.0  0.67733  0.46217  0.53978  1.0000
  H   H38       1.0  0.53782  0.21532  0.87292  1.0000
  H   H39       1.0  0.78450  0.32246  0.20640  1.0000
  H   H40       1.0  0.46211  0.67739  0.46021  1.0000
  H   H41       1.0  0.21554  0.53786  0.12704  1.0000
  H   H42       1.0  0.32275  0.78485  0.79362  1.0000
  C   C1        1.0  0.89912  0.12981  0.54490  1.0000
  C   C2        1.0  0.87028  0.76947  0.87832  1.0000
  C   C3        1.0  0.23028  0.10120  0.21183  1.0000
  C   C4        1.0  0.12988  0.89928  0.45510  1.0000
  C   C5        1.0  0.76973  0.87089  0.12131  1.0000
  C   C6        1.0  0.10083  0.23060  0.78857  1.0000
  C   C7        1.0  0.69827  0.22071  0.51874  1.0000
  C   C8        1.0  0.77943  0.47772  0.85201  1.0000
  C   C9        1.0  0.52197  0.30139  0.18537  1.0000
  C   C10       1.0  0.22061  0.69826  0.48128  1.0000
  C   C11       1.0  0.47806  0.77942  0.14791  1.0000
  C   C12       1.0  0.30171  0.52239  0.81467  1.0000
  C   C13       1.0  0.79068  0.03315  0.46313  1.0000
  C   C14       1.0  0.96687  0.75776  0.79653  1.0000
  C   C15       1.0  0.24217  0.20860  0.12951  1.0000
  C   C16       1.0  0.03329  0.79092  0.53687  1.0000
  C   C17       1.0  0.75795  0.96641  0.20369  1.0000
  C   C18       1.0  0.20931  0.24246  0.87033  1.0000
  C   C19       1.0  0.45436  0.23900  0.62413  1.0000
  C   C20       1.0  0.76093  0.21529  0.95729  1.0000
  C   C21       1.0  0.78432  0.54562  0.29061  1.0000
  C   C22       1.0  0.23893  0.45434  0.37584  1.0000
  C   C23       1.0  0.21547  0.76103  0.04277  1.0000
  C   C24       1.0  0.54570  0.78453  0.70933  1.0000
  C   C25       1.0  0.58531  0.31201  0.53213  1.0000
  C   C26       1.0  0.68797  0.27343  0.86531  1.0000
  C   C27       1.0  0.72620  0.41435  0.19871  1.0000
  C   C28       1.0  0.31197  0.58537  0.46785  1.0000
  C   C29       1.0  0.27380  0.68807  0.13467  1.0000
  C   C30       1.0  0.41471  0.72666  0.80129  1.0000
  N   N1        1.0  0.84046  0.24836  0.58028  1.0000
  N   N2        1.0  0.75189  0.59222  0.91362  1.0000
  N   N3        1.0  0.40733  0.15999  0.24732  1.0000
  N   N4        1.0  0.24823  0.84041  0.41974  1.0000
  N   N5        1.0  0.59260  0.75266  0.08588  1.0000
  N   N6        1.0  0.15949  0.40777  0.75315  1.0000
  N   N7        1.0  0.66517  0.09266  0.44578  1.0000
  N   N8        1.0  0.90742  0.57276  0.77907  1.0000
  N   N9        1.0  0.42707  0.33376  0.11203  1.0000
  N   N10       1.0  0.09267  0.66529  0.55426  1.0000
  N   N11       1.0  0.57307  0.90669  0.22125  1.0000
  N   N12       1.0  0.33483  0.42749  0.88763  1.0000
