data_image0
_chemical_formula_structural       Na4Mg4H8C12O28
_chemical_formula_sum              "Na4 Mg4 H8 C12 O28"
_cell_length_a       5.91197
_cell_length_b       7.04824
_cell_length_c       15.5594
_cell_angle_alpha    90.0003
_cell_angle_beta     89.9999
_cell_angle_gamma    101.139

_space_group_name_H-M_alt    "P 1"
_space_group_IT_number       1

loop_
  _space_group_symop_operation_xyz
  'x, y, z'

loop_
  _atom_site_type_symbol
  _atom_site_label
  _atom_site_symmetry_multiplicity
  _atom_site_fract_x
  _atom_site_fract_y
  _atom_site_fract_z
  _atom_site_occupancy
  Na  Na1       1.0  0.53302  0.69321  0.17997  1.0000
  Na  Na2       1.0  0.46697  0.80679  0.67997  1.0000
  Na  Na3       1.0  0.46698  0.30679  0.82003  1.0000
  Na  Na4       1.0  0.53303  0.19321  0.32003  1.0000
  Mg  Mg1       1.0  0.27369  0.71043  0.90023  1.0000
  Mg  Mg2       1.0  0.72631  0.78957  0.40023  1.0000
  Mg  Mg3       1.0  0.72631  0.28957  0.09977  1.0000
  Mg  Mg4       1.0  0.27369  0.21043  0.59977  1.0000
  H   H1        1.0  0.83570  0.64057  0.02652  1.0000
  H   H2        1.0  0.16429  0.85943  0.52652  1.0000
  H   H3        1.0  0.16430  0.35943  0.97348  1.0000
  H   H4        1.0  0.83570  0.14057  0.47348  1.0000
  H   H5        1.0  0.95670  0.64684  0.12056  1.0000
  H   H6        1.0  0.04330  0.85316  0.62056  1.0000
  H   H7        1.0  0.04330  0.35316  0.87944  1.0000
  H   H8        1.0  0.95670  0.14684  0.37944  1.0000
  C   C1        1.0  0.49799  0.92692  0.03708  1.0000
  C   C2        1.0  0.50202  0.57308  0.53708  1.0000
  C   C3        1.0  0.50202  0.07308  0.96292  1.0000
  C   C4        1.0  0.49799  0.42692  0.46292  1.0000
  C   C5        1.0  0.19934  0.78560  0.35154  1.0000
  C   C6        1.0  0.80066  0.71439  0.85155  1.0000
  C   C7        1.0  0.80066  0.21439  0.64846  1.0000
  C   C8        1.0  0.19934  0.28561  0.14846  1.0000
  C   C9        1.0  0.05263  0.75349  0.26772  1.0000
  C   C10       1.0  0.94736  0.74651  0.76772  1.0000
  C   C11       1.0  0.94737  0.24651  0.73228  1.0000
  C   C12       1.0  0.05264  0.25349  0.23228  1.0000
  O   O1        1.0  0.39003  0.75559  0.02457  1.0000
  O   O2        1.0  0.60997  0.74441  0.52457  1.0000
  O   O3        1.0  0.60997  0.24441  0.97543  1.0000
  O   O4        1.0  0.39003  0.25559  0.47543  1.0000
  O   O5        1.0  0.60414  0.99012  0.10506  1.0000
  O   O6        1.0  0.39586  0.50988  0.60506  1.0000
  O   O7        1.0  0.39586  0.00988  0.89494  1.0000
  O   O8        1.0  0.60414  0.49012  0.39494  1.0000
  O   O9        1.0  0.41613  0.82216  0.34316  1.0000
  O   O10       1.0  0.58386  0.67784  0.84316  1.0000
  O   O11       1.0  0.58387  0.17784  0.65684  1.0000
  O   O12       1.0  0.41614  0.32216  0.15684  1.0000
  O   O13       1.0  0.08459  0.77371  0.42108  1.0000
  O   O14       1.0  0.91541  0.72629  0.92108  1.0000
  O   O15       1.0  0.91541  0.22629  0.57892  1.0000
  O   O16       1.0  0.08459  0.27371  0.07892  1.0000
  O   O17       1.0  0.84345  0.77098  0.27594  1.0000
  O   O18       1.0  0.15654  0.72901  0.77594  1.0000
  O   O19       1.0  0.15655  0.22901  0.72406  1.0000
  O   O20       1.0  0.84346  0.27099  0.22406  1.0000
  O   O21       1.0  0.14695  0.71212  0.19953  1.0000
  O   O22       1.0  0.85304  0.78788  0.69953  1.0000
  O   O23       1.0  0.85305  0.28788  0.80047  1.0000
  O   O24       1.0  0.14696  0.21212  0.30047  1.0000
  O   O25       1.0  0.81837  0.58573  0.08550  1.0000
  O   O26       1.0  0.18163  0.91427  0.58550  1.0000
  O   O27       1.0  0.18163  0.41427  0.91450  1.0000
  O   O28       1.0  0.81837  0.08573  0.41450  1.0000
