data_image0
_chemical_formula_structural       Ag2P4H48C52N2O6
_chemical_formula_sum              "Ag2 P4 H48 C52 N2 O6"
_cell_length_a       10.9821
_cell_length_b       10.9821
_cell_length_c       11.0001
_cell_angle_alpha    76.6173
_cell_angle_beta     76.617
_cell_angle_gamma    78.894

_space_group_name_H-M_alt    "P 1"
_space_group_IT_number       1

loop_
  _space_group_symop_operation_xyz
  'x, y, z'

loop_
  _atom_site_type_symbol
  _atom_site_label
  _atom_site_symmetry_multiplicity
  _atom_site_fract_x
  _atom_site_fract_y
  _atom_site_fract_z
  _atom_site_occupancy
  Ag  Ag1       1.0  0.33752  0.66248  0.75000  1.0000
  Ag  Ag2       1.0  0.66248  0.33752  0.25000  1.0000
  P   P1        1.0  0.48478  0.68578  0.86784  1.0000
  P   P2        1.0  0.31422  0.51522  0.63216  1.0000
  P   P3        1.0  0.51522  0.31422  0.13216  1.0000
  P   P4        1.0  0.68578  0.48478  0.36784  1.0000
  H   H1        1.0  0.76373  0.66658  0.86681  1.0000
  H   H2        1.0  0.33342  0.23626  0.63319  1.0000
  H   H3        1.0  0.23626  0.33342  0.13319  1.0000
  H   H4        1.0  0.66658  0.76373  0.36681  1.0000
  H   H5        1.0  0.93237  0.76837  0.70997  1.0000
  H   H6        1.0  0.23164  0.06763  0.79002  1.0000
  H   H7        1.0  0.06763  0.23163  0.29003  1.0000
  H   H8        1.0  0.76837  0.93237  0.20997  1.0000
  H   H9        1.0  0.88204  0.91668  0.51147  1.0000
  H   H10       1.0  0.08332  0.11795  0.98853  1.0000
  H   H11       1.0  0.11796  0.08332  0.48853  1.0000
  H   H12       1.0  0.91668  0.88204  0.01147  1.0000
  H   H13       1.0  0.66390  0.96441  0.47482  1.0000
  H   H14       1.0  0.03560  0.33609  0.02517  1.0000
  H   H15       1.0  0.33610  0.03559  0.52518  1.0000
  H   H16       1.0  0.96441  0.66390  0.97482  1.0000
  H   H17       1.0  0.49178  0.86057  0.63257  1.0000
  H   H18       1.0  0.13943  0.50821  0.86743  1.0000
  H   H19       1.0  0.50821  0.13943  0.36743  1.0000
  H   H20       1.0  0.86057  0.49178  0.13257  1.0000
  H   H21       1.0  0.61017  0.77895  0.03503  1.0000
  H   H22       1.0  0.22105  0.38983  0.46497  1.0000
  H   H23       1.0  0.38983  0.22105  0.96497  1.0000
  H   H24       1.0  0.77895  0.61018  0.53503  1.0000
  H   H25       1.0  0.52312  0.91103  0.19802  1.0000
  H   H26       1.0  0.08898  0.47689  0.30197  1.0000
  H   H27       1.0  0.47689  0.08898  0.80197  1.0000
  H   H28       1.0  0.91102  0.52312  0.69802  1.0000
  H   H29       1.0  0.29250  0.98965  0.24524  1.0000
  H   H30       1.0  0.01035  0.70751  0.25476  1.0000
  H   H31       1.0  0.70750  0.01035  0.75475  1.0000
  H   H32       1.0  0.98965  0.29250  0.74524  1.0000
  H   H33       1.0  0.14785  0.93570  0.12981  1.0000
  H   H34       1.0  0.06431  0.85216  0.37019  1.0000
  H   H35       1.0  0.85215  0.06431  0.87019  1.0000
  H   H36       1.0  0.93569  0.14785  0.62981  1.0000
  H   H37       1.0  0.23375  0.80226  0.96487  1.0000
  H   H38       1.0  0.19775  0.76625  0.53513  1.0000
  H   H39       1.0  0.76625  0.19774  0.03513  1.0000
  H   H40       1.0  0.80226  0.23375  0.46487  1.0000
  H   H41       1.0  0.60885  0.47779  0.88558  1.0000
  H   H42       1.0  0.52221  0.39115  0.61442  1.0000
  H   H43       1.0  0.39115  0.52221  0.11442  1.0000
  H   H44       1.0  0.47779  0.60885  0.38558  1.0000
  H   H45       1.0  0.61811  0.55013  0.01181  1.0000
  H   H46       1.0  0.44987  0.38189  0.48819  1.0000
  H   H47       1.0  0.38188  0.44987  0.98819  1.0000
  H   H48       1.0  0.55013  0.61811  0.51181  1.0000
  C   C1        1.0  0.61626  0.75628  0.75997  1.0000
  C   C2        1.0  0.24372  0.38373  0.74003  1.0000
  C   C3        1.0  0.38374  0.24372  0.24003  1.0000
  C   C4        1.0  0.75628  0.61627  0.25997  1.0000
  C   C5        1.0  0.74060  0.73097  0.78095  1.0000
  C   C6        1.0  0.26903  0.25940  0.71905  1.0000
  C   C7        1.0  0.25940  0.26903  0.21905  1.0000
  C   C8        1.0  0.73097  0.74060  0.28095  1.0000
  C   C9        1.0  0.83632  0.78822  0.69186  1.0000
  C   C10       1.0  0.21178  0.16367  0.80813  1.0000
  C   C11       1.0  0.16367  0.21178  0.30814  1.0000
  C   C12       1.0  0.78822  0.83633  0.19187  1.0000
  C   C13       1.0  0.80823  0.87164  0.58176  1.0000
  C   C14       1.0  0.12836  0.19177  0.91823  1.0000
  C   C15       1.0  0.19177  0.12835  0.41824  1.0000
  C   C16       1.0  0.87164  0.80822  0.08176  1.0000
  C   C17       1.0  0.68417  0.89844  0.56077  1.0000
  C   C18       1.0  0.10156  0.31582  0.93923  1.0000
  C   C19       1.0  0.31582  0.10156  0.43924  1.0000
  C   C20       1.0  0.89844  0.68418  0.06077  1.0000
  C   C21       1.0  0.58875  0.84070  0.64903  1.0000
  C   C22       1.0  0.15930  0.41124  0.85097  1.0000
  C   C23       1.0  0.41124  0.15930  0.35097  1.0000
  C   C24       1.0  0.84069  0.58875  0.14903  1.0000
  C   C25       1.0  0.42702  0.78201  0.98921  1.0000
  C   C26       1.0  0.21800  0.57298  0.51078  1.0000
  C   C27       1.0  0.57298  0.21799  0.01079  1.0000
  C   C28       1.0  0.78200  0.42702  0.48922  1.0000
  C   C29       1.0  0.50856  0.81175  0.05585  1.0000
  C   C30       1.0  0.18825  0.49144  0.44415  1.0000
  C   C31       1.0  0.49144  0.18825  0.94415  1.0000
  C   C32       1.0  0.81175  0.50856  0.55585  1.0000
  C   C33       1.0  0.45963  0.88632  0.14771  1.0000
  C   C34       1.0  0.11368  0.54038  0.35228  1.0000
  C   C35       1.0  0.54038  0.11368  0.85228  1.0000
  C   C36       1.0  0.88632  0.45963  0.64772  1.0000
  C   C37       1.0  0.33017  0.93111  0.17371  1.0000
  C   C38       1.0  0.06889  0.66984  0.32629  1.0000
  C   C39       1.0  0.66984  0.06889  0.82628  1.0000
  C   C40       1.0  0.93111  0.33017  0.67371  1.0000
  C   C41       1.0  0.24882  0.90117  0.10823  1.0000
  C   C42       1.0  0.09884  0.75119  0.39178  1.0000
  C   C43       1.0  0.75118  0.09883  0.89177  1.0000
  C   C44       1.0  0.90117  0.24882  0.60822  1.0000
  C   C45       1.0  0.29700  0.82676  0.01599  1.0000
  C   C46       1.0  0.17325  0.70300  0.48402  1.0000
  C   C47       1.0  0.70300  0.17325  0.98401  1.0000
  C   C48       1.0  0.82675  0.29700  0.51599  1.0000
  C   C49       1.0  0.55331  0.53421  0.95596  1.0000
  C   C50       1.0  0.46579  0.44669  0.54404  1.0000
  C   C51       1.0  0.44669  0.46579  0.04404  1.0000
  C   C52       1.0  0.53421  0.55331  0.45596  1.0000
  N   N1        1.0  0.12670  0.87330  0.75000  1.0000
  N   N2        1.0  0.87330  0.12670  0.25000  1.0000
  O   O1        1.0  0.23681  0.88885  0.68315  1.0000
  O   O2        1.0  0.11114  0.76318  0.81685  1.0000
  O   O3        1.0  0.76318  0.11114  0.31685  1.0000
  O   O4        1.0  0.88885  0.23681  0.18315  1.0000
  O   O5        1.0  0.03716  0.96284  0.75000  1.0000
  O   O6        1.0  0.96284  0.03716  0.25000  1.0000
