data_image0
_chemical_formula_structural       Zn2H36C56N16O4
_chemical_formula_sum              "Zn2 H36 C56 N16 O4"
_cell_length_a       6.03245
_cell_length_b       7.48551
_cell_length_c       26.1724
_cell_angle_alpha    90.0005
_cell_angle_beta     96.4435
_cell_angle_gamma    89.9998

_space_group_name_H-M_alt    "P 1"
_space_group_IT_number       1

loop_
  _space_group_symop_operation_xyz
  'x, y, z'

loop_
  _atom_site_type_symbol
  _atom_site_label
  _atom_site_symmetry_multiplicity
  _atom_site_fract_x
  _atom_site_fract_y
  _atom_site_fract_z
  _atom_site_occupancy
  Zn  Zn1       1.0  0.50001  0.49999  0.00000  1.0000
  Zn  Zn2       1.0  1.00000  0.00000  0.50000  1.0000
  H   H1        1.0  0.03150  0.62911  0.95389  1.0000
  H   H2        1.0  0.46850  0.12911  0.54611  1.0000
  H   H3        1.0  0.96850  0.37089  0.04611  1.0000
  H   H4        1.0  0.53150  0.87089  0.45389  1.0000
  H   H5        1.0  0.83210  0.72004  0.86908  1.0000
  H   H6        1.0  0.66791  0.22004  0.63092  1.0000
  H   H7        1.0  0.16791  0.27996  0.13092  1.0000
  H   H8        1.0  0.33209  0.77997  0.36908  1.0000
  H   H9        1.0  0.01747  0.67261  0.78953  1.0000
  H   H10       1.0  0.48255  0.17263  0.71047  1.0000
  H   H11       1.0  0.98255  0.32739  0.21048  1.0000
  H   H12       1.0  0.51746  0.82739  0.28952  1.0000
  H   H13       1.0  0.57779  0.45087  0.88593  1.0000
  H   H14       1.0  0.92221  0.95089  0.61407  1.0000
  H   H15       1.0  0.42221  0.54912  0.11407  1.0000
  H   H16       1.0  0.07778  0.04912  0.38593  1.0000
  H   H17       1.0  0.00953  0.43659  0.73776  1.0000
  H   H18       1.0  0.49047  0.93659  0.76224  1.0000
  H   H19       1.0  0.99047  0.56341  0.26224  1.0000
  H   H20       1.0  0.50954  0.06342  0.23776  1.0000
  H   H21       1.0  0.65490  0.65605  0.71608  1.0000
  H   H22       1.0  0.84511  0.15606  0.78392  1.0000
  H   H23       1.0  0.34510  0.34395  0.28392  1.0000
  H   H24       1.0  0.15490  0.84394  0.21608  1.0000
  H   H25       1.0  0.52783  0.70587  0.62401  1.0000
  H   H26       1.0  0.97216  0.20587  0.87599  1.0000
  H   H27       1.0  0.47213  0.29411  0.37598  1.0000
  H   H28       1.0  0.02784  0.79411  0.12401  1.0000
  H   H29       1.0  0.14814  0.61086  0.58764  1.0000
  H   H30       1.0  0.35185  0.11085  0.91236  1.0000
  H   H31       1.0  0.85182  0.38913  0.41236  1.0000
  H   H32       1.0  0.64815  0.88914  0.08764  1.0000
  H   H33       1.0  0.88776  0.47981  0.64495  1.0000
  H   H34       1.0  0.61224  0.97981  0.85505  1.0000
  H   H35       1.0  0.11220  0.52018  0.35505  1.0000
  H   H36       1.0  0.38778  0.02020  0.14495  1.0000
  C   C1        1.0  0.23401  0.81545  0.03932  1.0000
  C   C2        1.0  0.26600  0.31546  0.46069  1.0000
  C   C3        1.0  0.76601  0.18454  0.96069  1.0000
  C   C4        1.0  0.73400  0.68455  0.53932  1.0000
  C   C5        1.0  0.26726  0.11988  0.02748  1.0000
  C   C6        1.0  0.23275  0.61989  0.47252  1.0000
  C   C7        1.0  0.73275  0.88010  0.97252  1.0000
  C   C8        1.0  0.76724  0.38012  0.52748  1.0000
  C   C9        1.0  0.10777  0.61164  0.91849  1.0000
  C   C10       1.0  0.39224  0.11163  0.58151  1.0000
  C   C11       1.0  0.89224  0.38837  0.08151  1.0000
  C   C12       1.0  0.60775  0.88837  0.41849  1.0000
  C   C13       1.0  0.99702  0.66001  0.87104  1.0000
  C   C14       1.0  0.50298  0.16002  0.62896  1.0000
  C   C15       1.0  0.00299  0.33998  0.12896  1.0000
  C   C16       1.0  0.49701  0.83999  0.37104  1.0000
  C   C17       1.0  0.09974  0.63149  0.82676  1.0000
  C   C18       1.0  0.40026  0.13149  0.67324  1.0000
  C   C19       1.0  0.90026  0.36852  0.17324  1.0000
  C   C20       1.0  0.59974  0.86852  0.32676  1.0000
  C   C21       1.0  0.31022  0.55012  0.83126  1.0000
  C   C22       1.0  0.18979  0.05014  0.66875  1.0000
  C   C23       1.0  0.68979  0.44987  0.16875  1.0000
  C   C24       1.0  0.81021  0.94987  0.33125  1.0000
  C   C25       1.0  0.41189  0.51021  0.88082  1.0000
  C   C26       1.0  0.08812  0.01022  0.61918  1.0000
  C   C27       1.0  0.58812  0.48979  0.11918  1.0000
  C   C28       1.0  0.91189  0.98979  0.38082  1.0000
  C   C29       1.0  0.43815  0.50821  0.78719  1.0000
  C   C30       1.0  0.06184  0.00823  0.71280  1.0000
  C   C31       1.0  0.56186  0.49179  0.21281  1.0000
  C   C32       1.0  0.93815  0.99180  0.28720  1.0000
  C   C33       1.0  0.34220  0.54208  0.73308  1.0000
  C   C34       1.0  0.15781  0.04209  0.76692  1.0000
  C   C35       1.0  0.65780  0.45791  0.26692  1.0000
  C   C36       1.0  0.84220  0.95792  0.23308  1.0000
  C   C37       1.0  0.12404  0.49546  0.71307  1.0000
  C   C38       1.0  0.37596  0.99547  0.78693  1.0000
  C   C39       1.0  0.87596  0.50454  0.28694  1.0000
  C   C40       1.0  0.62405  0.00454  0.21307  1.0000
  C   C41       1.0  0.48748  0.61598  0.70029  1.0000
  C   C42       1.0  0.01252  0.11599  0.79971  1.0000
  C   C43       1.0  0.51251  0.38402  0.29970  1.0000
  C   C44       1.0  0.98748  0.88401  0.20029  1.0000
  C   C45       1.0  0.41641  0.64277  0.64855  1.0000
  C   C46       1.0  0.08358  0.14277  0.85145  1.0000
  C   C47       1.0  0.58356  0.35722  0.35145  1.0000
  C   C48       1.0  0.91642  0.85722  0.14855  1.0000
  C   C49       1.0  0.20139  0.59132  0.62843  1.0000
  C   C50       1.0  0.29860  0.09131  0.87157  1.0000
  C   C51       1.0  0.79858  0.40867  0.37157  1.0000
  C   C52       1.0  0.70140  0.90868  0.12843  1.0000
  C   C53       1.0  0.05599  0.51811  0.66069  1.0000
  C   C54       1.0  0.44401  0.01810  0.83931  1.0000
  C   C55       1.0  0.94399  0.48188  0.33931  1.0000
  C   C56       1.0  0.55600  0.98190  0.16069  1.0000
  N   N1        1.0  0.31989  0.25840  0.01114  1.0000
  N   N2        1.0  0.18013  0.75840  0.48886  1.0000
  N   N3        1.0  0.68014  0.74160  0.98886  1.0000
  N   N4        1.0  0.81987  0.24161  0.51114  1.0000
  N   N5        1.0  0.25997  0.66028  0.03419  1.0000
  N   N6        1.0  0.24005  0.16029  0.46581  1.0000
  N   N7        1.0  0.74004  0.33971  0.96581  1.0000
  N   N8        1.0  0.75995  0.83972  0.53419  1.0000
  N   N9        1.0  0.31507  0.54145  0.92349  1.0000
  N   N10       1.0  0.18494  0.04146  0.57651  1.0000
  N   N11       1.0  0.68494  0.45854  0.07651  1.0000
  N   N12       1.0  0.81505  0.95855  0.42349  1.0000
  N   N13       1.0  0.19335  0.98005  0.04897  1.0000
  N   N14       1.0  0.30664  0.48006  0.45103  1.0000
  N   N15       1.0  0.80664  0.01993  0.95102  1.0000
  N   N16       1.0  0.69334  0.51995  0.54897  1.0000
  O   O1        1.0  0.63135  0.44951  0.79534  1.0000
  O   O2        1.0  0.86865  0.94953  0.70466  1.0000
  O   O3        1.0  0.36866  0.55049  0.20466  1.0000
  O   O4        1.0  0.13134  0.05048  0.29534  1.0000
