data_image0
_chemical_formula_structural       Li2H12C12N10
_chemical_formula_sum              "Li2 H12 C12 N10"
_cell_length_a       5.32057
_cell_length_b       7.60527
_cell_length_c       10.7458
_cell_angle_alpha    89.9925
_cell_angle_beta     89.9923
_cell_angle_gamma    90.0233

_space_group_name_H-M_alt    "P 1"
_space_group_IT_number       1

loop_
  _space_group_symop_operation_xyz
  'x, y, z'

loop_
  _atom_site_type_symbol
  _atom_site_label
  _atom_site_symmetry_multiplicity
  _atom_site_fract_x
  _atom_site_fract_y
  _atom_site_fract_z
  _atom_site_occupancy
  Li  Li1       1.0  0.88091  0.75000  0.75000  1.0000
  Li  Li2       1.0  0.11910  0.25002  0.24999  1.0000
  H   H1        1.0  0.06966  0.75008  0.52248  1.0000
  H   H2        1.0  0.06967  0.75012  0.97753  1.0000
  H   H3        1.0  0.93033  0.24997  0.47751  1.0000
  H   H4        1.0  0.93033  0.24987  0.02247  1.0000
  H   H5        1.0  0.23551  0.86774  0.40401  1.0000
  H   H6        1.0  0.23532  0.63249  0.09606  1.0000
  H   H7        1.0  0.76461  0.36758  0.59602  1.0000
  H   H8        1.0  0.76453  0.13223  0.90400  1.0000
  H   H9        1.0  0.76452  0.13231  0.59600  1.0000
  H   H10       1.0  0.76459  0.36751  0.90397  1.0000
  H   H11       1.0  0.23541  0.63247  0.40398  1.0000
  H   H12       1.0  0.23546  0.86776  0.09600  1.0000
  C   C1        1.0  0.19036  0.10133  0.74999  1.0000
  C   C2        1.0  0.19020  0.39872  0.75000  1.0000
  C   C3        1.0  0.80976  0.60128  0.24999  1.0000
  C   C4        1.0  0.80973  0.89868  0.25000  1.0000
  C   C5        1.0  0.46056  0.75003  0.53960  1.0000
  C   C6        1.0  0.46056  0.75004  0.96042  1.0000
  C   C7        1.0  0.53943  0.24998  0.46041  1.0000
  C   C8        1.0  0.53944  0.24987  0.03960  1.0000
  C   C9        1.0  0.23791  0.75008  0.46325  1.0000
  C   C10       1.0  0.23782  0.75012  0.03678  1.0000
  C   C11       1.0  0.76210  0.24997  0.53674  1.0000
  C   C12       1.0  0.76215  0.24986  0.96323  1.0000
  N   N1        1.0  0.31050  0.25006  0.75000  1.0000
  N   N2        1.0  0.68950  0.74997  0.25000  1.0000
  N   N3        1.0  0.09318  0.96206  0.74999  1.0000
  N   N4        1.0  0.09288  0.53792  0.74999  1.0000
  N   N5        1.0  0.90704  0.46206  0.24999  1.0000
  N   N6        1.0  0.90697  0.03794  0.25000  1.0000
  N   N7        1.0  0.64078  0.74997  0.60087  1.0000
  N   N8        1.0  0.64079  0.74996  0.89914  1.0000
  N   N9        1.0  0.35922  0.25001  0.39914  1.0000
  N   N10       1.0  0.35919  0.24995  0.10087  1.0000
