data_image0
_chemical_formula_structural       Hg4H56C40Br8N8
_chemical_formula_sum              "Hg4 H56 C40 Br8 N8"
_cell_length_a       7.57589
_cell_length_b       11.0859
_cell_length_c       15.372
_cell_angle_alpha    89.9996
_cell_angle_beta     90.0005
_cell_angle_gamma    89.9997

_space_group_name_H-M_alt    "P 1"
_space_group_IT_number       1

loop_
  _space_group_symop_operation_xyz
  'x, y, z'

loop_
  _atom_site_type_symbol
  _atom_site_label
  _atom_site_symmetry_multiplicity
  _atom_site_fract_x
  _atom_site_fract_y
  _atom_site_fract_z
  _atom_site_occupancy
  Hg  Hg1       1.0  0.04413  0.06435  0.80456  1.0000
  Hg  Hg2       1.0  0.45586  0.93564  0.30456  1.0000
  Hg  Hg3       1.0  0.95586  0.56436  0.69544  1.0000
  Hg  Hg4       1.0  0.54414  0.43564  0.19544  1.0000
  H   H1        1.0  0.18264  0.80573  0.71642  1.0000
  H   H2        1.0  0.31735  0.19427  0.21642  1.0000
  H   H3        1.0  0.81734  0.30574  0.78358  1.0000
  H   H4        1.0  0.68266  0.69426  0.28358  1.0000
  H   H5        1.0  0.45739  0.59164  0.90816  1.0000
  H   H6        1.0  0.04261  0.40836  0.40816  1.0000
  H   H7        1.0  0.54261  0.09164  0.59184  1.0000
  H   H8        1.0  0.95739  0.90836  0.09184  1.0000
  H   H9        1.0  0.35902  0.74324  0.02064  1.0000
  H   H10       1.0  0.14099  0.25675  0.52064  1.0000
  H   H11       1.0  0.64098  0.24324  0.47936  1.0000
  H   H12       1.0  0.85902  0.75676  0.97936  1.0000
  H   H13       1.0  0.17418  0.91753  0.97287  1.0000
  H   H14       1.0  0.32584  0.08246  0.47287  1.0000
  H   H15       1.0  0.82582  0.41753  0.52713  1.0000
  H   H16       1.0  0.67417  0.58247  0.02713  1.0000
  H   H17       1.0  0.51059  0.55514  0.76037  1.0000
  H   H18       1.0  0.98941  0.44486  0.26037  1.0000
  H   H19       1.0  0.48941  0.05514  0.73963  1.0000
  H   H20       1.0  0.01059  0.94486  0.23963  1.0000
  H   H21       1.0  0.23164  0.36843  0.61937  1.0000
  H   H22       1.0  0.26836  0.63158  0.11937  1.0000
  H   H23       1.0  0.76836  0.86843  0.88063  1.0000
  H   H24       1.0  0.73164  0.13158  0.38062  1.0000
  H   H25       1.0  0.44823  0.38068  0.66215  1.0000
  H   H26       1.0  0.05177  0.61932  0.16215  1.0000
  H   H27       1.0  0.55177  0.88068  0.83785  1.0000
  H   H28       1.0  0.94823  0.11931  0.33785  1.0000
  H   H29       1.0  0.26272  0.55876  0.54065  1.0000
  H   H30       1.0  0.23727  0.44124  0.04065  1.0000
  H   H31       1.0  0.73727  0.05876  0.95935  1.0000
  H   H32       1.0  0.76273  0.94124  0.45935  1.0000
  H   H33       1.0  0.48603  0.51197  0.53888  1.0000
  H   H34       1.0  0.01396  0.48803  0.03887  1.0000
  H   H35       1.0  0.51396  0.01197  0.96113  1.0000
  H   H36       1.0  0.98604  0.98803  0.46112  1.0000
  H   H37       1.0  0.33725  0.72047  0.62669  1.0000
  H   H38       1.0  0.16274  0.27953  0.12669  1.0000
  H   H39       1.0  0.66274  0.22048  0.87332  1.0000
  H   H40       1.0  0.83726  0.77952  0.37332  1.0000
  H   H41       1.0  0.55814  0.67165  0.63585  1.0000
  H   H42       1.0  0.94184  0.32835  0.13585  1.0000
  H   H43       1.0  0.44184  0.17165  0.86415  1.0000
  H   H44       1.0  0.05816  0.82835  0.36415  1.0000
  H   H45       1.0  0.17278  0.33213  0.78038  1.0000
  H   H46       1.0  0.32722  0.66787  0.28038  1.0000
  H   H47       1.0  0.82721  0.83213  0.71962  1.0000
  H   H48       1.0  0.67278  0.16787  0.21961  1.0000
  H   H49       1.0  0.18879  0.45582  0.85319  1.0000
  H   H50       1.0  0.31121  0.54418  0.35319  1.0000
  H   H51       1.0  0.81120  0.95582  0.64681  1.0000
  H   H52       1.0  0.68879  0.04417  0.14681  1.0000
  H   H53       1.0  0.38551  0.38106  0.81643  1.0000
  H   H54       1.0  0.11449  0.61894  0.31642  1.0000
  H   H55       1.0  0.61448  0.88107  0.68358  1.0000
  H   H56       1.0  0.88551  0.11893  0.18357  1.0000
  C   C1        1.0  0.22194  0.78505  0.78315  1.0000
  C   C2        1.0  0.27806  0.21495  0.28315  1.0000
  C   C3        1.0  0.77805  0.28505  0.71685  1.0000
  C   C4        1.0  0.72195  0.71494  0.21685  1.0000
  C   C5        1.0  0.32527  0.68414  0.80308  1.0000
  C   C6        1.0  0.17472  0.31587  0.30308  1.0000
  C   C7        1.0  0.67471  0.18414  0.69692  1.0000
  C   C8        1.0  0.82528  0.81586  0.19692  1.0000
  C   C9        1.0  0.37358  0.66774  0.89032  1.0000
  C   C10       1.0  0.12643  0.33226  0.39032  1.0000
  C   C11       1.0  0.62642  0.16774  0.60969  1.0000
  C   C12       1.0  0.87357  0.83226  0.10968  1.0000
  C   C13       1.0  0.31885  0.75040  0.95285  1.0000
  C   C14       1.0  0.18116  0.24960  0.45285  1.0000
  C   C15       1.0  0.68114  0.25040  0.54715  1.0000
  C   C16       1.0  0.81885  0.74960  0.04715  1.0000
  C   C17       1.0  0.21614  0.84800  0.92694  1.0000
  C   C18       1.0  0.28387  0.15200  0.42694  1.0000
  C   C19       1.0  0.78386  0.34800  0.57306  1.0000
  C   C20       1.0  0.71614  0.65200  0.07306  1.0000
  C   C21       1.0  0.38684  0.59541  0.73520  1.0000
  C   C22       1.0  0.11316  0.40460  0.23521  1.0000
  C   C23       1.0  0.61315  0.09541  0.76480  1.0000
  C   C24       1.0  0.88684  0.90459  0.26480  1.0000
  C   C25       1.0  0.32962  0.43268  0.64382  1.0000
  C   C26       1.0  0.17038  0.56733  0.14382  1.0000
  C   C27       1.0  0.67038  0.93268  0.85618  1.0000
  C   C28       1.0  0.82962  0.06732  0.35618  1.0000
  C   C29       1.0  0.37599  0.53556  0.58188  1.0000
  C   C30       1.0  0.12401  0.46445  0.08188  1.0000
  C   C31       1.0  0.62401  0.03556  0.91812  1.0000
  C   C32       1.0  0.87600  0.96444  0.41812  1.0000
  C   C33       1.0  0.42044  0.64264  0.64260  1.0000
  C   C34       1.0  0.07955  0.35736  0.14260  1.0000
  C   C35       1.0  0.57955  0.14265  0.85740  1.0000
  C   C36       1.0  0.92046  0.85735  0.35740  1.0000
  C   C37       1.0  0.25199  0.41134  0.79764  1.0000
  C   C38       1.0  0.24801  0.58866  0.29764  1.0000
  C   C39       1.0  0.74801  0.91134  0.70237  1.0000
  C   C40       1.0  0.75199  0.08866  0.20236  1.0000
  Br  Br1       1.0  0.07684  0.16928  0.95019  1.0000
  Br  Br2       1.0  0.42320  0.83073  0.45020  1.0000
  Br  Br3       1.0  0.92316  0.66928  0.54980  1.0000
  Br  Br4       1.0  0.57683  0.33075  0.04979  1.0000
  Br  Br5       1.0  0.16029  0.07133  0.64778  1.0000
  Br  Br6       1.0  0.33972  0.92867  0.14778  1.0000
  Br  Br7       1.0  0.83971  0.57132  0.85222  1.0000
  Br  Br8       1.0  0.66028  0.42868  0.35223  1.0000
  N   N1        1.0  0.16849  0.86452  0.84369  1.0000
  N   N2        1.0  0.33152  0.13548  0.34369  1.0000
  N   N3        1.0  0.83150  0.36452  0.65631  1.0000
  N   N4        1.0  0.66850  0.63548  0.15631  1.0000
  N   N5        1.0  0.26027  0.49318  0.72264  1.0000
  N   N6        1.0  0.23973  0.50682  0.22264  1.0000
  N   N7        1.0  0.73972  0.99318  0.77736  1.0000
  N   N8        1.0  0.76028  0.00682  0.27736  1.0000
