data_image0
_chemical_formula_structural       CdH10C16S2N10Cl2
_chemical_formula_sum              "Cd1 H10 C16 S2 N10 Cl2"
_cell_length_a       5.64896
_cell_length_b       8.11755
_cell_length_c       12.0451
_cell_angle_alpha    106.279
_cell_angle_beta     92.2237
_cell_angle_gamma    89.8893

_space_group_name_H-M_alt    "P 1"
_space_group_IT_number       1

loop_
  _space_group_symop_operation_xyz
  'x, y, z'

loop_
  _atom_site_type_symbol
  _atom_site_label
  _atom_site_symmetry_multiplicity
  _atom_site_fract_x
  _atom_site_fract_y
  _atom_site_fract_z
  _atom_site_occupancy
  Cd  Cd1       1.0  0.00000  1.00000  1.00000  1.0000
  H   H1        1.0  0.82862  0.80181  0.70910  1.0000
  H   H2        1.0  0.17139  0.19819  0.29090  1.0000
  H   H3        1.0  0.26328  0.72282  0.23208  1.0000
  H   H4        1.0  0.73671  0.27718  0.76792  1.0000
  H   H5        1.0  0.43283  0.11444  0.82360  1.0000
  H   H6        1.0  0.56716  0.88556  0.17640  1.0000
  H   H7        1.0  0.36432  0.89667  0.43708  1.0000
  H   H8        1.0  0.63568  0.10332  0.56292  1.0000
  H   H9        1.0  0.91421  0.52186  0.19310  1.0000
  H   H10       1.0  0.08578  0.47814  0.80690  1.0000
  C   C1        1.0  0.99211  0.87301  0.71312  1.0000
  C   C2        1.0  0.00790  0.12699  0.28688  1.0000
  C   C3        1.0  0.15614  0.71278  0.30329  1.0000
  C   C4        1.0  0.84386  0.28723  0.69672  1.0000
  C   C5        1.0  0.30015  0.03126  0.76770  1.0000
  C   C6        1.0  0.69985  0.96875  0.23230  1.0000
  C   C7        1.0  0.50042  0.22723  0.04440  1.0000
  C   C8        1.0  0.49957  0.77276  0.95561  1.0000
  C   C9        1.0  0.21290  0.80953  0.41645  1.0000
  C   C10       1.0  0.78711  0.19047  0.58356  1.0000
  C   C11       1.0  0.06697  0.78735  0.50174  1.0000
  C   C12       1.0  0.93302  0.21265  0.49826  1.0000
  C   C13       1.0  0.83040  0.59264  0.37426  1.0000
  C   C14       1.0  0.16960  0.40735  0.62574  1.0000
  C   C15       1.0  0.96216  0.60125  0.28015  1.0000
  C   C16       1.0  0.03784  0.39875  0.71984  1.0000
  S   S1        1.0  0.74339  0.29505  0.00219  1.0000
  S   S2        1.0  0.25660  0.70495  0.99781  1.0000
  N   N1        1.0  0.10531  0.96994  0.80795  1.0000
  N   N2        1.0  0.89469  0.03006  0.19205  1.0000
  N   N3        1.0  0.11558  0.87732  0.61993  1.0000
  N   N4        1.0  0.88442  0.12267  0.38007  1.0000
  N   N5        1.0  0.31327  0.97810  0.65365  1.0000
  N   N6        1.0  0.68672  0.02190  0.34635  1.0000
  N   N7        1.0  0.87869  0.68271  0.48298  1.0000
  N   N8        1.0  0.12131  0.31728  0.51701  1.0000
  N   N9        1.0  0.32404  0.17691  0.07462  1.0000
  N   N10       1.0  0.67598  0.82311  0.92540  1.0000
  Cl  Cl1       1.0  0.58839  0.45455  0.34980  1.0000
  Cl  Cl2       1.0  0.41160  0.54544  0.65020  1.0000
