data_image0
_chemical_formula_structural       Zn4H56C48S4N8O16
_chemical_formula_sum              "Zn4 H56 C48 S4 N8 O16"
_cell_length_a       9.52907
_cell_length_b       9.71031
_cell_length_c       14.8096
_cell_angle_alpha    97.7498
_cell_angle_beta     90.0002
_cell_angle_gamma    90.0004

_space_group_name_H-M_alt    "P 1"
_space_group_IT_number       1

loop_
  _space_group_symop_operation_xyz
  'x, y, z'

loop_
  _atom_site_type_symbol
  _atom_site_label
  _atom_site_symmetry_multiplicity
  _atom_site_fract_x
  _atom_site_fract_y
  _atom_site_fract_z
  _atom_site_occupancy
  Zn  Zn1       1.0  0.67049  0.34314  0.73393  1.0000
  Zn  Zn2       1.0  0.17049  0.15686  0.26607  1.0000
  Zn  Zn3       1.0  0.32951  0.65686  0.26607  1.0000
  Zn  Zn4       1.0  0.82951  0.84314  0.73393  1.0000
  H   H1        1.0  0.74615  0.52769  0.59700  1.0000
  H   H2        1.0  0.24615  0.97230  0.40300  1.0000
  H   H3        1.0  0.25385  0.47231  0.40300  1.0000
  H   H4        1.0  0.75385  0.02770  0.59699  1.0000
  H   H5        1.0  0.73861  0.51504  0.42665  1.0000
  H   H6        1.0  0.23861  0.98495  0.57335  1.0000
  H   H7        1.0  0.26139  0.48496  0.57335  1.0000
  H   H8        1.0  0.76139  0.01505  0.42665  1.0000
  H   H9        1.0  0.49023  0.14275  0.41973  1.0000
  H   H10       1.0  0.99024  0.35725  0.58027  1.0000
  H   H11       1.0  0.50977  0.85725  0.58027  1.0000
  H   H12       1.0  0.00976  0.64275  0.41973  1.0000
  H   H13       1.0  0.50937  0.16854  0.59086  1.0000
  H   H14       1.0  0.00938  0.33145  0.40914  1.0000
  H   H15       1.0  0.49063  0.83146  0.40914  1.0000
  H   H16       1.0  0.99062  0.66855  0.59086  1.0000
  H   H17       1.0  0.68352  0.38104  0.28017  1.0000
  H   H18       1.0  0.18351  0.11896  0.71984  1.0000
  H   H19       1.0  0.31648  0.61896  0.71983  1.0000
  H   H20       1.0  0.81648  0.88104  0.28016  1.0000
  H   H21       1.0  0.50034  0.34239  0.28636  1.0000
  H   H22       1.0  0.00033  0.15761  0.71364  1.0000
  H   H23       1.0  0.49966  0.65761  0.71364  1.0000
  H   H24       1.0  0.99966  0.84239  0.28636  1.0000
  H   H25       1.0  0.62050  0.20551  0.27742  1.0000
  H   H26       1.0  0.12050  0.29448  0.72258  1.0000
  H   H27       1.0  0.37950  0.79449  0.72258  1.0000
  H   H28       1.0  0.87949  0.70552  0.27742  1.0000
  H   H29       1.0  0.38021  0.27891  0.77749  1.0000
  H   H30       1.0  0.88021  0.22108  0.22251  1.0000
  H   H31       1.0  0.61979  0.72109  0.22251  1.0000
  H   H32       1.0  0.11979  0.77891  0.77749  1.0000
  H   H33       1.0  0.18856  0.38760  0.87773  1.0000
  H   H34       1.0  0.68856  0.11240  0.12227  1.0000
  H   H35       1.0  0.81144  0.61241  0.12226  1.0000
  H   H36       1.0  0.31144  0.88759  0.87773  1.0000
  H   H37       1.0  0.47592  0.71688  0.97480  1.0000
  H   H38       1.0  0.97591  0.78312  0.02520  1.0000
  H   H39       1.0  0.52409  0.28312  0.02520  1.0000
  H   H40       1.0  0.02409  0.21688  0.97480  1.0000
  H   H41       1.0  0.65588  0.59895  0.86824  1.0000
  H   H42       1.0  0.15587  0.90105  0.13176  1.0000
  H   H43       1.0  0.34413  0.40105  0.13176  1.0000
  H   H44       1.0  0.84413  0.09895  0.86824  1.0000
  H   H45       1.0  0.16862  0.55494  0.04417  1.0000
  H   H46       1.0  0.66862  0.94505  0.95582  1.0000
  H   H47       1.0  0.83138  0.44506  0.95582  1.0000
  H   H48       1.0  0.33138  0.05494  0.04417  1.0000
  H   H49       1.0  0.11677  0.65253  0.95827  1.0000
  H   H50       1.0  0.61677  0.84747  0.04173  1.0000
  H   H51       1.0  0.88323  0.34747  0.04173  1.0000
  H   H52       1.0  0.38323  0.15253  0.95827  1.0000
  H   H53       1.0  0.24793  0.72141  0.04018  1.0000
  H   H54       1.0  0.74792  0.77859  0.95982  1.0000
  H   H55       1.0  0.75207  0.27860  0.95982  1.0000
  H   H56       1.0  0.25207  0.22141  0.04018  1.0000
  C   C1        1.0  0.69071  0.44445  0.55451  1.0000
  C   C2        1.0  0.19071  0.05555  0.44549  1.0000
  C   C3        1.0  0.30929  0.55555  0.44549  1.0000
  C   C4        1.0  0.80929  0.94446  0.55451  1.0000
  C   C5        1.0  0.68505  0.43681  0.46034  1.0000
  C   C6        1.0  0.18505  0.06319  0.53967  1.0000
  C   C7        1.0  0.31495  0.56319  0.53966  1.0000
  C   C8        1.0  0.81495  0.93681  0.46033  1.0000
  C   C9        1.0  0.61324  0.32715  0.40888  1.0000
  C   C10       1.0  0.11324  0.17285  0.59112  1.0000
  C   C11       1.0  0.38676  0.67285  0.59112  1.0000
  C   C12       1.0  0.88676  0.82715  0.40888  1.0000
  C   C13       1.0  0.54712  0.22992  0.45695  1.0000
  C   C14       1.0  0.04712  0.27008  0.54305  1.0000
  C   C15       1.0  0.45288  0.77008  0.54305  1.0000
  C   C16       1.0  0.95287  0.72992  0.45695  1.0000
  C   C17       1.0  0.55731  0.24326  0.55117  1.0000
  C   C18       1.0  0.05732  0.25673  0.44883  1.0000
  C   C19       1.0  0.44269  0.75674  0.44883  1.0000
  C   C20       1.0  0.94268  0.74327  0.55117  1.0000
  C   C21       1.0  0.60595  0.31417  0.30748  1.0000
  C   C22       1.0  0.10595  0.18583  0.69252  1.0000
  C   C23       1.0  0.39405  0.68583  0.69252  1.0000
  C   C24       1.0  0.89405  0.81417  0.30747  1.0000
  C   C25       1.0  0.39618  0.37698  0.82156  1.0000
  C   C26       1.0  0.89618  0.12302  0.17844  1.0000
  C   C27       1.0  0.60381  0.62302  0.17844  1.0000
  C   C28       1.0  0.10382  0.87698  0.82156  1.0000
  C   C29       1.0  0.29112  0.43731  0.87817  1.0000
  C   C30       1.0  0.79112  0.06269  0.12183  1.0000
  C   C31       1.0  0.70888  0.56270  0.12183  1.0000
  C   C32       1.0  0.20888  0.93731  0.87817  1.0000
  C   C33       1.0  0.31722  0.56154  0.93589  1.0000
  C   C34       1.0  0.81721  0.93846  0.06410  1.0000
  C   C35       1.0  0.68279  0.43846  0.06411  1.0000
  C   C36       1.0  0.18279  0.06154  0.93590  1.0000
  C   C37       1.0  0.45057  0.62066  0.93128  1.0000
  C   C38       1.0  0.95057  0.87934  0.06872  1.0000
  C   C39       1.0  0.54943  0.37934  0.06873  1.0000
  C   C40       1.0  0.04943  0.12066  0.93128  1.0000
  C   C41       1.0  0.55133  0.55531  0.87301  1.0000
  C   C42       1.0  0.05132  0.94470  0.12699  1.0000
  C   C43       1.0  0.44868  0.44469  0.12699  1.0000
  C   C44       1.0  0.94868  0.05530  0.87301  1.0000
  C   C45       1.0  0.20757  0.62761  0.99893  1.0000
  C   C46       1.0  0.70756  0.87239  0.00107  1.0000
  C   C47       1.0  0.79244  0.37239  0.00107  1.0000
  C   C48       1.0  0.29243  0.12761  0.99893  1.0000
  S   S1        1.0  0.91763  0.55436  0.77190  1.0000
  S   S2        1.0  0.41763  0.94565  0.22810  1.0000
  S   S3        1.0  0.08237  0.44564  0.22810  1.0000
  S   S4        1.0  0.58237  0.05436  0.77190  1.0000
  N   N1        1.0  0.62939  0.34846  0.59953  1.0000
  N   N2        1.0  0.12939  0.15153  0.40047  1.0000
  N   N3        1.0  0.37061  0.65153  0.40047  1.0000
  N   N4        1.0  0.87060  0.84847  0.59953  1.0000
  N   N5        1.0  0.52533  0.43456  0.81898  1.0000
  N   N6        1.0  0.02533  0.06544  0.18102  1.0000
  N   N7        1.0  0.47466  0.56544  0.18102  1.0000
  N   N8        1.0  0.97467  0.93456  0.81898  1.0000
  O   O1        1.0  0.86338  0.40632  0.75665  1.0000
  O   O2        1.0  0.36338  0.09368  0.24335  1.0000
  O   O3        1.0  0.13663  0.59368  0.24335  1.0000
  O   O4        1.0  0.63662  0.90632  0.75666  1.0000
  O   O5        1.0  0.93356  0.60155  0.86951  1.0000
  O   O6        1.0  0.43356  0.89845  0.13049  1.0000
  O   O7        1.0  0.06644  0.39845  0.13049  1.0000
  O   O8        1.0  0.56644  0.10155  0.86951  1.0000
  O   O9        1.0  0.04743  0.56181  0.71900  1.0000
  O   O10       1.0  0.54742  0.93819  0.28100  1.0000
  O   O11       1.0  0.95257  0.43819  0.28100  1.0000
  O   O12       1.0  0.45257  0.06181  0.71900  1.0000
  O   O13       1.0  0.80245  0.64081  0.73340  1.0000
  O   O14       1.0  0.30244  0.85919  0.26660  1.0000
  O   O15       1.0  0.19755  0.35919  0.26660  1.0000
  O   O16       1.0  0.69755  0.14081  0.73340  1.0000
