data_image0
_chemical_formula_structural       H12Rh4C36O20F24
_chemical_formula_sum              "H12 Rh4 C36 O20 F24"
_cell_length_a       9.30803
_cell_length_b       12.7579
_cell_length_c       12.7578
_cell_angle_alpha    109.898
_cell_angle_beta     88.1886
_cell_angle_gamma    88.1904

_space_group_name_H-M_alt    "P 1"
_space_group_IT_number       1

loop_
  _space_group_symop_operation_xyz
  'x, y, z'

loop_
  _atom_site_type_symbol
  _atom_site_label
  _atom_site_symmetry_multiplicity
  _atom_site_fract_x
  _atom_site_fract_y
  _atom_site_fract_z
  _atom_site_occupancy
  H   H1        1.0  0.90749  0.79556  0.67643  1.0000
  H   H2        1.0  0.09257  0.32358  0.20445  1.0000
  H   H3        1.0  0.09255  0.20445  0.32359  1.0000
  H   H4        1.0  0.90749  0.67643  0.79554  1.0000
  H   H5        1.0  0.79034  0.16748  0.92926  1.0000
  H   H6        1.0  0.20969  0.07072  0.83251  1.0000
  H   H7        1.0  0.20967  0.83254  0.07073  1.0000
  H   H8        1.0  0.79039  0.92929  0.16748  1.0000
  H   H9        1.0  0.72763  0.25251  0.13297  1.0000
  H   H10       1.0  0.27242  0.86701  0.74750  1.0000
  H   H11       1.0  0.27240  0.74752  0.86703  1.0000
  H   H12       1.0  0.72766  0.13299  0.25249  1.0000
  Rh  Rh1       1.0  0.95361  0.00011  0.59019  1.0000
  Rh  Rh2       1.0  0.04638  0.40982  0.99988  1.0000
  Rh  Rh3       1.0  0.04640  0.99989  0.40983  1.0000
  Rh  Rh4       1.0  0.95361  0.59018  0.00011  1.0000
  C   C1        1.0  0.23674  0.08211  0.58701  1.0000
  C   C2        1.0  0.76323  0.41300  0.91786  1.0000
  C   C3        1.0  0.76325  0.91787  0.41302  1.0000
  C   C4        1.0  0.23674  0.58698  0.08212  1.0000
  C   C5        1.0  0.38102  0.12299  0.64041  1.0000
  C   C6        1.0  0.61897  0.35961  0.87699  1.0000
  C   C7        1.0  0.61898  0.87700  0.35962  1.0000
  C   C8        1.0  0.38102  0.64038  0.12302  1.0000
  C   C9        1.0  0.11398  0.80143  0.45806  1.0000
  C   C10       1.0  0.88604  0.54194  0.19856  1.0000
  C   C11       1.0  0.88603  0.19858  0.54195  1.0000
  C   C12       1.0  0.11396  0.45806  0.80142  1.0000
  C   C13       1.0  0.18434  0.68346  0.43490  1.0000
  C   C14       1.0  0.81564  0.56512  0.31654  1.0000
  C   C15       1.0  0.81562  0.31653  0.56510  1.0000
  C   C16       1.0  0.18435  0.43489  0.68346  1.0000
  C   C17       1.0  0.88453  0.83109  0.76615  1.0000
  C   C18       1.0  0.11549  0.23385  0.16892  1.0000
  C   C19       1.0  0.11548  0.16893  0.23386  1.0000
  C   C20       1.0  0.88454  0.76615  0.83107  1.0000
  C   C21       1.0  0.85992  0.95194  0.81402  1.0000
  C   C22       1.0  0.14006  0.18598  0.04807  1.0000
  C   C23       1.0  0.14006  0.04807  0.18598  1.0000
  C   C24       1.0  0.85992  0.81403  0.95194  1.0000
  C   C25       1.0  0.82035  0.00141  0.93375  1.0000
  C   C26       1.0  0.17964  0.06625  0.99859  1.0000
  C   C27       1.0  0.17964  0.99861  0.06624  1.0000
  C   C28       1.0  0.82035  0.93377  0.00140  1.0000
  C   C29       1.0  0.78690  0.11613  0.98195  1.0000
  C   C30       1.0  0.21314  0.01803  0.88388  1.0000
  C   C31       1.0  0.21312  0.88389  0.01805  1.0000
  C   C32       1.0  0.78691  0.98198  0.11612  1.0000
  C   C33       1.0  0.75281  0.16305  0.09595  1.0000
  C   C34       1.0  0.24723  0.90405  0.83697  1.0000
  C   C35       1.0  0.24722  0.83698  0.90406  1.0000
  C   C36       1.0  0.75283  0.09596  0.16304  1.0000
  O   O1        1.0  0.14303  0.06518  0.65329  1.0000
  O   O2        1.0  0.85695  0.34672  0.93481  1.0000
  O   O3        1.0  0.85698  0.93481  0.34674  1.0000
  O   O4        1.0  0.14303  0.65325  0.06518  1.0000
  O   O5        1.0  0.22960  0.06652  0.48379  1.0000
  O   O6        1.0  0.77042  0.51622  0.93344  1.0000
  O   O7        1.0  0.77041  0.93346  0.51624  1.0000
  O   O8        1.0  0.22958  0.48375  0.06652  1.0000
  O   O9        1.0  0.04803  0.84409  0.55271  1.0000
  O   O10       1.0  0.95199  0.44728  0.15590  1.0000
  O   O11       1.0  0.95203  0.15592  0.44729  1.0000
  O   O12       1.0  0.04798  0.55272  0.84409  1.0000
  O   O13       1.0  0.86716  0.15775  0.61857  1.0000
  O   O14       1.0  0.13283  0.38143  0.84225  1.0000
  O   O15       1.0  0.13286  0.84225  0.38143  1.0000
  O   O16       1.0  0.86718  0.61857  0.15776  1.0000
  O   O17       1.0  0.87248  0.01470  0.75673  1.0000
  O   O18       1.0  0.12748  0.24326  0.98530  1.0000
  O   O19       1.0  0.12751  0.98532  0.24327  1.0000
  O   O20       1.0  0.87249  0.75674  0.01470  1.0000
  F   F1        1.0  0.45664  0.17489  0.58208  1.0000
  F   F2        1.0  0.54333  0.41789  0.82508  1.0000
  F   F3        1.0  0.54331  0.82511  0.41790  1.0000
  F   F4        1.0  0.45664  0.58206  0.17492  1.0000
  F   F5        1.0  0.35801  0.19338  0.74651  1.0000
  F   F6        1.0  0.64198  0.25348  0.80660  1.0000
  F   F7        1.0  0.64202  0.80662  0.25349  1.0000
  F   F8        1.0  0.35801  0.74649  0.19341  1.0000
  F   F9        1.0  0.46224  0.03271  0.64263  1.0000
  F   F10       1.0  0.53776  0.35737  0.96727  1.0000
  F   F11       1.0  0.53779  0.96729  0.35737  1.0000
  F   F12       1.0  0.46223  0.64262  0.03274  1.0000
  F   F13       1.0  0.12432  0.63223  0.50120  1.0000
  F   F14       1.0  0.87558  0.49880  0.36779  1.0000
  F   F15       1.0  0.87557  0.36778  0.49879  1.0000
  F   F16       1.0  0.12438  0.50118  0.63219  1.0000
  F   F17       1.0  0.32703  0.69082  0.45368  1.0000
  F   F18       1.0  0.67293  0.54636  0.30914  1.0000
  F   F19       1.0  0.67291  0.30914  0.54637  1.0000
  F   F20       1.0  0.32705  0.45365  0.69083  1.0000
  F   F21       1.0  0.16973  0.61738  0.32688  1.0000
  F   F22       1.0  0.83026  0.67313  0.38260  1.0000
  F   F23       1.0  0.83024  0.38262  0.67312  1.0000
  F   F24       1.0  0.16971  0.32686  0.61740  1.0000
