data_image0
_chemical_formula_structural       Na4H32C16N16O12
_chemical_formula_sum              "Na4 H32 C16 N16 O12"
_cell_length_a       8.58318
_cell_length_b       9.21161
_cell_length_c       11.3627
_cell_angle_alpha    119.871
_cell_angle_beta     97.2038
_cell_angle_gamma    91.8181

_space_group_name_H-M_alt    "P 1"
_space_group_IT_number       1

loop_
  _space_group_symop_operation_xyz
  'x, y, z'

loop_
  _atom_site_type_symbol
  _atom_site_label
  _atom_site_symmetry_multiplicity
  _atom_site_fract_x
  _atom_site_fract_y
  _atom_site_fract_z
  _atom_site_occupancy
  Na  Na1       1.0  0.06227  0.70687  0.61271  1.0000
  Na  Na2       1.0  0.93773  0.29313  0.38729  1.0000
  Na  Na3       1.0  0.88863  0.80673  0.89911  1.0000
  Na  Na4       1.0  0.11136  0.19327  0.10089  1.0000
  H   H1        1.0  0.74013  0.74338  0.63497  1.0000
  H   H2        1.0  0.25987  0.25662  0.36503  1.0000
  H   H3        1.0  0.74730  0.56124  0.61713  1.0000
  H   H4        1.0  0.25270  0.43875  0.38287  1.0000
  H   H5        1.0  0.57578  0.91645  0.83723  1.0000
  H   H6        1.0  0.42422  0.08354  0.16277  1.0000
  H   H7        1.0  0.55540  0.89588  0.96391  1.0000
  H   H8        1.0  0.44460  0.10413  0.03609  1.0000
  H   H9        1.0  0.99888  0.44392  0.68778  1.0000
  H   H10       1.0  0.00112  0.55607  0.31222  1.0000
  H   H11       1.0  0.15614  0.38807  0.62516  1.0000
  H   H12       1.0  0.84386  0.61193  0.37484  1.0000
  H   H13       1.0  0.21199  0.69540  0.81667  1.0000
  H   H14       1.0  0.78800  0.30460  0.18332  1.0000
  H   H15       1.0  0.23613  0.88680  0.92716  1.0000
  H   H16       1.0  0.76387  0.11320  0.07284  1.0000
  H   H17       1.0  0.07038  0.02651  0.59101  1.0000
  H   H18       1.0  0.92964  0.97350  0.40902  1.0000
  H   H19       1.0  0.92392  0.08878  0.66429  1.0000
  H   H20       1.0  0.07609  0.91122  0.33571  1.0000
  H   H21       1.0  0.01302  0.98043  0.20261  1.0000
  H   H22       1.0  0.98697  0.01956  0.79739  1.0000
  H   H23       1.0  0.12862  0.87171  0.10789  1.0000
  H   H24       1.0  0.87137  0.12829  0.89211  1.0000
  H   H25       1.0  0.45673  0.38954  0.23659  1.0000
  H   H26       1.0  0.54327  0.61046  0.76341  1.0000
  H   H27       1.0  0.57174  0.28616  0.02014  1.0000
  H   H28       1.0  0.42825  0.71384  0.97986  1.0000
  H   H29       1.0  0.78927  0.78431  0.16780  1.0000
  H   H30       1.0  0.21074  0.21569  0.83221  1.0000
  H   H31       1.0  0.66807  0.89046  0.38111  1.0000
  H   H32       1.0  0.33194  0.10953  0.61889  1.0000
  C   C1        1.0  0.49820  0.70564  0.45502  1.0000
  C   C2        1.0  0.50180  0.29436  0.54498  1.0000
  C   C3        1.0  0.56037  0.64608  0.32618  1.0000
  C   C4        1.0  0.43963  0.35392  0.67381  1.0000
  C   C5        1.0  0.53072  0.47570  0.22214  1.0000
  C   C6        1.0  0.46927  0.52430  0.77786  1.0000
  C   C7        1.0  0.59581  0.41753  0.10248  1.0000
  C   C8        1.0  0.40419  0.58248  0.89752  1.0000
  C   C9        1.0  0.69364  0.52610  0.08235  1.0000
  C   C10       1.0  0.30635  0.47390  0.91765  1.0000
  C   C11       1.0  0.71723  0.69779  0.18342  1.0000
  C   C12       1.0  0.28277  0.30221  0.81658  1.0000
  C   C13       1.0  0.65163  0.75685  0.30348  1.0000
  C   C14       1.0  0.34838  0.24315  0.69652  1.0000
  C   C15       1.0  0.76669  0.45722  0.95833  1.0000
  C   C16       1.0  0.23330  0.54277  0.04166  1.0000
  N   N1        1.0  0.57111  0.83295  0.57847  1.0000
  N   N2        1.0  0.42889  0.16705  0.42153  1.0000
  N   N3        1.0  0.47670  0.84498  0.66832  1.0000
  N   N4        1.0  0.52330  0.15502  0.33168  1.0000
  N   N5        1.0  0.35210  0.72993  0.60255  1.0000
  N   N6        1.0  0.64790  0.27007  0.39745  1.0000
  N   N7        1.0  0.36339  0.63952  0.46848  1.0000
  N   N8        1.0  0.63661  0.36048  0.53152  1.0000
  N   N9        1.0  0.83567  0.54655  0.90998  1.0000
  N   N10       1.0  0.16433  0.45345  0.09002  1.0000
  N   N11       1.0  0.88580  0.43081  0.79576  1.0000
  N   N12       1.0  0.11420  0.56919  0.20424  1.0000
  N   N13       1.0  0.84869  0.27856  0.77490  1.0000
  N   N14       1.0  0.15131  0.72144  0.22510  1.0000
  N   N15       1.0  0.77411  0.29048  0.87545  1.0000
  N   N16       1.0  0.22588  0.70952  0.12455  1.0000
  O   O1        1.0  0.80736  0.67589  0.66127  1.0000
  O   O2        1.0  0.19264  0.32410  0.33873  1.0000
  O   O3        1.0  0.63300  0.93693  0.92862  1.0000
  O   O4        1.0  0.36701  0.06306  0.07137  1.0000
  O   O5        1.0  0.06419  0.44541  0.62005  1.0000
  O   O6        1.0  0.93581  0.55459  0.37994  1.0000
  O   O7        1.0  0.16080  0.79872  0.84853  1.0000
  O   O8        1.0  0.83920  0.20129  0.15147  1.0000
  O   O9        1.0  0.98473  0.98735  0.62082  1.0000
  O   O10       1.0  0.01527  0.01265  0.37918  1.0000
  O   O11       1.0  0.04795  0.94960  0.11482  1.0000
  O   O12       1.0  0.95205  0.05040  0.88518  1.0000
