data_image0
_chemical_formula_structural       Ag4H32C24N12O12
_chemical_formula_sum              "Ag4 H32 C24 N12 O12"
_cell_length_a       6.21716
_cell_length_b       11.0523
_cell_length_c       11.7822
_cell_angle_alpha    90.0008
_cell_angle_beta     90.0011
_cell_angle_gamma    89.9989

_space_group_name_H-M_alt    "P 1"
_space_group_IT_number       1

loop_
  _space_group_symop_operation_xyz
  'x, y, z'

loop_
  _atom_site_type_symbol
  _atom_site_label
  _atom_site_symmetry_multiplicity
  _atom_site_fract_x
  _atom_site_fract_y
  _atom_site_fract_z
  _atom_site_occupancy
  Ag  Ag1       1.0  0.24999  0.27494  0.44311  1.0000
  Ag  Ag2       1.0  0.75000  0.77494  0.05689  1.0000
  Ag  Ag3       1.0  0.25000  0.22506  0.94309  1.0000
  Ag  Ag4       1.0  0.74999  0.72504  0.55690  1.0000
  H   H1        1.0  0.10928  0.30424  0.68779  1.0000
  H   H2        1.0  0.89074  0.80424  0.81220  1.0000
  H   H3        1.0  0.39074  0.19578  0.18781  1.0000
  H   H4        1.0  0.60925  0.69576  0.31220  1.0000
  H   H5        1.0  0.89074  0.69575  0.31221  1.0000
  H   H6        1.0  0.10926  0.19577  0.18780  1.0000
  H   H7        1.0  0.60926  0.80424  0.81220  1.0000
  H   H8        1.0  0.39076  0.30426  0.68780  1.0000
  H   H9        1.0  0.11708  0.43325  0.85453  1.0000
  H   H10       1.0  0.88293  0.93323  0.64547  1.0000
  H   H11       1.0  0.38295  0.06677  0.35452  1.0000
  H   H12       1.0  0.61710  0.56676  0.14546  1.0000
  H   H13       1.0  0.88294  0.56677  0.14548  1.0000
  H   H14       1.0  0.11709  0.06675  0.35453  1.0000
  H   H15       1.0  0.61707  0.93323  0.64546  1.0000
  H   H16       1.0  0.38293  0.43325  0.85453  1.0000
  H   H17       1.0  0.25000  0.60087  0.77123  1.0000
  H   H18       1.0  0.74996  0.10085  0.72877  1.0000
  H   H19       1.0  0.25003  0.89917  0.27123  1.0000
  H   H20       1.0  0.75000  0.39916  0.22877  1.0000
  H   H21       1.0  0.24999  0.77942  0.63971  1.0000
  H   H22       1.0  0.74994  0.27941  0.86029  1.0000
  H   H23       1.0  0.25001  0.72060  0.13974  1.0000
  H   H24       1.0  0.74998  0.22058  0.36028  1.0000
  H   H25       1.0  0.24999  0.74187  0.43007  1.0000
  H   H26       1.0  0.74997  0.24187  0.06993  1.0000
  H   H27       1.0  0.25001  0.75812  0.93009  1.0000
  H   H28       1.0  0.74996  0.25812  0.56992  1.0000
  H   H29       1.0  0.24999  0.52847  0.36008  1.0000
  H   H30       1.0  0.75001  0.02847  0.13992  1.0000
  H   H31       1.0  0.25001  0.97152  0.86008  1.0000
  H   H32       1.0  0.74997  0.47151  0.63992  1.0000
  C   C1        1.0  0.25000  0.47106  0.63512  1.0000
  C   C2        1.0  0.75000  0.97105  0.86487  1.0000
  C   C3        1.0  0.25002  0.02895  0.13512  1.0000
  C   C4        1.0  0.74999  0.52894  0.36489  1.0000
  C   C5        1.0  0.25001  0.35992  0.70961  1.0000
  C   C6        1.0  0.75000  0.85989  0.79039  1.0000
  C   C7        1.0  0.25001  0.14011  0.20961  1.0000
  C   C8        1.0  0.74999  0.64009  0.29039  1.0000
  C   C9        1.0  0.24999  0.58795  0.67973  1.0000
  C   C10       1.0  0.74997  0.08793  0.82028  1.0000
  C   C11       1.0  0.25002  0.91207  0.17973  1.0000
  C   C12       1.0  0.75000  0.41206  0.32027  1.0000
  C   C13       1.0  0.24999  0.68724  0.60662  1.0000
  C   C14       1.0  0.74997  0.18723  0.89339  1.0000
  C   C15       1.0  0.25002  0.81277  0.10662  1.0000
  C   C16       1.0  0.74999  0.31276  0.39338  1.0000
  C   C17       1.0  0.24999  0.66674  0.48974  1.0000
  C   C18       1.0  0.74999  0.16674  0.01026  1.0000
  C   C19       1.0  0.25001  0.83325  0.98975  1.0000
  C   C20       1.0  0.74998  0.33326  0.51026  1.0000
  C   C21       1.0  0.24999  0.54804  0.45075  1.0000
  C   C22       1.0  0.75001  0.04803  0.04924  1.0000
  C   C23       1.0  0.25001  0.95195  0.95076  1.0000
  C   C24       1.0  0.74998  0.45195  0.54925  1.0000
  N   N1        1.0  0.24999  0.45183  0.52141  1.0000
  N   N2        1.0  0.75001  0.95182  0.97859  1.0000
  N   N3        1.0  0.25001  0.04817  0.02140  1.0000
  N   N4        1.0  0.74999  0.54816  0.47861  1.0000
  N   N5        1.0  0.25001  0.38296  0.83247  1.0000
  N   N6        1.0  0.75000  0.88295  0.66753  1.0000
  N   N7        1.0  0.25001  0.11705  0.33247  1.0000
  N   N8        1.0  0.75001  0.61704  0.16754  1.0000
  N   N9        1.0  0.24996  0.05447  0.62170  1.0000
  N   N10       1.0  0.75002  0.55448  0.87829  1.0000
  N   N11       1.0  0.25001  0.44553  0.12171  1.0000
  N   N12       1.0  0.75004  0.94552  0.37830  1.0000
  O   O1        1.0  0.42720  0.10096  0.59118  1.0000
  O   O2        1.0  0.57277  0.60099  0.90879  1.0000
  O   O3        1.0  0.07277  0.39901  0.09120  1.0000
  O   O4        1.0  0.92729  0.89903  0.40881  1.0000
  O   O5        1.0  0.57280  0.89902  0.40881  1.0000
  O   O6        1.0  0.42727  0.39905  0.09119  1.0000
  O   O7        1.0  0.92726  0.60097  0.90881  1.0000
  O   O8        1.0  0.07272  0.10098  0.59121  1.0000
  O   O9        1.0  0.24998  0.95990  0.68351  1.0000
  O   O10       1.0  0.75002  0.45990  0.81648  1.0000
  O   O11       1.0  0.24998  0.54010  0.18352  1.0000
  O   O12       1.0  0.75003  0.04009  0.31648  1.0000
