data_image0
_chemical_formula_structural       Cd4H48C64N8O24
_chemical_formula_sum              "Cd4 H48 C64 N8 O24"
_cell_length_a       9.60372
_cell_length_b       9.60512
_cell_length_c       25.2796
_cell_angle_alpha    96.1572
_cell_angle_beta     96.1512
_cell_angle_gamma    115.818

_space_group_name_H-M_alt    "P 1"
_space_group_IT_number       1

loop_
  _space_group_symop_operation_xyz
  'x, y, z'

loop_
  _atom_site_type_symbol
  _atom_site_label
  _atom_site_symmetry_multiplicity
  _atom_site_fract_x
  _atom_site_fract_y
  _atom_site_fract_z
  _atom_site_occupancy
  Cd  Cd1       1.0  0.90665  0.11423  0.52798  1.0000
  Cd  Cd2       1.0  0.58614  0.37845  0.47204  1.0000
  Cd  Cd3       1.0  0.62884  0.33634  0.97205  1.0000
  Cd  Cd4       1.0  0.36431  0.65655  0.02793  1.0000
  H   H1        1.0  0.07463  0.61121  0.93033  1.0000
  H   H2        1.0  0.68122  0.14459  0.06976  1.0000
  H   H3        1.0  0.39455  0.43120  0.56974  1.0000
  H   H4        1.0  0.86142  0.82482  0.43030  1.0000
  H   H5        1.0  0.38472  0.80302  0.44420  1.0000
  H   H6        1.0  0.35867  0.94020  0.55567  1.0000
  H   H7        1.0  0.19048  0.10862  0.05558  1.0000
  H   H8        1.0  0.05318  0.13471  0.94414  1.0000
  H   H9        1.0  0.36082  0.67099  0.54946  1.0000
  H   H10       1.0  0.12112  0.81085  0.45048  1.0000
  H   H11       1.0  0.06084  0.87097  0.95044  1.0000
  H   H12       1.0  0.92129  0.11088  0.04943  1.0000
  H   H13       1.0  0.12955  0.55892  0.44256  1.0000
  H   H14       1.0  0.11636  0.68663  0.55742  1.0000
  H   H15       1.0  0.93690  0.86677  0.05741  1.0000
  H   H16       1.0  0.80908  0.87966  0.94253  1.0000
  H   H17       1.0  0.91767  0.51970  0.69303  1.0000
  H   H18       1.0  0.82714  0.22549  0.30709  1.0000
  H   H19       1.0  0.47539  0.57709  0.80713  1.0000
  H   H20       1.0  0.76965  0.66788  0.19302  1.0000
  H   H21       1.0  0.88342  0.39985  0.59730  1.0000
  H   H22       1.0  0.80292  0.28701  0.40280  1.0000
  H   H23       1.0  0.53706  0.55281  0.90283  1.0000
  H   H24       1.0  0.64998  0.63371  0.09728  1.0000
  H   H25       1.0  0.91619  0.01086  0.64228  1.0000
  H   H26       1.0  0.36828  0.27349  0.35769  1.0000
  H   H27       1.0  0.52395  0.11847  0.85765  1.0000
  H   H28       1.0  0.26099  0.66684  0.14230  1.0000
  H   H29       1.0  0.95230  0.11439  0.74073  1.0000
  H   H30       1.0  0.37396  0.21188  0.25925  1.0000
  H   H31       1.0  0.46218  0.12412  0.75921  1.0000
  H   H32       1.0  0.36454  0.70293  0.24074  1.0000
  H   H33       1.0  0.11502  0.29313  0.81178  1.0000
  H   H34       1.0  0.48264  0.30459  0.18834  1.0000
  H   H35       1.0  0.55456  0.23262  0.68833  1.0000
  H   H36       1.0  0.54338  0.86552  0.31180  1.0000
  H   H37       1.0  0.16848  0.42847  0.90831  1.0000
  H   H38       1.0  0.52097  0.26099  0.09174  1.0000
  H   H39       1.0  0.51097  0.27096  0.59174  1.0000
  H   H40       1.0  0.67886  0.91891  0.40832  1.0000
  H   H41       1.0  0.89680  0.65098  0.86961  1.0000
  H   H42       1.0  0.78109  0.02695  0.13042  1.0000
  H   H43       1.0  0.27707  0.53121  0.63044  1.0000
  H   H44       1.0  0.90091  0.64683  0.36955  1.0000
  H   H45       1.0  0.82874  0.52461  0.77118  1.0000
  H   H46       1.0  0.75325  0.05750  0.22888  1.0000
  H   H47       1.0  0.30763  0.50338  0.72889  1.0000
  H   H48       1.0  0.77442  0.57887  0.27114  1.0000
  C   C1        1.0  0.40599  0.81729  0.48855  1.0000
  C   C2        1.0  0.32855  0.91719  0.51133  1.0000
  C   C3        1.0  0.16738  0.07850  0.01124  1.0000
  C   C4        1.0  0.06753  0.15601  0.98849  1.0000
  C   C5        1.0  0.33630  0.65535  0.50519  1.0000
  C   C6        1.0  0.14986  0.83062  0.49475  1.0000
  C   C7        1.0  0.08072  0.89985  0.99471  1.0000
  C   C8        1.0  0.90559  0.08640  0.00516  1.0000
  C   C9        1.0  0.15712  0.57049  0.48666  1.0000
  C   C10       1.0  0.08384  0.67009  0.51331  1.0000
  C   C11       1.0  0.92025  0.83404  0.01330  1.0000
  C   C12       1.0  0.82062  0.90725  0.98664  1.0000
  C   C13       1.0  0.58355  0.90574  0.50808  1.0000
  C   C14       1.0  0.39732  0.07527  0.49185  1.0000
  C   C15       1.0  0.32543  0.14716  0.99172  1.0000
  C   C16       1.0  0.15610  0.33355  0.00803  1.0000
  C   C17       1.0  0.41464  0.55782  0.48351  1.0000
  C   C18       1.0  0.07410  0.93071  0.51646  1.0000
  C   C19       1.0  0.18081  0.82408  0.01644  1.0000
  C   C20       1.0  0.80813  0.16489  0.98354  1.0000
  C   C21       1.0  0.08047  0.40630  0.50085  1.0000
  C   C22       1.0  0.90548  0.57921  0.49910  1.0000
  C   C23       1.0  0.82935  0.65571  0.99921  1.0000
  C   C24       1.0  0.65644  0.83066  0.00083  1.0000
  C   C25       1.0  0.91636  0.40552  0.68405  1.0000
  C   C26       1.0  0.72188  0.23303  0.31606  1.0000
  C   C27       1.0  0.48301  0.47185  0.81607  1.0000
  C   C28       1.0  0.65550  0.66660  0.18402  1.0000
  C   C29       1.0  0.89797  0.33971  0.63035  1.0000
  C   C30       1.0  0.70968  0.26839  0.36975  1.0000
  C   C31       1.0  0.51848  0.45965  0.86975  1.0000
  C   C32       1.0  0.58973  0.64825  0.13032  1.0000
  C   C33       1.0  0.91756  0.12326  0.65589  1.0000
  C   C34       1.0  0.46732  0.26166  0.34412  1.0000
  C   C35       1.0  0.51204  0.21745  0.84409  1.0000
  C   C36       1.0  0.37338  0.66813  0.15589  1.0000
  C   C37       1.0  0.93835  0.18211  0.71044  1.0000
  C   C38       1.0  0.47191  0.22820  0.28958  1.0000
  C   C39       1.0  0.47849  0.22204  0.78955  1.0000
  C   C40       1.0  0.43223  0.68890  0.21045  1.0000
  C   C41       1.0  0.93934  0.32769  0.72555  1.0000
  C   C42       1.0  0.60256  0.21439  0.27452  1.0000
  C   C43       1.0  0.46444  0.35258  0.77452  1.0000
  C   C44       1.0  0.57771  0.68971  0.22553  1.0000
  C   C45       1.0  0.96872  0.39936  0.78285  1.0000
  C   C46       1.0  0.61713  0.18659  0.21723  1.0000
  C   C47       1.0  0.43659  0.36713  0.71723  1.0000
  C   C48       1.0  0.64940  0.71906  0.28284  1.0000
  C   C49       1.0  0.06314  0.37085  0.82221  1.0000
  C   C50       1.0  0.54965  0.24203  0.17787  1.0000
  C   C51       1.0  0.49199  0.29963  0.67787  1.0000
  C   C52       1.0  0.62103  0.81354  0.32223  1.0000
  C   C53       1.0  0.09651  0.44598  0.87532  1.0000
  C   C54       1.0  0.57146  0.22208  0.12476  1.0000
  C   C55       1.0  0.47207  0.32147  0.62476  1.0000
  C   C56       1.0  0.69625  0.84687  0.37532  1.0000
  C   C57       1.0  0.94288  0.57348  0.85312  1.0000
  C   C58       1.0  0.72040  0.08984  0.14693  1.0000
  C   C59       1.0  0.33997  0.47052  0.64695  1.0000
  C   C60       1.0  0.82355  0.69308  0.35307  1.0000
  C   C61       1.0  0.90663  0.50190  0.79963  1.0000
  C   C62       1.0  0.70242  0.10722  0.20044  1.0000
  C   C63       1.0  0.35731  0.45250  0.70045  1.0000
  C   C64       1.0  0.75184  0.65683  0.29959  1.0000
  N   N1        1.0  0.90004  0.20144  0.61685  1.0000
  N   N2        1.0  0.58461  0.28347  0.38319  1.0000
  N   N3        1.0  0.53372  0.33466  0.88317  1.0000
  N   N4        1.0  0.45150  0.65047  0.11684  1.0000
  N   N5        1.0  0.03732  0.54566  0.88910  1.0000
  N   N6        1.0  0.65693  0.14860  0.11097  1.0000
  N   N7        1.0  0.39867  0.40702  0.61098  1.0000
  N   N8        1.0  0.79590  0.78760  0.38906  1.0000
  O   O1        1.0  0.66286  0.99821  0.47713  1.0000
  O   O2        1.0  0.52054  0.18561  0.52286  1.0000
  O   O3        1.0  0.43581  0.27033  0.02275  1.0000
  O   O4        1.0  0.24853  0.41289  0.97707  1.0000
  O   O5        1.0  0.64360  0.89013  0.55233  1.0000
  O   O6        1.0  0.33759  0.09103  0.44757  1.0000
  O   O7        1.0  0.34109  0.08743  0.94742  1.0000
  O   O8        1.0  0.14059  0.39355  0.05231  1.0000
  O   O9        1.0  0.45370  0.56217  0.43774  1.0000
  O   O10       1.0  0.12441  0.01562  0.56221  1.0000
  O   O11       1.0  0.26584  0.87451  0.06216  1.0000
  O   O12       1.0  0.81251  0.20404  0.93778  1.0000
  O   O13       1.0  0.43969  0.47057  0.51538  1.0000
  O   O14       1.0  0.95497  0.92402  0.48462  1.0000
  O   O15       1.0  0.17397  0.70481  0.98463  1.0000
  O   O16       1.0  0.72099  0.19002  0.01544  1.0000
  O   O17       1.0  0.11564  0.38908  0.54889  1.0000
  O   O18       1.0  0.84028  0.56661  0.45108  1.0000
  O   O19       1.0  0.81648  0.59021  0.95120  1.0000
  O   O20       1.0  0.63924  0.86587  0.04887  1.0000
  O   O21       1.0  0.97882  0.29383  0.46498  1.0000
  O   O22       1.0  0.82874  0.51322  0.53492  1.0000
  O   O23       1.0  0.76368  0.57926  0.03513  1.0000
  O   O24       1.0  0.54391  0.72893  0.96498  1.0000
