data_image0
_chemical_formula_structural       Cd6H16C24O26
_chemical_formula_sum              "Cd6 H16 C24 O26"
_cell_length_a       9.59919
_cell_length_b       9.5324
_cell_length_c       10.3233
_cell_angle_alpha    112.264
_cell_angle_beta     105.416
_cell_angle_gamma    107.603

_space_group_name_H-M_alt    "P 1"
_space_group_IT_number       1

loop_
  _space_group_symop_operation_xyz
  'x, y, z'

loop_
  _atom_site_type_symbol
  _atom_site_label
  _atom_site_symmetry_multiplicity
  _atom_site_fract_x
  _atom_site_fract_y
  _atom_site_fract_z
  _atom_site_occupancy
  Cd  Cd1       1.0  0.61420  0.73452  0.92162  1.0000
  Cd  Cd2       1.0  0.38580  0.26548  0.07838  1.0000
  Cd  Cd3       1.0  0.81720  0.16901  0.23841  1.0000
  Cd  Cd4       1.0  0.18280  0.83098  0.76159  1.0000
  Cd  Cd5       1.0  0.21894  0.24928  0.45031  1.0000
  Cd  Cd6       1.0  0.78106  0.75072  0.54969  1.0000
  H   H1        1.0  0.19136  0.95587  0.37317  1.0000
  H   H2        1.0  0.80864  0.04413  0.62683  1.0000
  H   H3        1.0  0.97191  0.57737  0.15362  1.0000
  H   H4        1.0  0.02809  0.42262  0.84638  1.0000
  H   H5        1.0  0.28635  0.75762  0.45053  1.0000
  H   H6        1.0  0.71366  0.24238  0.54948  1.0000
  H   H7        1.0  0.24734  0.55188  0.12096  1.0000
  H   H8        1.0  0.75266  0.44812  0.87904  1.0000
  H   H9        1.0  0.42401  0.93398  0.35979  1.0000
  H   H10       1.0  0.57599  0.06602  0.64021  1.0000
  H   H11       1.0  0.13484  0.73228  0.04039  1.0000
  H   H12       1.0  0.86516  0.26772  0.95961  1.0000
  H   H13       1.0  0.31219  0.61374  0.62832  1.0000
  H   H14       1.0  0.68781  0.38626  0.37168  1.0000
  H   H15       1.0  0.27753  0.56464  0.74925  1.0000
  H   H16       1.0  0.72246  0.43536  0.25075  1.0000
  C   C1        1.0  0.11147  0.84766  0.25528  1.0000
  C   C2        1.0  0.88853  0.15234  0.74472  1.0000
  C   C3        1.0  0.06181  0.68587  0.26885  1.0000
  C   C4        1.0  0.93819  0.31413  0.73115  1.0000
  C   C5        1.0  0.20704  0.65547  0.32974  1.0000
  C   C6        1.0  0.79296  0.34453  0.67026  1.0000
  C   C7        1.0  0.31252  0.66069  0.23978  1.0000
  C   C8        1.0  0.68748  0.33931  0.76022  1.0000
  C   C9        1.0  0.36190  0.82945  0.23911  1.0000
  C   C10       1.0  0.63810  0.17055  0.76089  1.0000
  C   C11       1.0  0.20944  0.84328  0.15807  1.0000
  C   C12       1.0  0.79056  0.15672  0.84193  1.0000
  C   C13       1.0  0.96501  0.87317  0.18631  1.0000
  C   C14       1.0  0.03499  0.12683  0.81369  1.0000
  C   C15       1.0  0.97943  0.69874  0.37886  1.0000
  C   C16       1.0  0.02057  0.30126  0.62114  1.0000
  C   C17       1.0  0.15209  0.48922  0.33260  1.0000
  C   C18       1.0  0.84791  0.51078  0.66740  1.0000
  C   C19       1.0  0.46582  0.65642  0.32604  1.0000
  C   C20       1.0  0.53418  0.34358  0.67396  1.0000
  C   C21       1.0  0.48653  0.85517  0.17250  1.0000
  C   C22       1.0  0.51347  0.14483  0.82751  1.0000
  C   C23       1.0  0.26152  0.99819  0.13772  1.0000
  C   C24       1.0  0.73848  0.00181  0.86228  1.0000
  O   O1        1.0  0.85336  0.75354  0.05611  1.0000
  O   O2        1.0  0.14664  0.24646  0.94389  1.0000
  O   O3        1.0  0.96953  0.01813  0.26303  1.0000
  O   O4        1.0  0.03047  0.98187  0.73697  1.0000
  O   O5        1.0  0.84925  0.71408  0.34318  1.0000
  O   O6        1.0  0.15075  0.28592  0.65682  1.0000
  O   O7        1.0  0.04169  0.68839  0.49777  1.0000
  O   O8        1.0  0.95831  0.31161  0.50223  1.0000
  O   O9        1.0  0.01643  0.36614  0.22996  1.0000
  O   O10       1.0  0.98357  0.63386  0.77004  1.0000
  O   O11       1.0  0.25470  0.48550  0.43916  1.0000
  O   O12       1.0  0.74530  0.51450  0.56084  1.0000
  O   O13       1.0  0.48758  0.52428  0.27938  1.0000
  O   O14       1.0  0.51242  0.47572  0.72062  1.0000
  O   O15       1.0  0.57159  0.79407  0.45020  1.0000
  O   O16       1.0  0.42841  0.20593  0.54980  1.0000
  O   O17       1.0  0.46419  0.72667  0.05289  1.0000
  O   O18       1.0  0.53581  0.27333  0.94711  1.0000
  O   O19       1.0  0.60358  0.00303  0.24708  1.0000
  O   O20       1.0  0.39642  0.99697  0.75292  1.0000
  O   O21       1.0  0.30387  0.98384  0.02657  1.0000
  O   O22       1.0  0.69613  0.01615  0.97343  1.0000
  O   O23       1.0  0.27170  0.13926  0.22678  1.0000
  O   O24       1.0  0.72830  0.86074  0.77323  1.0000
  O   O25       1.0  0.32586  0.66383  0.73850  1.0000
  O   O26       1.0  0.67414  0.33617  0.26150  1.0000
