data_image0
_chemical_formula_structural       Cu2H16C14S2N8Cl2
_chemical_formula_sum              "Cu2 H16 C14 S2 N8 Cl2"
_cell_length_a       8.49339
_cell_length_b       8.09421
_cell_length_c       11.3904
_cell_angle_alpha    41.87
_cell_angle_beta     75.9228
_cell_angle_gamma    78.948

_space_group_name_H-M_alt    "P 1"
_space_group_IT_number       1

loop_
  _space_group_symop_operation_xyz
  'x, y, z'

loop_
  _atom_site_type_symbol
  _atom_site_label
  _atom_site_symmetry_multiplicity
  _atom_site_fract_x
  _atom_site_fract_y
  _atom_site_fract_z
  _atom_site_occupancy
  Cu  Cu1       1.0  0.92314  0.29179  0.08298  1.0000
  Cu  Cu2       1.0  0.07687  0.70822  0.91701  1.0000
  H   H1        1.0  0.29851  0.10174  0.86651  1.0000
  H   H2        1.0  0.70148  0.89826  0.13349  1.0000
  H   H3        1.0  0.17613  0.08224  0.02880  1.0000
  H   H4        1.0  0.82386  0.91777  0.97120  1.0000
  H   H5        1.0  0.09698  0.60667  0.51332  1.0000
  H   H6        1.0  0.90302  0.39333  0.48667  1.0000
  H   H7        1.0  0.23816  0.62118  0.31879  1.0000
  H   H8        1.0  0.76184  0.37882  0.68121  1.0000
  H   H9        1.0  0.39123  0.68652  0.08634  1.0000
  H   H10       1.0  0.60877  0.31346  0.91366  1.0000
  H   H11       1.0  0.63838  0.60841  0.96118  1.0000
  H   H12       1.0  0.36162  0.39158  0.03882  1.0000
  H   H13       1.0  0.80137  0.05247  0.44996  1.0000
  H   H14       1.0  0.19864  0.94753  0.55004  1.0000
  H   H15       1.0  0.56757  0.11890  0.59259  1.0000
  H   H16       1.0  0.43244  0.88109  0.40741  1.0000
  C   C1        1.0  0.10859  0.33956  0.78224  1.0000
  C   C2        1.0  0.89141  0.66045  0.21776  1.0000
  C   C3        1.0  0.31696  0.46950  0.41604  1.0000
  C   C4        1.0  0.68304  0.53050  0.58395  1.0000
  C   C5        1.0  0.45797  0.41005  0.35086  1.0000
  C   C6        1.0  0.54203  0.58994  0.64914  1.0000
  C   C7        1.0  0.48059  0.54633  0.17086  1.0000
  C   C8        1.0  0.51941  0.45366  0.82914  1.0000
  C   C9        1.0  0.61573  0.50016  0.10139  1.0000
  C   C10       1.0  0.38427  0.49984  0.89861  1.0000
  C   C11       1.0  0.70711  0.19070  0.37450  1.0000
  C   C12       1.0  0.29290  0.80930  0.62550  1.0000
  C   C13       1.0  0.57629  0.22829  0.45317  1.0000
  C   C14       1.0  0.42371  0.77171  0.54683  1.0000
  S   S1        1.0  0.94480  0.46671  0.81462  1.0000
  S   S2        1.0  0.05520  0.53330  0.18538  1.0000
  N   N1        1.0  0.19971  0.15386  0.90475  1.0000
  N   N2        1.0  0.80028  0.84615  0.09525  1.0000
  N   N3        1.0  0.14961  0.43788  0.61681  1.0000
  N   N4        1.0  0.85039  0.56213  0.38318  1.0000
  N   N5        1.0  0.28360  0.35383  0.58002  1.0000
  N   N6        1.0  0.71640  0.64616  0.41999  1.0000
  N   N7        1.0  0.72821  0.32409  0.20058  1.0000
  N   N8        1.0  0.27180  0.67592  0.79941  1.0000
  Cl  Cl1       1.0  0.10891  0.00297  0.26342  1.0000
  Cl  Cl2       1.0  0.89108  0.99704  0.73658  1.0000
