data_image0
_chemical_formula_structural       Na4H28C12S4O20
_chemical_formula_sum              "Na4 H28 C12 S4 O20"
_cell_length_a       5.61024
_cell_length_b       6.19525
_cell_length_c       18.5236
_cell_angle_alpha    89.9996
_cell_angle_beta     96.1636
_cell_angle_gamma    89.9994

_space_group_name_H-M_alt    "P 1"
_space_group_IT_number       1

loop_
  _space_group_symop_operation_xyz
  'x, y, z'

loop_
  _atom_site_type_symbol
  _atom_site_label
  _atom_site_symmetry_multiplicity
  _atom_site_fract_x
  _atom_site_fract_y
  _atom_site_fract_z
  _atom_site_occupancy
  Na  Na1       1.0  0.74889  0.44068  0.23314  1.0000
  Na  Na2       1.0  0.75109  0.94067  0.26686  1.0000
  Na  Na3       1.0  0.25110  0.55932  0.76686  1.0000
  Na  Na4       1.0  0.24890  0.05932  0.73314  1.0000
  H   H1        1.0  0.25502  0.95645  0.00590  1.0000
  H   H2        1.0  0.24499  0.45643  0.49410  1.0000
  H   H3        1.0  0.74498  0.04356  0.99410  1.0000
  H   H4        1.0  0.75502  0.54357  0.50590  1.0000
  H   H5        1.0  0.59559  0.63605  0.90734  1.0000
  H   H6        1.0  0.90443  0.13606  0.59266  1.0000
  H   H7        1.0  0.40442  0.36395  0.09266  1.0000
  H   H8        1.0  0.09559  0.86395  0.40734  1.0000
  H   H9        1.0  0.88813  0.54092  0.93617  1.0000
  H   H10       1.0  0.61188  0.04093  0.56383  1.0000
  H   H11       1.0  0.11188  0.45908  0.06382  1.0000
  H   H12       1.0  0.38813  0.95907  0.43617  1.0000
  H   H13       1.0  0.72400  0.67865  0.39365  1.0000
  H   H14       1.0  0.77600  0.17865  0.10635  1.0000
  H   H15       1.0  0.27600  0.32135  0.60635  1.0000
  H   H16       1.0  0.22400  0.82136  0.89365  1.0000
  H   H17       1.0  0.49600  0.58609  0.35181  1.0000
  H   H18       1.0  0.00401  0.08609  0.14819  1.0000
  H   H19       1.0  0.50400  0.41391  0.64819  1.0000
  H   H20       1.0  0.99599  0.91392  0.85181  1.0000
  H   H21       1.0  0.12721  0.62213  0.30168  1.0000
  H   H22       1.0  0.37279  0.12213  0.19832  1.0000
  H   H23       1.0  0.87279  0.37787  0.69832  1.0000
  H   H24       1.0  0.62721  0.87787  0.80168  1.0000
  H   H25       1.0  0.21132  0.70793  0.22938  1.0000
  H   H26       1.0  0.28869  0.20793  0.27062  1.0000
  H   H27       1.0  0.78869  0.29207  0.77062  1.0000
  H   H28       1.0  0.71130  0.79206  0.72938  1.0000
  C   C1        1.0  0.38253  0.80073  0.12189  1.0000
  C   C2        1.0  0.11746  0.30073  0.37811  1.0000
  C   C3        1.0  0.61747  0.19926  0.87811  1.0000
  C   C4        1.0  0.88253  0.69928  0.62189  1.0000
  C   C5        1.0  0.39264  0.68735  0.04757  1.0000
  C   C6        1.0  0.10737  0.18734  0.45242  1.0000
  C   C7        1.0  0.60737  0.31266  0.95242  1.0000
  C   C8        1.0  0.89264  0.81265  0.54758  1.0000
  C   C9        1.0  0.70174  0.54373  0.94959  1.0000
  C   C10       1.0  0.79827  0.04372  0.55041  1.0000
  C   C11       1.0  0.29827  0.45627  0.05041  1.0000
  C   C12       1.0  0.20175  0.95627  0.44960  1.0000
  S   S1        1.0  0.71656  0.68653  0.03497  1.0000
  S   S2        1.0  0.78345  0.18652  0.46503  1.0000
  S   S3        1.0  0.28344  0.31348  0.96502  1.0000
  S   S4        1.0  0.21656  0.81347  0.53497  1.0000
  O   O1        1.0  0.47647  0.70589  0.17850  1.0000
  O   O2        1.0  0.02350  0.20587  0.32150  1.0000
  O   O3        1.0  0.52353  0.29411  0.82150  1.0000
  O   O4        1.0  0.97648  0.79412  0.67850  1.0000
  O   O5        1.0  0.27968  0.98340  0.11957  1.0000
  O   O6        1.0  0.22034  0.48340  0.38042  1.0000
  O   O7        1.0  0.72032  0.01661  0.88043  1.0000
  O   O8        1.0  0.77965  0.51659  0.61958  1.0000
  O   O9        1.0  0.25555  0.80129  0.99190  1.0000
  O   O10       1.0  0.24444  0.30128  0.50810  1.0000
  O   O11       1.0  0.74444  0.19872  0.00810  1.0000
  O   O12       1.0  0.75555  0.69872  0.49190  1.0000
  O   O13       1.0  0.65268  0.64837  0.34359  1.0000
  O   O14       1.0  0.84731  0.14839  0.15640  1.0000
  O   O15       1.0  0.34732  0.35162  0.65641  1.0000
  O   O16       1.0  0.15269  0.85162  0.84360  1.0000
  O   O17       1.0  0.06726  0.69484  0.25525  1.0000
  O   O18       1.0  0.43273  0.19484  0.24475  1.0000
  O   O19       1.0  0.93274  0.30517  0.74475  1.0000
  O   O20       1.0  0.56726  0.80516  0.75525  1.0000
