data_image0
_chemical_formula_structural       Ni8H48C44N4O36
_chemical_formula_sum              "Ni8 H48 C44 N4 O36"
_cell_length_a       11.0206
_cell_length_b       13.4639
_cell_length_c       14.7679
_cell_angle_alpha    99.1444
_cell_angle_beta     89.9916
_cell_angle_gamma    90.0106

_space_group_name_H-M_alt    "P 1"
_space_group_IT_number       1

loop_
  _space_group_symop_operation_xyz
  'x, y, z'

loop_
  _atom_site_type_symbol
  _atom_site_label
  _atom_site_symmetry_multiplicity
  _atom_site_fract_x
  _atom_site_fract_y
  _atom_site_fract_z
  _atom_site_occupancy
  Ni  Ni1       1.0  0.00216  0.11435  0.04741  1.0000
  Ni  Ni2       1.0  0.50258  0.38502  0.95252  1.0000
  Ni  Ni3       1.0  0.99906  0.88607  0.95198  1.0000
  Ni  Ni4       1.0  0.49757  0.61501  0.04748  1.0000
  Ni  Ni5       1.0  0.85777  0.90527  0.13576  1.0000
  Ni  Ni6       1.0  0.35870  0.59469  0.86452  1.0000
  Ni  Ni7       1.0  0.14131  0.09392  0.86439  1.0000
  Ni  Ni8       1.0  0.64165  0.40528  0.13547  1.0000
  H   H1        1.0  0.14385  0.16794  0.17613  1.0000
  H   H2        1.0  0.64399  0.33215  0.82395  1.0000
  H   H3        1.0  0.85687  0.83265  0.82418  1.0000
  H   H4        1.0  0.35602  0.66787  0.17599  1.0000
  H   H5        1.0  0.05433  0.25847  0.16964  1.0000
  H   H6        1.0  0.55437  0.24139  0.82983  1.0000
  H   H7        1.0  0.94597  0.74171  0.83055  1.0000
  H   H8        1.0  0.44570  0.75869  0.17044  1.0000
  H   H9        1.0  0.69057  0.76170  0.12920  1.0000
  H   H10       1.0  0.18897  0.73679  0.87139  1.0000
  H   H11       1.0  0.30855  0.23829  0.87082  1.0000
  H   H12       1.0  0.80902  0.26149  0.12964  1.0000
  H   H13       1.0  0.63684  0.86860  0.16942  1.0000
  H   H14       1.0  0.13790  0.62960  0.82951  1.0000
  H   H15       1.0  0.36275  0.13166  0.83061  1.0000
  H   H16       1.0  0.86295  0.36838  0.16962  1.0000
  H   H17       1.0  0.92005  0.04160  0.88363  1.0000
  H   H18       1.0  0.42197  0.45926  0.11609  1.0000
  H   H19       1.0  0.07774  0.95948  0.11629  1.0000
  H   H20       1.0  0.57830  0.54070  0.88391  1.0000
  H   H21       1.0  0.64021  0.08169  0.95097  1.0000
  H   H22       1.0  0.13987  0.41875  0.04917  1.0000
  H   H23       1.0  0.36109  0.91825  0.04907  1.0000
  H   H24       1.0  0.86004  0.58152  0.95071  1.0000
  H   H25       1.0  0.60604  0.90871  0.05829  1.0000
  H   H26       1.0  0.10577  0.59144  0.94149  1.0000
  H   H27       1.0  0.39438  0.09111  0.94150  1.0000
  H   H28       1.0  0.89424  0.40884  0.05839  1.0000
  H   H29       1.0  0.50134  0.08954  0.13143  1.0000
  H   H30       1.0  0.00143  0.41033  0.86852  1.0000
  H   H31       1.0  0.49921  0.91044  0.86832  1.0000
  H   H32       1.0  0.99858  0.58989  0.13133  1.0000
  H   H33       1.0  0.88989  0.79181  0.28830  1.0000
  H   H34       1.0  0.39001  0.70809  0.71156  1.0000
  H   H35       1.0  0.11026  0.20774  0.71163  1.0000
  H   H36       1.0  0.61013  0.29189  0.28839  1.0000
  H   H37       1.0  0.95212  0.82685  0.45142  1.0000
  H   H38       1.0  0.45207  0.67295  0.54837  1.0000
  H   H39       1.0  0.04798  0.17283  0.54846  1.0000
  H   H40       1.0  0.54793  0.32698  0.45155  1.0000
  H   H41       1.0  0.99350  0.13948  0.41834  1.0000
  H   H42       1.0  0.49370  0.36043  0.58166  1.0000
  H   H43       1.0  0.00631  0.86020  0.58141  1.0000
  H   H44       1.0  0.50629  0.63952  0.41831  1.0000
  H   H45       1.0  0.92707  0.09075  0.25819  1.0000
  H   H46       1.0  0.42764  0.40928  0.74188  1.0000
  H   H47       1.0  0.07263  0.90880  0.74155  1.0000
  H   H48       1.0  0.57242  0.59071  0.25810  1.0000
  C   C1        1.0  0.62224  0.05119  0.01454  1.0000
  C   C2        1.0  0.12209  0.44907  0.98548  1.0000
  C   C3        1.0  0.37860  0.94864  0.98539  1.0000
  C   C4        1.0  0.87789  0.55118  0.01438  1.0000
  C   C5        1.0  0.60851  0.93606  0.99246  1.0000
  C   C6        1.0  0.10811  0.56420  0.00736  1.0000
  C   C7        1.0  0.39210  0.06383  0.00737  1.0000
  C   C8        1.0  0.89192  0.43605  0.99250  1.0000
  C   C9        1.0  0.50667  0.10166  0.05971  1.0000
  C   C10       1.0  0.00668  0.39834  0.94027  1.0000
  C   C11       1.0  0.49396  0.89829  0.94003  1.0000
  C   C12       1.0  0.99335  0.60191  0.05958  1.0000
  C   C13       1.0  0.73278  0.07493  0.07843  1.0000
  C   C14       1.0  0.23302  0.42545  0.92196  1.0000
  C   C15       1.0  0.26711  0.92552  0.92250  1.0000
  C   C16       1.0  0.76698  0.57476  0.07797  1.0000
  C   C17       1.0  0.72344  0.89470  0.94252  1.0000
  C   C18       1.0  0.22282  0.60576  0.05751  1.0000
  C   C19       1.0  0.27719  0.10517  0.05749  1.0000
  C   C20       1.0  0.77722  0.39443  0.94239  1.0000
  C   C21       1.0  0.52028  0.21442  0.05739  1.0000
  C   C22       1.0  0.02054  0.28557  0.94266  1.0000
  C   C23       1.0  0.48004  0.78556  0.94239  1.0000
  C   C24       1.0  0.97953  0.71467  0.05720  1.0000
  C   C25       1.0  0.91304  0.86771  0.32107  1.0000
  C   C26       1.0  0.41321  0.63220  0.67882  1.0000
  C   C27       1.0  0.08699  0.13188  0.67881  1.0000
  C   C28       1.0  0.58688  0.36778  0.32112  1.0000
  C   C29       1.0  0.94870  0.88873  0.41221  1.0000
  C   C30       1.0  0.44875  0.61112  0.58764  1.0000
  C   C31       1.0  0.05133  0.11094  0.58765  1.0000
  C   C32       1.0  0.55126  0.38882  0.41229  1.0000
  C   C33       1.0  0.97996  0.98743  0.45164  1.0000
  C   C34       1.0  0.48001  0.51242  0.54825  1.0000
  C   C35       1.0  0.02002  0.01228  0.54817  1.0000
  C   C36       1.0  0.51998  0.48751  0.45169  1.0000
  C   C37       1.0  0.97115  0.06100  0.39426  1.0000
  C   C38       1.0  0.47136  0.43891  0.60570  1.0000
  C   C39       1.0  0.02871  0.93866  0.60551  1.0000
  C   C40       1.0  0.52865  0.56104  0.39425  1.0000
  C   C41       1.0  0.93392  0.03484  0.30377  1.0000
  C   C42       1.0  0.43429  0.46514  0.69623  1.0000
  C   C43       1.0  0.06592  0.96474  0.69599  1.0000
  C   C44       1.0  0.56575  0.53483  0.30374  1.0000
  N   N1        1.0  0.90603  0.93945  0.26727  1.0000
  N   N2        1.0  0.40642  0.56052  0.73271  1.0000
  N   N3        1.0  0.09387  0.06009  0.73256  1.0000
  N   N4        1.0  0.59368  0.43946  0.26725  1.0000
  O   O1        1.0  0.05505  0.18981  0.18288  1.0000
  O   O2        1.0  0.55508  0.31029  0.81724  1.0000
  O   O3        1.0  0.94567  0.81038  0.81734  1.0000
  O   O4        1.0  0.44495  0.68968  0.18273  1.0000
  O   O5        1.0  0.70511  0.82380  0.17402  1.0000
  O   O6        1.0  0.20505  0.67582  0.82583  1.0000
  O   O7        1.0  0.29412  0.17611  0.82611  1.0000
  O   O8        1.0  0.79443  0.32382  0.17419  1.0000
  O   O9        1.0  0.81096  0.13661  0.05543  1.0000
  O   O10       1.0  0.31125  0.36407  0.94530  1.0000
  O   O11       1.0  0.18798  0.86582  0.94743  1.0000
  O   O12       1.0  0.68875  0.63617  0.05465  1.0000
  O   O13       1.0  0.74050  0.03030  0.14780  1.0000
  O   O14       1.0  0.24105  0.47004  0.85255  1.0000
  O   O15       1.0  0.25909  0.96962  0.85282  1.0000
  O   O16       1.0  0.75899  0.53014  0.14733  1.0000
  O   O17       1.0  0.81692  0.88506  0.99360  1.0000
  O   O18       1.0  0.31644  0.61520  0.00645  1.0000
  O   O19       1.0  0.18346  0.11405  0.00640  1.0000
  O   O20       1.0  0.68365  0.38498  0.99348  1.0000
  O   O21       1.0  0.72665  0.87776  0.85637  1.0000
  O   O22       1.0  0.22567  0.62313  0.14361  1.0000
  O   O23       1.0  0.27447  0.12287  0.14357  1.0000
  O   O24       1.0  0.77433  0.37704  0.85628  1.0000
  O   O25       1.0  0.56018  0.26920  0.12893  1.0000
  O   O26       1.0  0.06045  0.23082  0.87109  1.0000
  O   O27       1.0  0.43964  0.73091  0.87093  1.0000
  O   O28       1.0  0.93915  0.76918  0.12875  1.0000
  O   O29       1.0  0.49489  0.24262  0.98130  1.0000
  O   O30       1.0  0.99530  0.25741  0.01880  1.0000
  O   O31       1.0  0.50547  0.75731  0.01843  1.0000
  O   O32       1.0  0.00519  0.74304  0.98124  1.0000
  O   O33       1.0  0.99403  0.02873  0.91584  1.0000
  O   O34       1.0  0.49618  0.47270  0.08422  1.0000
  O   O35       1.0  0.00324  0.97248  0.08460  1.0000
  O   O36       1.0  0.50403  0.52733  0.91574  1.0000
