data_image0
_chemical_formula_structural       Li4H64C32I4O16
_chemical_formula_sum              "Li4 H64 C32 I4 O16"
_cell_length_a       7.65983
_cell_length_b       10.2773
_cell_length_c       15.0345
_cell_angle_alpha    89.9999
_cell_angle_beta     100.44
_cell_angle_gamma    90

_space_group_name_H-M_alt    "P 1"
_space_group_IT_number       1

loop_
  _space_group_symop_operation_xyz
  'x, y, z'

loop_
  _atom_site_type_symbol
  _atom_site_label
  _atom_site_symmetry_multiplicity
  _atom_site_fract_x
  _atom_site_fract_y
  _atom_site_fract_z
  _atom_site_occupancy
  Li  Li1       1.0  0.46871  0.11065  0.23248  1.0000
  Li  Li2       1.0  0.03130  0.61065  0.26752  1.0000
  Li  Li3       1.0  0.53130  0.88935  0.76752  1.0000
  Li  Li4       1.0  0.96870  0.38935  0.73248  1.0000
  H   H1        1.0  0.17184  0.24953  0.31104  1.0000
  H   H2        1.0  0.32816  0.74953  0.18896  1.0000
  H   H3        1.0  0.82816  0.75047  0.68896  1.0000
  H   H4        1.0  0.67184  0.25047  0.81104  1.0000
  H   H5        1.0  0.38850  0.31024  0.35621  1.0000
  H   H6        1.0  0.11150  0.81024  0.14379  1.0000
  H   H7        1.0  0.61150  0.68976  0.64379  1.0000
  H   H8        1.0  0.88850  0.18976  0.85621  1.0000
  H   H9        1.0  0.37648  0.22128  0.50641  1.0000
  H   H10       1.0  0.12352  0.72128  0.99358  1.0000
  H   H11       1.0  0.62352  0.77872  0.49359  1.0000
  H   H12       1.0  0.87648  0.27872  0.00641  1.0000
  H   H13       1.0  0.18410  0.31943  0.47052  1.0000
  H   H14       1.0  0.31590  0.81943  0.02948  1.0000
  H   H15       1.0  0.81590  0.68057  0.52948  1.0000
  H   H16       1.0  0.68410  0.18057  0.97052  1.0000
  H   H17       1.0  0.11605  0.92488  0.45329  1.0000
  H   H18       1.0  0.38395  0.42488  0.04671  1.0000
  H   H19       1.0  0.88395  0.07512  0.54671  1.0000
  H   H20       1.0  0.61605  0.57512  0.95330  1.0000
  H   H21       1.0  0.33564  0.98246  0.49469  1.0000
  H   H22       1.0  0.16437  0.48246  0.00531  1.0000
  H   H23       1.0  0.66437  0.01754  0.50531  1.0000
  H   H24       1.0  0.83563  0.51754  0.99469  1.0000
  H   H25       1.0  0.31938  0.91365  0.33716  1.0000
  H   H26       1.0  0.18062  0.41365  0.16284  1.0000
  H   H27       1.0  0.68062  0.08635  0.66284  1.0000
  H   H28       1.0  0.81938  0.58635  0.83716  1.0000
  H   H29       1.0  0.13127  0.01593  0.29966  1.0000
  H   H30       1.0  0.36873  0.51593  0.20034  1.0000
  H   H31       1.0  0.86873  0.98406  0.70034  1.0000
  H   H32       1.0  0.63127  0.48407  0.79966  1.0000
  H   H33       1.0  0.65602  0.95178  0.36902  1.0000
  H   H34       1.0  0.84398  0.45178  0.13098  1.0000
  H   H35       1.0  0.34398  0.04822  0.63098  1.0000
  H   H36       1.0  0.15602  0.54822  0.86902  1.0000
  H   H37       1.0  0.84875  0.98466  0.32105  1.0000
  H   H38       1.0  0.65125  0.48466  0.17895  1.0000
  H   H39       1.0  0.15125  0.01534  0.67895  1.0000
  H   H40       1.0  0.34875  0.51534  0.82105  1.0000
  H   H41       1.0  0.87111  0.76040  0.37992  1.0000
  H   H42       1.0  0.62889  0.26040  0.12008  1.0000
  H   H43       1.0  0.12889  0.23960  0.62008  1.0000
  H   H44       1.0  0.37111  0.73960  0.87992  1.0000
  H   H45       1.0  0.65277  0.72296  0.31810  1.0000
  H   H46       1.0  0.84723  0.22296  0.18190  1.0000
  H   H47       1.0  0.34724  0.27704  0.68190  1.0000
  H   H48       1.0  0.15277  0.77704  0.81810  1.0000
  H   H49       1.0  0.61859  0.71698  0.15174  1.0000
  H   H50       1.0  0.88141  0.21698  0.34826  1.0000
  H   H51       1.0  0.38141  0.28302  0.84826  1.0000
  H   H52       1.0  0.11859  0.78302  0.65174  1.0000
  H   H53       1.0  0.81032  0.75175  0.10350  1.0000
  H   H54       1.0  0.68968  0.25175  0.39650  1.0000
  H   H55       1.0  0.18968  0.24825  0.89650  1.0000
  H   H56       1.0  0.31032  0.74825  0.60350  1.0000
  H   H57       1.0  0.81363  0.97948  0.15514  1.0000
  H   H58       1.0  0.68637  0.47948  0.34486  1.0000
  H   H59       1.0  0.18637  0.02052  0.84486  1.0000
  H   H60       1.0  0.31363  0.52052  0.65514  1.0000
  H   H61       1.0  0.59661  0.94317  0.09312  1.0000
  H   H62       1.0  0.90339  0.44316  0.40688  1.0000
  H   H63       1.0  0.40339  0.05684  0.90688  1.0000
  H   H64       1.0  0.09661  0.55684  0.59312  1.0000
  C   C1        1.0  0.29269  0.23291  0.36215  1.0000
  C   C2        1.0  0.20731  0.73291  0.13784  1.0000
  C   C3        1.0  0.70731  0.76709  0.63784  1.0000
  C   C4        1.0  0.79269  0.26709  0.86216  1.0000
  C   C5        1.0  0.25144  0.22929  0.45670  1.0000
  C   C6        1.0  0.24856  0.72929  0.04330  1.0000
  C   C7        1.0  0.74856  0.77071  0.54330  1.0000
  C   C8        1.0  0.75144  0.27071  0.95670  1.0000
  C   C9        1.0  0.21167  0.00172  0.44585  1.0000
  C   C10       1.0  0.28833  0.50172  0.05415  1.0000
  C   C11       1.0  0.78833  0.99828  0.55415  1.0000
  C   C12       1.0  0.71167  0.49828  0.94585  1.0000
  C   C13       1.0  0.25287  0.00403  0.35115  1.0000
  C   C14       1.0  0.24713  0.50403  0.14885  1.0000
  C   C15       1.0  0.74713  0.99597  0.64885  1.0000
  C   C16       1.0  0.75286  0.49597  0.85115  1.0000
  C   C17       1.0  0.72742  0.92506  0.31476  1.0000
  C   C18       1.0  0.77258  0.42507  0.18524  1.0000
  C   C19       1.0  0.27258  0.07494  0.68524  1.0000
  C   C20       1.0  0.22742  0.57494  0.81476  1.0000
  C   C21       1.0  0.77348  0.78212  0.31881  1.0000
  C   C22       1.0  0.72652  0.28212  0.18119  1.0000
  C   C23       1.0  0.22652  0.21788  0.68119  1.0000
  C   C24       1.0  0.27348  0.71788  0.81881  1.0000
  C   C25       1.0  0.73940  0.77704  0.15829  1.0000
  C   C26       1.0  0.76060  0.27704  0.34171  1.0000
  C   C27       1.0  0.26060  0.22296  0.84171  1.0000
  C   C28       1.0  0.23940  0.72296  0.65829  1.0000
  C   C29       1.0  0.69308  0.92016  0.15435  1.0000
  C   C30       1.0  0.80691  0.42015  0.34565  1.0000
  C   C31       1.0  0.30692  0.07985  0.84565  1.0000
  C   C32       1.0  0.19309  0.57985  0.65435  1.0000
  I   I1        1.0  0.20955  0.12510  0.09016  1.0000
  I   I2        1.0  0.29044  0.62509  0.40985  1.0000
  I   I3        1.0  0.79044  0.87491  0.90985  1.0000
  I   I4        1.0  0.70956  0.37491  0.59015  1.0000
  O   O1        1.0  0.37185  0.11063  0.34215  1.0000
  O   O2        1.0  0.12815  0.61063  0.15785  1.0000
  O   O3        1.0  0.62815  0.88936  0.65785  1.0000
  O   O4        1.0  0.87185  0.38937  0.84215  1.0000
  O   O5        1.0  0.13489  0.12267  0.46706  1.0000
  O   O6        1.0  0.36511  0.62267  0.03294  1.0000
  O   O7        1.0  0.86511  0.87733  0.53294  1.0000
  O   O8        1.0  0.63489  0.37733  0.96707  1.0000
  O   O9        1.0  0.61116  0.95496  0.23060  1.0000
  O   O10       1.0  0.88884  0.45496  0.26940  1.0000
  O   O11       1.0  0.38884  0.04504  0.76939  1.0000
  O   O12       1.0  0.11116  0.54504  0.73060  1.0000
  O   O13       1.0  0.64454  0.24754  0.25708  1.0000
  O   O14       1.0  0.85546  0.74754  0.24292  1.0000
  O   O15       1.0  0.35547  0.75246  0.74292  1.0000
  O   O16       1.0  0.14454  0.25246  0.75708  1.0000
