data_image0
_chemical_formula_structural       Cu4H28C28S4N16Cl4
_chemical_formula_sum              "Cu4 H28 C28 S4 N16 Cl4"
_cell_length_a       7.11936
_cell_length_b       7.92013
_cell_length_c       22.2895
_cell_angle_alpha    89.9986
_cell_angle_beta     90
_cell_angle_gamma    96.2832

_space_group_name_H-M_alt    "P 1"
_space_group_IT_number       1

loop_
  _space_group_symop_operation_xyz
  'x, y, z'

loop_
  _atom_site_type_symbol
  _atom_site_label
  _atom_site_symmetry_multiplicity
  _atom_site_fract_x
  _atom_site_fract_y
  _atom_site_fract_z
  _atom_site_occupancy
  Cu  Cu1       1.0  0.59749  0.42111  0.70640  1.0000
  Cu  Cu2       1.0  0.90251  0.57889  0.20640  1.0000
  Cu  Cu3       1.0  0.40251  0.57889  0.29360  1.0000
  Cu  Cu4       1.0  0.09749  0.42111  0.79360  1.0000
  H   H1        1.0  0.54841  0.36290  0.48184  1.0000
  H   H2        1.0  0.95157  0.63708  0.98185  1.0000
  H   H3        1.0  0.45160  0.63710  0.51815  1.0000
  H   H4        1.0  0.04841  0.36290  0.01815  1.0000
  H   H5        1.0  0.63934  0.18006  0.51241  1.0000
  H   H6        1.0  0.86065  0.81993  0.01241  1.0000
  H   H7        1.0  0.36068  0.81994  0.48758  1.0000
  H   H8        1.0  0.13934  0.18006  0.98759  1.0000
  H   H9        1.0  0.58028  0.54684  0.83846  1.0000
  H   H10       1.0  0.91970  0.45317  0.33846  1.0000
  H   H11       1.0  0.41969  0.45315  0.16154  1.0000
  H   H12       1.0  0.08031  0.54686  0.66154  1.0000
  H   H13       1.0  0.49823  0.81862  0.88623  1.0000
  H   H14       1.0  0.00175  0.18140  0.38624  1.0000
  H   H15       1.0  0.50177  0.18137  0.11377  1.0000
  H   H16       1.0  0.99826  0.81863  0.61378  1.0000
  H   H17       1.0  0.42279  0.05755  0.81852  1.0000
  H   H18       1.0  0.07720  0.94246  0.31854  1.0000
  H   H19       1.0  0.57722  0.94244  0.18147  1.0000
  H   H20       1.0  0.92279  0.05756  0.68147  1.0000
  H   H21       1.0  0.42421  0.01480  0.70817  1.0000
  H   H22       1.0  0.07579  0.98520  0.20819  1.0000
  H   H23       1.0  0.57579  0.98521  0.29182  1.0000
  H   H24       1.0  0.92420  0.01480  0.79182  1.0000
  H   H25       1.0  0.47311  0.81461  0.61862  1.0000
  H   H26       1.0  0.02689  0.18538  0.11863  1.0000
  H   H27       1.0  0.52689  0.18539  0.38138  1.0000
  H   H28       1.0  0.97311  0.81460  0.88137  1.0000
  C   C1        1.0  0.54498  0.65457  0.81181  1.0000
  C   C2        1.0  0.95501  0.34544  0.31182  1.0000
  C   C3        1.0  0.45501  0.34541  0.18818  1.0000
  C   C4        1.0  0.04500  0.65459  0.68819  1.0000
  C   C5        1.0  0.49978  0.80569  0.83757  1.0000
  C   C6        1.0  0.00021  0.19432  0.33758  1.0000
  C   C7        1.0  0.50022  0.19430  0.16243  1.0000
  C   C8        1.0  0.99980  0.80571  0.66243  1.0000
  C   C9        1.0  0.45722  0.93740  0.80014  1.0000
  C   C10       1.0  0.04278  0.06261  0.30016  1.0000
  C   C11       1.0  0.54279  0.06260  0.19985  1.0000
  C   C12       1.0  0.95722  0.93741  0.69985  1.0000
  C   C13       1.0  0.45870  0.91423  0.73824  1.0000
  C   C14       1.0  0.04130  0.08577  0.23826  1.0000
  C   C15       1.0  0.54129  0.08576  0.26175  1.0000
  C   C16       1.0  0.95870  0.91423  0.76175  1.0000
  C   C17       1.0  0.50429  0.75968  0.71538  1.0000
  C   C18       1.0  0.99571  0.24033  0.21539  1.0000
  C   C19       1.0  0.49572  0.24032  0.28462  1.0000
  C   C20       1.0  0.00428  0.75967  0.78462  1.0000
  C   C21       1.0  0.50519  0.72083  0.65200  1.0000
  C   C22       1.0  0.99481  0.27917  0.15201  1.0000
  C   C23       1.0  0.49482  0.27916  0.34799  1.0000
  C   C24       1.0  0.00518  0.72082  0.84800  1.0000
  C   C25       1.0  0.59855  0.36049  0.57409  1.0000
  C   C26       1.0  0.90145  0.63949  0.07410  1.0000
  C   C27       1.0  0.40146  0.63951  0.42590  1.0000
  C   C28       1.0  0.09855  0.36050  0.92590  1.0000
  S   S1        1.0  0.67154  0.24039  0.63278  1.0000
  S   S2        1.0  0.82848  0.75960  0.13278  1.0000
  S   S3        1.0  0.32846  0.75962  0.36722  1.0000
  S   S4        1.0  0.17153  0.24040  0.86721  1.0000
  N   N1        1.0  0.54836  0.63282  0.75238  1.0000
  N   N2        1.0  0.95164  0.36719  0.25239  1.0000
  N   N3        1.0  0.45164  0.36717  0.24761  1.0000
  N   N4        1.0  0.04837  0.63283  0.74761  1.0000
  N   N5        1.0  0.54470  0.56931  0.63722  1.0000
  N   N6        1.0  0.95529  0.43070  0.13723  1.0000
  N   N7        1.0  0.45531  0.43069  0.36277  1.0000
  N   N8        1.0  0.04470  0.56929  0.86277  1.0000
  N   N9        1.0  0.54418  0.51741  0.58014  1.0000
  N   N10       1.0  0.95582  0.48257  0.08015  1.0000
  N   N11       1.0  0.45583  0.48259  0.41986  1.0000
  N   N12       1.0  0.04417  0.51741  0.91985  1.0000
  N   N13       1.0  0.59678  0.29668  0.51820  1.0000
  N   N14       1.0  0.90320  0.70329  0.01820  1.0000
  N   N15       1.0  0.40324  0.70331  0.48180  1.0000
  N   N16       1.0  0.09678  0.29669  0.98180  1.0000
  Cl  Cl1       1.0  0.74252  0.29589  0.78225  1.0000
  Cl  Cl2       1.0  0.75748  0.70411  0.28225  1.0000
  Cl  Cl3       1.0  0.25748  0.70411  0.21775  1.0000
  Cl  Cl4       1.0  0.24251  0.29589  0.71775  1.0000
