data_image0
_chemical_formula_structural       Zn4H48C44S4N16O16
_chemical_formula_sum              "Zn4 H48 C44 S4 N16 O16"
_cell_length_a       9.39812
_cell_length_b       12.7519
_cell_length_c       13.2352
_cell_angle_alpha    89.9997
_cell_angle_beta     90.0004
_cell_angle_gamma    107.798

_space_group_name_H-M_alt    "P 1"
_space_group_IT_number       1

loop_
  _space_group_symop_operation_xyz
  'x, y, z'

loop_
  _atom_site_type_symbol
  _atom_site_label
  _atom_site_symmetry_multiplicity
  _atom_site_fract_x
  _atom_site_fract_y
  _atom_site_fract_z
  _atom_site_occupancy
  Zn  Zn1       1.0  0.73795  0.33924  0.30235  1.0000
  Zn  Zn2       1.0  0.26205  0.16075  0.80235  1.0000
  Zn  Zn3       1.0  0.26205  0.66076  0.69765  1.0000
  Zn  Zn4       1.0  0.73795  0.83925  0.19765  1.0000
  H   H1        1.0  0.13322  0.87959  0.61388  1.0000
  H   H2        1.0  0.86678  0.62041  0.11389  1.0000
  H   H3        1.0  0.86678  0.12041  0.38612  1.0000
  H   H4        1.0  0.13322  0.37959  0.88612  1.0000
  H   H5        1.0  0.25496  0.00920  0.65280  1.0000
  H   H6        1.0  0.74504  0.49080  0.15281  1.0000
  H   H7        1.0  0.74505  0.99080  0.34720  1.0000
  H   H8        1.0  0.25496  0.50920  0.84719  1.0000
  H   H9        1.0  0.79984  0.95176  0.63777  1.0000
  H   H10       1.0  0.20016  0.54824  0.13777  1.0000
  H   H11       1.0  0.20016  0.04824  0.36223  1.0000
  H   H12       1.0  0.79984  0.45176  0.86223  1.0000
  H   H13       1.0  0.65167  0.79075  0.54981  1.0000
  H   H14       1.0  0.34833  0.70924  0.04981  1.0000
  H   H15       1.0  0.34833  0.20925  0.45020  1.0000
  H   H16       1.0  0.65167  0.29075  0.95019  1.0000
  H   H17       1.0  0.52538  0.63834  0.43737  1.0000
  H   H18       1.0  0.47461  0.86165  0.93737  1.0000
  H   H19       1.0  0.47461  0.36166  0.56263  1.0000
  H   H20       1.0  0.52540  0.13835  0.06263  1.0000
  H   H21       1.0  0.52655  0.46953  0.34116  1.0000
  H   H22       1.0  0.47344  0.03047  0.84116  1.0000
  H   H23       1.0  0.47344  0.53047  0.65884  1.0000
  H   H24       1.0  0.52656  0.96953  0.15884  1.0000
  H   H25       1.0  0.97173  0.51615  0.40819  1.0000
  H   H26       1.0  0.02826  0.98385  0.90820  1.0000
  H   H27       1.0  0.02827  0.48385  0.59180  1.0000
  H   H28       1.0  0.97174  0.01615  0.09180  1.0000
  H   H29       1.0  0.98652  0.68171  0.51498  1.0000
  H   H30       1.0  0.01348  0.81828  0.01498  1.0000
  H   H31       1.0  0.01348  0.31829  0.48502  1.0000
  H   H32       1.0  0.98653  0.18172  0.98502  1.0000
  H   H33       1.0  0.27479  0.20954  0.18001  1.0000
  H   H34       1.0  0.72520  0.29046  0.68002  1.0000
  H   H35       1.0  0.72521  0.79046  0.81998  1.0000
  H   H36       1.0  0.27480  0.70954  0.31998  1.0000
  H   H37       1.0  0.26933  0.33530  0.23271  1.0000
  H   H38       1.0  0.73067  0.16470  0.73272  1.0000
  H   H39       1.0  0.73067  0.66470  0.76728  1.0000
  H   H40       1.0  0.26933  0.83530  0.26728  1.0000
  H   H41       1.0  0.15253  0.33189  0.07050  1.0000
  H   H42       1.0  0.84747  0.16811  0.57051  1.0000
  H   H43       1.0  0.84746  0.66811  0.92950  1.0000
  H   H44       1.0  0.15254  0.83189  0.42949  1.0000
  H   H45       1.0  0.33716  0.42240  0.05544  1.0000
  H   H46       1.0  0.66284  0.07760  0.55544  1.0000
  H   H47       1.0  0.66284  0.57760  0.94456  1.0000
  H   H48       1.0  0.33716  0.92240  0.44456  1.0000
  C   C1        1.0  0.02966  0.99296  0.65580  1.0000
  C   C2        1.0  0.97034  0.50704  0.15581  1.0000
  C   C3        1.0  0.97035  0.00704  0.34420  1.0000
  C   C4        1.0  0.02966  0.49297  0.84420  1.0000
  C   C5        1.0  0.75773  0.77220  0.54029  1.0000
  C   C6        1.0  0.24226  0.72779  0.04028  1.0000
  C   C7        1.0  0.24226  0.22780  0.45971  1.0000
  C   C8        1.0  0.75774  0.27220  0.95971  1.0000
  C   C9        1.0  0.75629  0.67379  0.48360  1.0000
  C   C10       1.0  0.24370  0.82620  0.98360  1.0000
  C   C11       1.0  0.24370  0.32621  0.51640  1.0000
  C   C12       1.0  0.75630  0.17379  0.01640  1.0000
  C   C13       1.0  0.62572  0.61281  0.43354  1.0000
  C   C14       1.0  0.37428  0.88719  0.93354  1.0000
  C   C15       1.0  0.37428  0.38719  0.56646  1.0000
  C   C16       1.0  0.62573  0.11281  0.06646  1.0000
  C   C17       1.0  0.62653  0.51981  0.37946  1.0000
  C   C18       1.0  0.37346  0.98019  0.87946  1.0000
  C   C19       1.0  0.37347  0.48020  0.62054  1.0000
  C   C20       1.0  0.62654  0.01981  0.12054  1.0000
  C   C21       1.0  0.87517  0.54562  0.41824  1.0000
  C   C22       1.0  0.12482  0.95437  0.91824  1.0000
  C   C23       1.0  0.12483  0.45438  0.58176  1.0000
  C   C24       1.0  0.87518  0.04562  0.08176  1.0000
  C   C25       1.0  0.88353  0.63786  0.47580  1.0000
  C   C26       1.0  0.11646  0.86214  0.97580  1.0000
  C   C27       1.0  0.11646  0.36214  0.52420  1.0000
  C   C28       1.0  0.88354  0.13786  0.02420  1.0000
  C   C29       1.0  0.48590  0.33691  0.18741  1.0000
  C   C30       1.0  0.51410  0.16309  0.68741  1.0000
  C   C31       1.0  0.51410  0.66309  0.81259  1.0000
  C   C32       1.0  0.48590  0.83691  0.31259  1.0000
  C   C33       1.0  0.31781  0.29932  0.17078  1.0000
  C   C34       1.0  0.68219  0.20068  0.67079  1.0000
  C   C35       1.0  0.68219  0.70068  0.82922  1.0000
  C   C36       1.0  0.31781  0.79933  0.32921  1.0000
  C   C37       1.0  0.27097  0.33605  0.06988  1.0000
  C   C38       1.0  0.72903  0.16395  0.56989  1.0000
  C   C39       1.0  0.72903  0.66396  0.93012  1.0000
  C   C40       1.0  0.27098  0.83605  0.43011  1.0000
  C   C41       1.0  0.30044  0.26922  0.98215  1.0000
  C   C42       1.0  0.69955  0.23078  0.48215  1.0000
  C   C43       1.0  0.69955  0.73078  0.01785  1.0000
  C   C44       1.0  0.30045  0.76922  0.51785  1.0000
  S   S1        1.0  0.03575  0.11561  0.71116  1.0000
  S   S2        1.0  0.96425  0.38438  0.21117  1.0000
  S   S3        1.0  0.96425  0.88438  0.28883  1.0000
  S   S4        1.0  0.03575  0.61562  0.78883  1.0000
  N   N1        1.0  0.14570  0.95813  0.64011  1.0000
  N   N2        1.0  0.85430  0.54187  0.14012  1.0000
  N   N3        1.0  0.85430  0.04187  0.35989  1.0000
  N   N4        1.0  0.14570  0.45814  0.85989  1.0000
  N   N5        1.0  0.89160  0.92619  0.62541  1.0000
  N   N6        1.0  0.10840  0.57381  0.12542  1.0000
  N   N7        1.0  0.10840  0.07381  0.37459  1.0000
  N   N8        1.0  0.89161  0.42619  0.87459  1.0000
  N   N9        1.0  0.88458  0.83358  0.57458  1.0000
  N   N10       1.0  0.11542  0.66641  0.07459  1.0000
  N   N11       1.0  0.11543  0.16642  0.42542  1.0000
  N   N12       1.0  0.88458  0.33359  0.92542  1.0000
  N   N13       1.0  0.74854  0.48643  0.37113  1.0000
  N   N14       1.0  0.25145  0.01356  0.87113  1.0000
  N   N15       1.0  0.25146  0.51357  0.62887  1.0000
  N   N16       1.0  0.74854  0.98644  0.12887  1.0000
  O   O1        1.0  0.53636  0.27544  0.24646  1.0000
  O   O2        1.0  0.46364  0.22455  0.74647  1.0000
  O   O3        1.0  0.46364  0.72456  0.75354  1.0000
  O   O4        1.0  0.53636  0.77545  0.25354  1.0000
  O   O5        1.0  0.56363  0.42623  0.14921  1.0000
  O   O6        1.0  0.43637  0.07377  0.64921  1.0000
  O   O7        1.0  0.43637  0.57377  0.85078  1.0000
  O   O8        1.0  0.56363  0.92623  0.35079  1.0000
  O   O9        1.0  0.39983  0.22340  0.98687  1.0000
  O   O10       1.0  0.60017  0.27660  0.48688  1.0000
  O   O11       1.0  0.60017  0.77660  0.01313  1.0000
  O   O12       1.0  0.39983  0.72340  0.51312  1.0000
  O   O13       1.0  0.21462  0.26221  0.90289  1.0000
  O   O14       1.0  0.78537  0.23779  0.40289  1.0000
  O   O15       1.0  0.78538  0.73779  0.09711  1.0000
  O   O16       1.0  0.21463  0.76221  0.59710  1.0000
