data_image0
_chemical_formula_structural       Ca2H36C20N4Cl4O8F4
_chemical_formula_sum              "Ca2 H36 C20 N4 Cl4 O8 F4"
_cell_length_a       5.80998
_cell_length_b       8.95825
_cell_length_c       16.4907
_cell_angle_alpha    89.9992
_cell_angle_beta     97.3694
_cell_angle_gamma    90.0008

_space_group_name_H-M_alt    "P 1"
_space_group_IT_number       1

loop_
  _space_group_symop_operation_xyz
  'x, y, z'

loop_
  _atom_site_type_symbol
  _atom_site_label
  _atom_site_symmetry_multiplicity
  _atom_site_fract_x
  _atom_site_fract_y
  _atom_site_fract_z
  _atom_site_occupancy
  Ca  Ca1       1.0  0.96755  0.57374  0.89034  1.0000
  Ca  Ca2       1.0  0.03246  0.07372  0.10966  1.0000
  H   H1        1.0  0.60363  0.88041  0.81532  1.0000
  H   H2        1.0  0.39637  0.38039  0.18467  1.0000
  H   H3        1.0  0.29171  0.07169  0.69116  1.0000
  H   H4        1.0  0.70828  0.57169  0.30883  1.0000
  H   H5        1.0  0.48745  0.13783  0.77343  1.0000
  H   H6        1.0  0.51252  0.63780  0.22656  1.0000
  H   H7        1.0  0.14103  0.84609  0.63075  1.0000
  H   H8        1.0  0.85895  0.34609  0.36925  1.0000
  H   H9        1.0  0.05458  0.71476  0.70254  1.0000
  H   H10       1.0  0.94542  0.21476  0.29746  1.0000
  H   H11       1.0  0.59522  0.49635  0.62866  1.0000
  H   H12       1.0  0.40477  0.99635  0.37134  1.0000
  H   H13       1.0  0.40323  0.44620  0.70016  1.0000
  H   H14       1.0  0.59677  0.94619  0.29984  1.0000
  H   H15       1.0  0.31527  0.66263  0.55632  1.0000
  H   H16       1.0  0.68473  0.16264  0.44368  1.0000
  H   H17       1.0  0.82398  0.03306  0.71280  1.0000
  H   H18       1.0  0.17604  0.53300  0.28721  1.0000
  H   H19       1.0  0.65833  0.15333  0.64251  1.0000
  H   H20       1.0  0.34166  0.65330  0.35749  1.0000
  H   H21       1.0  0.63442  0.95722  0.62950  1.0000
  H   H22       1.0  0.36561  0.45720  0.37050  1.0000
  H   H23       1.0  0.01087  0.43121  0.63236  1.0000
  H   H24       1.0  0.98915  0.93121  0.36764  1.0000
  H   H25       1.0  0.02958  0.01798  0.89207  1.0000
  H   H26       1.0  0.97041  0.51797  0.10793  1.0000
  H   H27       1.0  0.19306  0.12501  0.83237  1.0000
  H   H28       1.0  0.80695  0.62499  0.16763  1.0000
  H   H29       1.0  0.58116  0.65162  0.98684  1.0000
  H   H30       1.0  0.41886  0.15162  0.01316  1.0000
  H   H31       1.0  0.69870  0.80834  0.97442  1.0000
  H   H32       1.0  0.30131  0.30834  0.02558  1.0000
  H   H33       1.0  0.73325  0.27931  0.92840  1.0000
  H   H34       1.0  0.26676  0.77930  0.07159  1.0000
  H   H35       1.0  0.54010  0.38317  0.88305  1.0000
  H   H36       1.0  0.45991  0.88317  0.11694  1.0000
  C   C1        1.0  0.24950  0.89453  0.83267  1.0000
  C   C2        1.0  0.75051  0.39452  0.16732  1.0000
  C   C3        1.0  0.55793  0.65653  0.72399  1.0000
  C   C4        1.0  0.44206  0.15651  0.27601  1.0000
  C   C5        1.0  0.43934  0.90035  0.77539  1.0000
  C   C6        1.0  0.56068  0.40033  0.22460  1.0000
  C   C7        1.0  0.45806  0.04689  0.72861  1.0000
  C   C8        1.0  0.54190  0.54687  0.27139  1.0000
  C   C9        1.0  0.19404  0.74584  0.66649  1.0000
  C   C10       1.0  0.80597  0.24582  0.33352  1.0000
  C   C11       1.0  0.46162  0.53870  0.66369  1.0000
  C   C12       1.0  0.53838  0.03869  0.33632  1.0000
  C   C13       1.0  0.25620  0.61507  0.61153  1.0000
  C   C14       1.0  0.74378  0.11509  0.38846  1.0000
  C   C15       1.0  0.65475  0.04685  0.67538  1.0000
  C   C16       1.0  0.34523  0.54682  0.32463  1.0000
  C   C17       1.0  0.91248  0.52540  0.51851  1.0000
  C   C18       1.0  0.08750  0.02541  0.48150  1.0000
  C   C19       1.0  0.05298  0.51433  0.58821  1.0000
  C   C20       1.0  0.94699  0.01434  0.41179  1.0000
  N   N1        1.0  0.40911  0.77240  0.72071  1.0000
  N   N2        1.0  0.59090  0.27237  0.27929  1.0000
  N   N3        1.0  0.14821  0.02074  0.85103  1.0000
  N   N4        1.0  0.85182  0.52075  0.14897  1.0000
  Cl  Cl1       1.0  0.27326  0.54661  0.03316  1.0000
  Cl  Cl2       1.0  0.72675  0.04661  0.96684  1.0000
  Cl  Cl3       1.0  0.20666  0.36790  0.81463  1.0000
  Cl  Cl4       1.0  0.79335  0.86790  0.18537  1.0000
  O   O1        1.0  0.74490  0.64869  0.77057  1.0000
  O   O2        1.0  0.25509  0.14869  0.22943  1.0000
  O   O3        1.0  0.19675  0.77024  0.86014  1.0000
  O   O4        1.0  0.80326  0.27023  0.13986  1.0000
  O   O5        1.0  0.71846  0.69964  0.96890  1.0000
  O   O6        1.0  0.28155  0.19964  0.03110  1.0000
  O   O7        1.0  0.70181  0.38345  0.91122  1.0000
  O   O8        1.0  0.29821  0.88344  0.08877  1.0000
  F   F1        1.0  0.93408  0.62273  0.45789  1.0000
  F   F2        1.0  0.06587  0.12272  0.54213  1.0000
  F   F3        1.0  0.72251  0.44035  0.49753  1.0000
  F   F4        1.0  0.27748  0.94033  0.50247  1.0000
