data_image0
_chemical_formula_structural       Cu2H30C28N6Cl2O4
_chemical_formula_sum              "Cu2 H30 C28 N6 Cl2 O4"
_cell_length_a       7.76334
_cell_length_b       8.6303
_cell_length_c       11.0738
_cell_angle_alpha    87.3223
_cell_angle_beta     74.3639
_cell_angle_gamma    87.7202

_space_group_name_H-M_alt    "P 1"
_space_group_IT_number       1

loop_
  _space_group_symop_operation_xyz
  'x, y, z'

loop_
  _atom_site_type_symbol
  _atom_site_label
  _atom_site_symmetry_multiplicity
  _atom_site_fract_x
  _atom_site_fract_y
  _atom_site_fract_z
  _atom_site_occupancy
  Cu  Cu1       1.0  0.60803  0.93107  0.33797  1.0000
  Cu  Cu2       1.0  0.39197  0.06893  0.66203  1.0000
  H   H1        1.0  0.90720  0.63198  0.23960  1.0000
  H   H2        1.0  0.09280  0.36802  0.76040  1.0000
  H   H3        1.0  0.28103  0.99167  0.27835  1.0000
  H   H4        1.0  0.71896  0.00833  0.72165  1.0000
  H   H5        1.0  0.03008  0.84576  0.24326  1.0000
  H   H6        1.0  0.96992  0.15424  0.75674  1.0000
  H   H7        1.0  0.25444  0.43450  0.39323  1.0000
  H   H8        1.0  0.74557  0.56550  0.60677  1.0000
  H   H9        1.0  0.49147  0.59765  0.41973  1.0000
  H   H10       1.0  0.50854  0.40235  0.58027  1.0000
  H   H11       1.0  0.92319  0.04207  0.42578  1.0000
  H   H12       1.0  0.07681  0.95793  0.57423  1.0000
  H   H13       1.0  0.07465  0.28727  0.41359  1.0000
  H   H14       1.0  0.92535  0.71273  0.58642  1.0000
  H   H15       1.0  0.73120  0.47732  0.18825  1.0000
  H   H16       1.0  0.26881  0.52267  0.81174  1.0000
  H   H17       1.0  0.59824  0.21650  0.20765  1.0000
  H   H18       1.0  0.40177  0.78350  0.79234  1.0000
  H   H19       1.0  0.84232  0.85989  0.90381  1.0000
  H   H20       1.0  0.15768  0.14012  0.09619  1.0000
  H   H21       1.0  0.60748  0.89714  0.93842  1.0000
  H   H22       1.0  0.39252  0.10286  0.06158  1.0000
  H   H23       1.0  0.70049  0.64195  0.83653  1.0000
  H   H24       1.0  0.29951  0.35806  0.16347  1.0000
  H   H25       1.0  0.79900  0.58073  0.95759  1.0000
  H   H26       1.0  0.20101  0.41927  0.04240  1.0000
  H   H27       1.0  0.39812  0.65534  0.99250  1.0000
  H   H28       1.0  0.60189  0.34465  0.00749  1.0000
  H   H29       1.0  0.49496  0.59669  0.11393  1.0000
  H   H30       1.0  0.50505  0.40331  0.88607  1.0000
  C   C1        1.0  0.26910  0.86812  0.30198  1.0000
  C   C2        1.0  0.73090  0.13188  0.69803  1.0000
  C   C3        1.0  0.13019  0.78720  0.28313  1.0000
  C   C4        1.0  0.86981  0.21280  0.71687  1.0000
  C   C5        1.0  0.11774  0.62628  0.31340  1.0000
  C   C6        1.0  0.88225  0.37373  0.68661  1.0000
  C   C7        1.0  0.25026  0.55671  0.36533  1.0000
  C   C8        1.0  0.74974  0.44329  0.63467  1.0000
  C   C9        1.0  0.38604  0.64787  0.38080  1.0000
  C   C10       1.0  0.61396  0.35213  0.61920  1.0000
  C   C11       1.0  0.88724  0.14102  0.37192  1.0000
  C   C12       1.0  0.11276  0.85898  0.62808  1.0000
  C   C13       1.0  0.97139  0.28134  0.36471  1.0000
  C   C14       1.0  0.02861  0.71866  0.63529  1.0000
  C   C15       1.0  0.91562  0.40832  0.29871  1.0000
  C   C16       1.0  0.08438  0.59168  0.70129  1.0000
  C   C17       1.0  0.77768  0.38269  0.24118  1.0000
  C   C18       1.0  0.22232  0.61731  0.75882  1.0000
  C   C19       1.0  0.70323  0.23891  0.25214  1.0000
  C   C20       1.0  0.29677  0.76109  0.74786  1.0000
  C   C21       1.0  0.70957  0.84387  0.09797  1.0000
  C   C22       1.0  0.29044  0.15613  0.90203  1.0000
  C   C23       1.0  0.71137  0.82131  0.96244  1.0000
  C   C24       1.0  0.28864  0.17869  0.03756  1.0000
  C   C25       1.0  0.68809  0.65137  0.93734  1.0000
  C   C26       1.0  0.31192  0.34863  0.06266  1.0000
  C   C27       1.0  0.50962  0.58514  0.01289  1.0000
  C   C28       1.0  0.49039  0.41486  0.98711  1.0000
  N   N1        1.0  0.39804  0.80020  0.34962  1.0000
  N   N2        1.0  0.60196  0.19980  0.65038  1.0000
  N   N3        1.0  0.97755  0.55680  0.28544  1.0000
  N   N4        1.0  0.02245  0.44320  0.71457  1.0000
  N   N5        1.0  0.75568  0.11789  0.31731  1.0000
  N   N6        1.0  0.24433  0.88211  0.68269  1.0000
  Cl  Cl1       1.0  0.67096  0.82992  0.51493  1.0000
  Cl  Cl2       1.0  0.32904  0.17008  0.48507  1.0000
  O   O1        1.0  0.61422  0.95913  0.15312  1.0000
  O   O2        1.0  0.38578  0.04087  0.84688  1.0000
  O   O3        1.0  0.79641  0.75103  0.15219  1.0000
  O   O4        1.0  0.20359  0.24897  0.84781  1.0000
