data_image0
_chemical_formula_structural       CoH28C32S2N14
_chemical_formula_sum              "Co1 H28 C32 S2 N14"
_cell_length_a       9.12776
_cell_length_b       9.16812
_cell_length_c       11.4502
_cell_angle_alpha    89.601
_cell_angle_beta     65.0639
_cell_angle_gamma    79.5458

_space_group_name_H-M_alt    "P 1"
_space_group_IT_number       1

loop_
  _space_group_symop_operation_xyz
  'x, y, z'

loop_
  _atom_site_type_symbol
  _atom_site_label
  _atom_site_symmetry_multiplicity
  _atom_site_fract_x
  _atom_site_fract_y
  _atom_site_fract_z
  _atom_site_occupancy
  Co  Co1       1.0  0.99999  0.00000  0.00000  1.0000
  H   H1        1.0  0.76663  0.40638  0.94329  1.0000
  H   H2        1.0  0.23337  0.59362  0.05671  1.0000
  H   H3        1.0  0.95701  0.37710  0.70716  1.0000
  H   H4        1.0  0.04298  0.62291  0.29284  1.0000
  H   H5        1.0  0.13909  0.55197  0.60760  1.0000
  H   H6        1.0  0.86091  0.44804  0.39240  1.0000
  H   H7        1.0  0.14071  0.77097  0.73807  1.0000
  H   H8        1.0  0.85929  0.22903  0.26193  1.0000
  H   H9        1.0  0.65640  0.48238  0.18275  1.0000
  H   H10       1.0  0.34360  0.51762  0.81725  1.0000
  H   H11       1.0  0.63495  0.63316  0.28948  1.0000
  H   H12       1.0  0.36505  0.36684  0.71052  1.0000
  H   H13       1.0  0.72211  0.96026  0.32608  1.0000
  H   H14       1.0  0.27789  0.03974  0.67393  1.0000
  H   H15       1.0  0.63619  0.86535  0.54914  1.0000
  H   H16       1.0  0.36382  0.13464  0.45086  1.0000
  H   H17       1.0  0.83890  0.77555  0.63288  1.0000
  H   H18       1.0  0.16111  0.22444  0.36712  1.0000
  H   H19       1.0  0.13859  0.77620  0.50395  1.0000
  H   H20       1.0  0.86141  0.22379  0.49604  1.0000
  H   H21       1.0  0.40355  0.86225  0.33238  1.0000
  H   H22       1.0  0.59645  0.13775  0.66762  1.0000
  H   H23       1.0  0.48639  0.90021  0.16715  1.0000
  H   H24       1.0  0.51360  0.09979  0.83285  1.0000
  H   H25       1.0  0.37443  0.60567  0.26668  1.0000
  H   H26       1.0  0.62557  0.39433  0.73332  1.0000
  H   H27       1.0  0.46880  0.64509  0.10322  1.0000
  H   H28       1.0  0.53121  0.35491  0.89678  1.0000
  C   C1        1.0  0.84886  0.60791  0.96918  1.0000
  C   C2        1.0  0.15114  0.39209  0.03082  1.0000
  C   C3        1.0  0.84667  0.48502  0.89826  1.0000
  C   C4        1.0  0.15333  0.51499  0.10174  1.0000
  C   C5        1.0  0.95290  0.46973  0.76787  1.0000
  C   C6        1.0  0.04710  0.53027  0.23213  1.0000
  C   C7        1.0  0.05787  0.57133  0.71057  1.0000
  C   C8        1.0  0.94213  0.42867  0.28942  1.0000
  C   C9        1.0  0.05989  0.69286  0.78102  1.0000
  C   C10       1.0  0.94011  0.30714  0.21898  1.0000
  C   C11       1.0  0.95199  0.71102  0.91300  1.0000
  C   C12       1.0  0.04801  0.28898  0.08700  1.0000
  C   C13       1.0  0.63074  0.60408  0.19822  1.0000
  C   C14       1.0  0.36925  0.39592  0.80177  1.0000
  C   C15       1.0  0.97876  0.91813  0.29209  1.0000
  C   C16       1.0  0.02124  0.08187  0.70791  1.0000
  C   C17       1.0  0.81005  0.92095  0.36591  1.0000
  C   C18       1.0  0.18995  0.07904  0.63409  1.0000
  C   C19       1.0  0.76499  0.86798  0.48771  1.0000
  C   C20       1.0  0.23502  0.13202  0.51229  1.0000
  C   C21       1.0  0.88252  0.81463  0.53622  1.0000
  C   C22       1.0  0.11748  0.18536  0.46378  1.0000
  C   C23       1.0  0.04900  0.81409  0.46535  1.0000
  C   C24       1.0  0.95100  0.18589  0.53465  1.0000
  C   C25       1.0  0.09452  0.86781  0.34267  1.0000
  C   C26       1.0  0.90549  0.13218  0.65732  1.0000
  C   C27       1.0  0.40681  0.83443  0.23790  1.0000
  C   C28       1.0  0.59319  0.16556  0.76210  1.0000
  C   C29       1.0  0.46383  0.66726  0.19933  1.0000
  C   C30       1.0  0.53617  0.33274  0.80067  1.0000
  C   C31       1.0  0.65093  0.17360  0.13833  1.0000
  C   C32       1.0  0.34907  0.82640  0.86169  1.0000
  S   S1        1.0  0.46697  0.27171  0.18169  1.0000
  S   S2        1.0  0.53301  0.72829  0.81833  1.0000
  N   N1        1.0  0.91876  0.81774  0.01062  1.0000
  N   N2        1.0  0.08124  0.18226  0.98938  1.0000
  N   N3        1.0  0.80575  0.78554  0.11921  1.0000
  N   N4        1.0  0.19425  0.21446  0.88079  1.0000
  N   N5        1.0  0.76381  0.65922  0.09638  1.0000
  N   N6        1.0  0.23619  0.34078  0.90362  1.0000
  N   N7        1.0  0.06512  0.95753  0.16857  1.0000
  N   N8        1.0  0.93488  0.04247  0.83143  1.0000
  N   N9        1.0  0.22146  0.93766  0.14297  1.0000
  N   N10       1.0  0.77854  0.06234  0.85703  1.0000
  N   N11       1.0  0.24202  0.88442  0.24651  1.0000
  N   N12       1.0  0.75798  0.11558  0.75349  1.0000
  N   N13       1.0  0.78612  0.10339  0.10711  1.0000
  N   N14       1.0  0.21387  0.89662  0.89290  1.0000
