data_image0
_chemical_formula_structural       Ag4H20C28S4O20
_chemical_formula_sum              "Ag4 H20 C28 S4 O20"
_cell_length_a       5.86099
_cell_length_b       8.67767
_cell_length_c       15.8908
_cell_angle_alpha    93.6359
_cell_angle_beta     100.658
_cell_angle_gamma    89.9589

_space_group_name_H-M_alt    "P 1"
_space_group_IT_number       1

loop_
  _space_group_symop_operation_xyz
  'x, y, z'

loop_
  _atom_site_type_symbol
  _atom_site_label
  _atom_site_symmetry_multiplicity
  _atom_site_fract_x
  _atom_site_fract_y
  _atom_site_fract_z
  _atom_site_occupancy
  Ag  Ag1       1.0  0.10546  0.29014  0.46777  1.0000
  Ag  Ag2       1.0  0.63809  0.20990  0.53231  1.0000
  Ag  Ag3       1.0  0.89452  0.70986  0.53225  1.0000
  Ag  Ag4       1.0  0.36193  0.79005  0.46769  1.0000
  H   H1        1.0  0.78622  0.75698  0.22360  1.0000
  H   H2        1.0  0.56242  0.74321  0.77624  1.0000
  H   H3        1.0  0.21379  0.24300  0.77640  1.0000
  H   H4        1.0  0.43755  0.25677  0.22376  1.0000
  H   H5        1.0  0.07093  0.80156  0.10127  1.0000
  H   H6        1.0  0.97062  0.69861  0.89884  1.0000
  H   H7        1.0  0.92910  0.19848  0.89871  1.0000
  H   H8        1.0  0.02929  0.30145  0.10113  1.0000
  H   H9        1.0  0.01705  0.00457  0.21458  1.0000
  H   H10       1.0  0.80301  0.49552  0.78548  1.0000
  H   H11       1.0  0.98301  0.99548  0.78542  1.0000
  H   H12       1.0  0.19696  0.50453  0.21451  1.0000
  H   H13       1.0  0.33740  0.07159  0.33550  1.0000
  H   H14       1.0  0.00233  0.42862  0.66442  1.0000
  H   H15       1.0  0.66267  0.92839  0.66452  1.0000
  H   H16       1.0  0.99767  0.57134  0.33559  1.0000
  H   H17       1.0  0.68688  0.54787  0.02686  1.0000
  H   H18       1.0  0.65987  0.95254  0.97303  1.0000
  H   H19       1.0  0.31314  0.45214  0.97310  1.0000
  H   H20       1.0  0.34008  0.04748  0.02698  1.0000
  C   C1        1.0  0.58032  0.91713  0.28704  1.0000
  C   C2        1.0  0.29327  0.58307  0.71297  1.0000
  C   C3        1.0  0.41971  0.08285  0.71297  1.0000
  C   C4        1.0  0.70670  0.41693  0.28703  1.0000
  C   C5        1.0  0.61804  0.81093  0.22166  1.0000
  C   C6        1.0  0.39631  0.68936  0.77825  1.0000
  C   C7        1.0  0.38197  0.18905  0.77833  1.0000
  C   C8        1.0  0.60366  0.31063  0.22175  1.0000
  C   C9        1.0  0.43199  0.76870  0.15523  1.0000
  C   C10       1.0  0.27704  0.73136  0.84476  1.0000
  C   C11       1.0  0.56803  0.23128  0.84476  1.0000
  C   C12       1.0  0.72293  0.26866  0.15523  1.0000
  C   C13       1.0  0.21351  0.83569  0.15342  1.0000
  C   C14       1.0  0.06065  0.66425  0.84666  1.0000
  C   C15       1.0  0.78652  0.16433  0.84659  1.0000
  C   C16       1.0  0.93929  0.33580  0.15333  1.0000
  C   C17       1.0  0.18296  0.94726  0.21706  1.0000
  C   C18       1.0  0.96633  0.55274  0.78301  1.0000
  C   C19       1.0  0.81706  0.05274  0.78294  1.0000
  C   C20       1.0  0.03363  0.44729  0.21698  1.0000
  C   C21       1.0  0.36444  0.98695  0.28497  1.0000
  C   C22       1.0  0.07970  0.51313  0.71507  1.0000
  C   C23       1.0  0.63558  0.01302  0.71504  1.0000
  C   C24       1.0  0.92027  0.48688  0.28493  1.0000
  C   C25       1.0  0.46216  0.65050  0.08669  1.0000
  C   C26       1.0  0.37548  0.84955  0.91334  1.0000
  C   C27       1.0  0.53787  0.34950  0.91330  1.0000
  C   C28       1.0  0.62452  0.15046  0.08666  1.0000
  S   S1        1.0  0.80579  0.96010  0.37730  1.0000
  S   S2        1.0  0.42818  0.53991  0.62275  1.0000
  S   S3        1.0  0.19426  0.03988  0.62270  1.0000
  S   S4        1.0  0.57178  0.46007  0.37726  1.0000
  O   O1        1.0  0.91633  0.10622  0.36325  1.0000
  O   O2        1.0  0.55356  0.39399  0.63697  1.0000
  O   O3        1.0  0.08367  0.89377  0.63676  1.0000
  O   O4        1.0  0.44641  0.60598  0.36303  1.0000
  O   O5        1.0  0.96136  0.82640  0.38234  1.0000
  O   O6        1.0  0.57804  0.67369  0.61743  1.0000
  O   O7        1.0  0.03872  0.17361  0.61764  1.0000
  O   O8        1.0  0.42194  0.32628  0.38259  1.0000
  O   O9        1.0  0.68878  0.97603  0.45328  1.0000
  O   O10       1.0  0.23476  0.52353  0.54687  1.0000
  O   O11       1.0  0.31128  0.02390  0.54673  1.0000
  O   O12       1.0  0.76517  0.47647  0.45314  1.0000
  O   O13       1.0  0.67780  0.63336  0.07479  1.0000
  O   O14       1.0  0.60296  0.86698  0.92515  1.0000
  O   O15       1.0  0.32221  0.36666  0.92519  1.0000
  O   O16       1.0  0.39704  0.13305  0.07486  1.0000
  O   O17       1.0  0.29226  0.57577  0.04436  1.0000
  O   O18       1.0  0.24773  0.92404  0.95570  1.0000
  O   O19       1.0  0.70777  0.42422  0.95563  1.0000
  O   O20       1.0  0.75228  0.07595  0.04432  1.0000
