data_image0
_chemical_formula_structural       Cu2H8C12N4O20
_chemical_formula_sum              "Cu2 H8 C12 N4 O20"
_cell_length_a       6.97777
_cell_length_b       8.84346
_cell_length_c       9.46438
_cell_angle_alpha    115.867
_cell_angle_beta     89.9702
_cell_angle_gamma    113.287

_space_group_name_H-M_alt    "P 1"
_space_group_IT_number       1

loop_
  _space_group_symop_operation_xyz
  'x, y, z'

loop_
  _atom_site_type_symbol
  _atom_site_label
  _atom_site_symmetry_multiplicity
  _atom_site_fract_x
  _atom_site_fract_y
  _atom_site_fract_z
  _atom_site_occupancy
  Cu  Cu1       1.0  0.00955  0.00008  0.75006  1.0000
  Cu  Cu2       1.0  0.99045  0.99992  0.24996  1.0000
  H   H1        1.0  0.31364  0.02055  0.91036  1.0000
  H   H2        1.0  0.29279  0.97908  0.58922  1.0000
  H   H3        1.0  0.68638  0.97944  0.08963  1.0000
  H   H4        1.0  0.70720  0.02090  0.41076  1.0000
  H   H5        1.0  0.25593  0.18345  0.02465  1.0000
  H   H6        1.0  0.07182  0.81638  0.47515  1.0000
  H   H7        1.0  0.74407  0.81654  0.97535  1.0000
  H   H8        1.0  0.92815  0.18361  0.52484  1.0000
  C   C1        1.0  0.62587  0.69349  0.53728  1.0000
  C   C2        1.0  0.93275  0.30669  0.96287  1.0000
  C   C3        1.0  0.37411  0.30651  0.46275  1.0000
  C   C4        1.0  0.06726  0.69333  0.03709  1.0000
  C   C5        1.0  0.65893  0.61877  0.65007  1.0000
  C   C6        1.0  0.04047  0.38142  0.84999  1.0000
  C   C7        1.0  0.34105  0.38123  0.34994  1.0000
  C   C8        1.0  0.95950  0.61860  0.15001  1.0000
  C   C9        1.0  0.53145  0.42776  0.60567  1.0000
  C   C10       1.0  0.10358  0.57224  0.89422  1.0000
  C   C11       1.0  0.46855  0.57225  0.39436  1.0000
  C   C12       1.0  0.89646  0.42778  0.10577  1.0000
  N   N1        1.0  0.56147  0.35820  0.71173  1.0000
  N   N2        1.0  0.20290  0.64170  0.78800  1.0000
  N   N3        1.0  0.43852  0.64178  0.28829  1.0000
  N   N4        1.0  0.79712  0.35831  0.21199  1.0000
  O   O1        1.0  0.74798  0.86196  0.57775  1.0000
  O   O2        1.0  0.88661  0.13838  0.92255  1.0000
  O   O3        1.0  0.25201  0.13803  0.42224  1.0000
  O   O4        1.0  0.11344  0.86169  0.07746  1.0000
  O   O5        1.0  0.80159  0.73514  0.77449  1.0000
  O   O6        1.0  0.06710  0.26516  0.72565  1.0000
  O   O7        1.0  0.19840  0.26486  0.22553  1.0000
  O   O8        1.0  0.93289  0.73484  0.27433  1.0000
  O   O9        1.0  0.60345  0.46374  0.85844  1.0000
  O   O10       1.0  0.13893  0.53606  0.64132  1.0000
  O   O11       1.0  0.39652  0.53624  0.14159  1.0000
  O   O12       1.0  0.86104  0.46394  0.35865  1.0000
  O   O13       1.0  0.54842  0.19601  0.65158  1.0000
  O   O14       1.0  0.35225  0.80389  0.84798  1.0000
  O   O15       1.0  0.45161  0.80400  0.34845  1.0000
  O   O16       1.0  0.64780  0.19610  0.15200  1.0000
  O   O17       1.0  0.27392  0.11733  0.91384  1.0000
  O   O18       1.0  0.15605  0.88249  0.58591  1.0000
  O   O19       1.0  0.72607  0.88265  0.08615  1.0000
  O   O20       1.0  0.84394  0.11750  0.41408  1.0000
