data_image0
_chemical_formula_structural       Co2H8C12N4O20
_chemical_formula_sum              "Co2 H8 C12 N4 O20"
_cell_length_a       6.94693
_cell_length_b       8.81131
_cell_length_c       9.61513
_cell_angle_alpha    116.831
_cell_angle_beta     90.0268
_cell_angle_gamma    113.187

_space_group_name_H-M_alt    "P 1"
_space_group_IT_number       1

loop_
  _space_group_symop_operation_xyz
  'x, y, z'

loop_
  _atom_site_type_symbol
  _atom_site_label
  _atom_site_symmetry_multiplicity
  _atom_site_fract_x
  _atom_site_fract_y
  _atom_site_fract_z
  _atom_site_occupancy
  Co  Co1       1.0  0.00368  0.99993  0.75002  1.0000
  Co  Co2       1.0  0.99631  0.00009  0.24997  1.0000
  H   H1        1.0  0.24905  0.01229  0.96782  1.0000
  H   H2        1.0  0.23660  0.98783  0.53230  1.0000
  H   H3        1.0  0.75094  0.98771  0.03216  1.0000
  H   H4        1.0  0.76341  0.01215  0.46770  1.0000
  H   H5        1.0  0.30153  0.22549  0.01704  1.0000
  H   H6        1.0  0.07597  0.77465  0.48296  1.0000
  H   H7        1.0  0.69846  0.77450  0.98293  1.0000
  H   H8        1.0  0.92403  0.22535  0.51704  1.0000
  C   C1        1.0  0.61519  0.69341  0.52890  1.0000
  C   C2        1.0  0.92172  0.30658  0.97113  1.0000
  C   C3        1.0  0.38481  0.30659  0.47109  1.0000
  C   C4        1.0  0.07828  0.69341  0.02887  1.0000
  C   C5        1.0  0.67514  0.62807  0.63581  1.0000
  C   C6        1.0  0.04692  0.37184  0.86417  1.0000
  C   C7        1.0  0.32487  0.37192  0.36418  1.0000
  C   C8        1.0  0.95308  0.62816  0.13584  1.0000
  C   C9        1.0  0.54854  0.44246  0.60977  1.0000
  C   C10       1.0  0.10601  0.55747  0.89017  1.0000
  C   C11       1.0  0.45146  0.55754  0.39023  1.0000
  C   C12       1.0  0.89399  0.44253  0.10983  1.0000
  N   N1        1.0  0.59165  0.39428  0.72630  1.0000
  N   N2        1.0  0.19715  0.60555  0.77364  1.0000
  N   N3        1.0  0.40835  0.60573  0.27369  1.0000
  N   N4        1.0  0.80285  0.39445  0.22638  1.0000
  O   O1        1.0  0.72746  0.86688  0.57166  1.0000
  O   O2        1.0  0.86063  0.13312  0.92840  1.0000
  O   O3        1.0  0.27255  0.13313  0.42833  1.0000
  O   O4        1.0  0.13936  0.86688  0.07160  1.0000
  O   O5        1.0  0.84676  0.74582  0.74159  1.0000
  O   O6        1.0  0.10058  0.25396  0.75839  1.0000
  O   O7        1.0  0.15325  0.25418  0.25841  1.0000
  O   O8        1.0  0.89941  0.74604  0.24162  1.0000
  O   O9        1.0  0.63166  0.51582  0.87094  1.0000
  O   O10       1.0  0.11576  0.48390  0.62899  1.0000
  O   O11       1.0  0.36835  0.48418  0.12905  1.0000
  O   O12       1.0  0.88425  0.51611  0.37103  1.0000
  O   O13       1.0  0.58487  0.23614  0.68223  1.0000
  O   O14       1.0  0.34833  0.76370  0.81772  1.0000
  O   O15       1.0  0.41512  0.76387  0.31778  1.0000
  O   O16       1.0  0.65166  0.23629  0.18228  1.0000
  O   O17       1.0  0.25411  0.09704  0.92583  1.0000
  O   O18       1.0  0.15698  0.90305  0.57423  1.0000
  O   O19       1.0  0.74590  0.90296  0.07417  1.0000
  O   O20       1.0  0.84303  0.09696  0.42578  1.0000
