data_image0
_chemical_formula_structural       V4H4C16O20
_chemical_formula_sum              "V4 H4 C16 O20"
_cell_length_a       7.17757
_cell_length_b       10.0355
_cell_length_c       9.98093
_cell_angle_alpha    89.9558
_cell_angle_beta     89.9739
_cell_angle_gamma    90.0246

_space_group_name_H-M_alt    "P 1"
_space_group_IT_number       1

loop_
  _space_group_symop_operation_xyz
  'x, y, z'

loop_
  _atom_site_type_symbol
  _atom_site_label
  _atom_site_symmetry_multiplicity
  _atom_site_fract_x
  _atom_site_fract_y
  _atom_site_fract_z
  _atom_site_occupancy
  V   V1        1.0  0.49986  0.39020  0.10839  1.0000
  V   V2        1.0  0.50000  0.88923  0.39031  1.0000
  V   V3        1.0  0.50014  0.61012  0.89131  1.0000
  V   V4        1.0  0.49999  0.11049  0.60984  1.0000
  H   H1        1.0  0.49998  0.66231  0.15133  1.0000
  H   H2        1.0  0.50006  0.84705  0.65687  1.0000
  H   H3        1.0  0.49995  0.15277  0.34337  1.0000
  H   H4        1.0  0.50002  0.33802  0.84846  1.0000
  C   C1        1.0  0.50006  0.55778  0.58618  1.0000
  C   C2        1.0  0.49999  0.41391  0.55850  1.0000
  C   C3        1.0  0.50002  0.05804  0.91408  1.0000
  C   C4        1.0  0.49988  0.44190  0.41384  1.0000
  C   C5        1.0  0.49993  0.08583  0.05867  1.0000
  C   C6        1.0  0.49996  0.58578  0.44154  1.0000
  C   C7        1.0  0.50006  0.94184  0.08605  1.0000
  C   C8        1.0  0.50014  0.91409  0.94145  1.0000
  C   C9        1.0  0.89789  0.44976  0.05411  1.0000
  C   C10       1.0  0.89783  0.94741  0.44788  1.0000
  C   C11       1.0  0.10217  0.94735  0.44793  1.0000
  C   C12       1.0  0.89804  0.55075  0.94577  1.0000
  C   C13       1.0  0.10209  0.55074  0.94576  1.0000
  C   C14       1.0  0.89782  0.05254  0.55217  1.0000
  C   C15       1.0  0.10217  0.05249  0.55222  1.0000
  C   C16       1.0  0.10198  0.44975  0.05410  1.0000
  O   O1        1.0  0.49979  0.36805  0.31204  1.0000
  O   O2        1.0  0.49995  0.68718  0.36759  1.0000
  O   O3        1.0  0.50006  0.86744  0.18785  1.0000
  O   O4        1.0  0.50018  0.63170  0.68798  1.0000
  O   O5        1.0  0.50024  0.81256  0.86744  1.0000
  O   O6        1.0  0.50002  0.31248  0.63243  1.0000
  O   O7        1.0  0.49995  0.13246  0.81231  1.0000
  O   O8        1.0  0.49978  0.18740  0.13257  1.0000
  O   O9        1.0  0.77723  0.38521  0.11970  1.0000
  O   O10       1.0  0.77830  0.88176  0.38289  1.0000
  O   O11       1.0  0.22170  0.88164  0.38301  1.0000
  O   O12       1.0  0.77767  0.61525  0.87997  1.0000
  O   O13       1.0  0.22262  0.61522  0.87996  1.0000
  O   O14       1.0  0.77828  0.11819  0.61714  1.0000
  O   O15       1.0  0.22171  0.11807  0.61726  1.0000
  O   O16       1.0  0.22247  0.38519  0.11968  1.0000
  O   O17       1.0  0.50003  0.40887  0.91656  1.0000
  O   O18       1.0  0.50002  0.08462  0.41427  1.0000
  O   O19       1.0  0.49999  0.91513  0.58591  1.0000
  O   O20       1.0  0.49998  0.59140  0.08330  1.0000
