data_image0
_chemical_formula_structural       Cd4H32C20O24
_chemical_formula_sum              "Cd4 H32 C20 O24"
_cell_length_a       7.0989
_cell_length_b       7.28496
_cell_length_c       16.2531
_cell_angle_alpha    90.0001
_cell_angle_beta     90
_cell_angle_gamma    114.483

_space_group_name_H-M_alt    "P 1"
_space_group_IT_number       1

loop_
  _space_group_symop_operation_xyz
  'x, y, z'

loop_
  _atom_site_type_symbol
  _atom_site_label
  _atom_site_symmetry_multiplicity
  _atom_site_fract_x
  _atom_site_fract_y
  _atom_site_fract_z
  _atom_site_occupancy
  Cd  Cd1       1.0  0.04936  0.48229  0.30615  1.0000
  Cd  Cd2       1.0  0.45064  0.01771  0.80615  1.0000
  Cd  Cd3       1.0  0.95064  0.51771  0.69385  1.0000
  Cd  Cd4       1.0  0.54936  0.98229  0.19385  1.0000
  H   H1        1.0  0.02965  0.85152  0.40422  1.0000
  H   H2        1.0  0.47035  0.64848  0.90421  1.0000
  H   H3        1.0  0.97035  0.14848  0.59578  1.0000
  H   H4        1.0  0.52965  0.35152  0.09578  1.0000
  H   H5        1.0  0.22829  0.81867  0.45776  1.0000
  H   H6        1.0  0.27171  0.68133  0.95776  1.0000
  H   H7        1.0  0.77171  0.18133  0.54224  1.0000
  H   H8        1.0  0.72829  0.31867  0.04224  1.0000
  H   H9        1.0  0.39049  0.04715  0.56555  1.0000
  H   H10       1.0  0.10951  0.45285  0.06555  1.0000
  H   H11       1.0  0.60951  0.95285  0.43445  1.0000
  H   H12       1.0  0.89049  0.54714  0.93445  1.0000
  H   H13       1.0  0.38083  0.29751  0.57308  1.0000
  H   H14       1.0  0.11917  0.20249  0.07308  1.0000
  H   H15       1.0  0.61917  0.70249  0.42691  1.0000
  H   H16       1.0  0.88083  0.79751  0.92691  1.0000
  H   H17       1.0  0.64141  0.34653  0.36741  1.0000
  H   H18       1.0  0.85859  0.15347  0.86741  1.0000
  H   H19       1.0  0.35859  0.65348  0.63259  1.0000
  H   H20       1.0  0.14141  0.84652  0.13259  1.0000
  H   H21       1.0  0.77197  0.49392  0.44115  1.0000
  H   H22       1.0  0.72803  0.00608  0.94114  1.0000
  H   H23       1.0  0.22803  0.50608  0.55886  1.0000
  H   H24       1.0  0.27197  0.99392  0.05886  1.0000
  H   H25       1.0  0.39754  0.50346  0.19382  1.0000
  H   H26       1.0  0.10246  0.99654  0.69382  1.0000
  H   H27       1.0  0.60245  0.49654  0.80618  1.0000
  H   H28       1.0  0.89754  0.00346  0.30618  1.0000
  H   H29       1.0  0.33868  0.31843  0.25683  1.0000
  H   H30       1.0  0.16132  0.18157  0.75683  1.0000
  H   H31       1.0  0.66132  0.68157  0.74317  1.0000
  H   H32       1.0  0.83868  0.81843  0.24317  1.0000
  C   C1        1.0  0.31610  0.95994  0.34130  1.0000
  C   C2        1.0  0.18390  0.54006  0.84130  1.0000
  C   C3        1.0  0.68390  0.04006  0.65870  1.0000
  C   C4        1.0  0.81610  0.45994  0.15870  1.0000
  C   C5        1.0  0.19456  0.92762  0.42060  1.0000
  C   C6        1.0  0.30544  0.57238  0.92060  1.0000
  C   C7        1.0  0.80544  0.07238  0.57940  1.0000
  C   C8        1.0  0.69456  0.42762  0.07940  1.0000
  C   C9        1.0  0.34347  0.15869  0.53883  1.0000
  C   C10       1.0  0.15653  0.34132  0.03883  1.0000
  C   C11       1.0  0.65653  0.84131  0.46117  1.0000
  C   C12       1.0  0.84346  0.65868  0.96117  1.0000
  C   C13       1.0  0.23903  0.11845  0.46763  1.0000
  C   C14       1.0  0.26097  0.38155  0.96763  1.0000
  C   C15       1.0  0.76096  0.88155  0.53236  1.0000
  C   C16       1.0  0.73904  0.61845  0.03236  1.0000
  C   C17       1.0  0.16454  0.26366  0.42992  1.0000
  C   C18       1.0  0.33546  0.23634  0.92992  1.0000
  C   C19       1.0  0.83546  0.73634  0.57008  1.0000
  C   C20       1.0  0.66454  0.76366  0.07008  1.0000
  O   O1        1.0  0.29122  0.80444  0.29776  1.0000
  O   O2        1.0  0.20878  0.69556  0.79776  1.0000
  O   O3        1.0  0.70878  0.19556  0.70224  1.0000
  O   O4        1.0  0.79122  0.30444  0.20224  1.0000
  O   O5        1.0  0.44238  0.13393  0.31790  1.0000
  O   O6        1.0  0.05762  0.36607  0.81790  1.0000
  O   O7        1.0  0.55762  0.86606  0.68210  1.0000
  O   O8        1.0  0.94237  0.63393  0.18210  1.0000
  O   O9        1.0  0.05471  0.20229  0.36393  1.0000
  O   O10       1.0  0.44528  0.29770  0.86393  1.0000
  O   O11       1.0  0.94528  0.79771  0.63607  1.0000
  O   O12       1.0  0.55472  0.70229  0.13607  1.0000
  O   O13       1.0  0.20881  0.43790  0.45902  1.0000
  O   O14       1.0  0.29118  0.06210  0.95902  1.0000
  O   O15       1.0  0.79119  0.56210  0.54098  1.0000
  O   O16       1.0  0.70882  0.93790  0.04098  1.0000
  O   O17       1.0  0.76794  0.46823  0.38045  1.0000
  O   O18       1.0  0.73206  0.03177  0.88045  1.0000
  O   O19       1.0  0.23206  0.53177  0.61955  1.0000
  O   O20       1.0  0.26794  0.96823  0.11955  1.0000
  O   O21       1.0  0.28393  0.40178  0.22642  1.0000
  O   O22       1.0  0.21607  0.09822  0.72642  1.0000
  O   O23       1.0  0.71607  0.59822  0.77358  1.0000
  O   O24       1.0  0.78393  0.90178  0.27358  1.0000
