data_image0
_chemical_formula_structural       Mn4H36C20N4Cl8O8
_chemical_formula_sum              "Mn4 H36 C20 N4 Cl8 O8"
_cell_length_a       6.89117
_cell_length_b       9.83137
_cell_length_c       12.8334
_cell_angle_alpha    90.0007
_cell_angle_beta     90
_cell_angle_gamma    89.9997

_space_group_name_H-M_alt    "P 1"
_space_group_IT_number       1

loop_
  _space_group_symop_operation_xyz
  'x, y, z'

loop_
  _atom_site_type_symbol
  _atom_site_label
  _atom_site_symmetry_multiplicity
  _atom_site_fract_x
  _atom_site_fract_y
  _atom_site_fract_z
  _atom_site_occupancy
  Mn  Mn1       1.0  0.34370  0.73554  0.00149  1.0000
  Mn  Mn2       1.0  0.15631  0.26446  0.50149  1.0000
  Mn  Mn3       1.0  0.84370  0.76446  0.99850  1.0000
  Mn  Mn4       1.0  0.65631  0.23554  0.49850  1.0000
  H   H1        1.0  0.61669  0.05556  0.71860  1.0000
  H   H2        1.0  0.88332  0.94443  0.21861  1.0000
  H   H3        1.0  0.11668  0.44444  0.28139  1.0000
  H   H4        1.0  0.38333  0.55556  0.78139  1.0000
  H   H5        1.0  0.72459  0.14905  0.91273  1.0000
  H   H6        1.0  0.77540  0.85095  0.41273  1.0000
  H   H7        1.0  0.22458  0.35095  0.08727  1.0000
  H   H8        1.0  0.27542  0.64906  0.58727  1.0000
  H   H9        1.0  0.64959  0.26053  0.81139  1.0000
  H   H10       1.0  0.85042  0.73946  0.31140  1.0000
  H   H11       1.0  0.14957  0.23947  0.18861  1.0000
  H   H12       1.0  0.35042  0.76053  0.68861  1.0000
  H   H13       1.0  0.41850  0.31858  0.94914  1.0000
  H   H14       1.0  0.08150  0.68142  0.44914  1.0000
  H   H15       1.0  0.91849  0.18142  0.05087  1.0000
  H   H16       1.0  0.58150  0.81859  0.55087  1.0000
  H   H17       1.0  0.40056  0.14504  0.98980  1.0000
  H   H18       1.0  0.09943  0.85495  0.48981  1.0000
  H   H19       1.0  0.90054  0.35495  0.01020  1.0000
  H   H20       1.0  0.59945  0.64506  0.51019  1.0000
  H   H21       1.0  0.23062  0.27365  0.79125  1.0000
  H   H22       1.0  0.26938  0.72634  0.29126  1.0000
  H   H23       1.0  0.73061  0.22636  0.20876  1.0000
  H   H24       1.0  0.76939  0.77365  0.70875  1.0000
  H   H25       1.0  0.11688  0.15770  0.87916  1.0000
  H   H26       1.0  0.38311  0.84229  0.37917  1.0000
  H   H27       1.0  0.61687  0.34231  0.12084  1.0000
  H   H28       1.0  0.88312  0.65770  0.62083  1.0000
  H   H29       1.0  0.29700  0.08095  0.69963  1.0000
  H   H30       1.0  0.20300  0.91903  0.19964  1.0000
  H   H31       1.0  0.79700  0.41905  0.30036  1.0000
  H   H32       1.0  0.70300  0.58096  0.80036  1.0000
  H   H33       1.0  0.26992  0.97855  0.80523  1.0000
  H   H34       1.0  0.23009  0.02144  0.30523  1.0000
  H   H35       1.0  0.76990  0.52146  0.19477  1.0000
  H   H36       1.0  0.73010  0.47855  0.69477  1.0000
  C   C1        1.0  0.54372  0.05510  0.79471  1.0000
  C   C2        1.0  0.95629  0.94490  0.29471  1.0000
  C   C3        1.0  0.04370  0.44490  0.20530  1.0000
  C   C4        1.0  0.45629  0.55510  0.70529  1.0000
  C   C5        1.0  0.60308  0.17690  0.86213  1.0000
  C   C6        1.0  0.89692  0.82310  0.36214  1.0000
  C   C7        1.0  0.10307  0.32311  0.13786  1.0000
  C   C8        1.0  0.39693  0.67690  0.63787  1.0000
  C   C9        1.0  0.41789  0.21273  0.92221  1.0000
  C   C10       1.0  0.08210  0.78726  0.42222  1.0000
  C   C11       1.0  0.91787  0.28726  0.07779  1.0000
  C   C12       1.0  0.58211  0.71274  0.57778  1.0000
  C   C13       1.0  0.25499  0.18768  0.84384  1.0000
  C   C14       1.0  0.24501  0.81232  0.34384  1.0000
  C   C15       1.0  0.75499  0.31233  0.15617  1.0000
  C   C16       1.0  0.74502  0.68768  0.65616  1.0000
  C   C17       1.0  0.57918  0.91858  0.84854  1.0000
  C   C18       1.0  0.92078  0.08142  0.34855  1.0000
  C   C19       1.0  0.07921  0.58142  0.15145  1.0000
  C   C20       1.0  0.42080  0.41858  0.65144  1.0000
  N   N1        1.0  0.32756  0.07022  0.77866  1.0000
  N   N2        1.0  0.17244  0.92977  0.27866  1.0000
  N   N3        1.0  0.82755  0.42978  0.22134  1.0000
  N   N4        1.0  0.67245  0.57023  0.72134  1.0000
  Cl  Cl1       1.0  0.08126  0.62704  0.89053  1.0000
  Cl  Cl2       1.0  0.41875  0.37295  0.39051  1.0000
  Cl  Cl3       1.0  0.58126  0.87296  0.10947  1.0000
  Cl  Cl4       1.0  0.91875  0.12703  0.60947  1.0000
  Cl  Cl5       1.0  0.60728  0.56428  0.96595  1.0000
  Cl  Cl6       1.0  0.89273  0.43573  0.46595  1.0000
  Cl  Cl7       1.0  0.10728  0.93572  0.03405  1.0000
  Cl  Cl8       1.0  0.39273  0.06428  0.53404  1.0000
  O   O1        1.0  0.43041  0.84435  0.86388  1.0000
  O   O2        1.0  0.06961  0.15565  0.36388  1.0000
  O   O3        1.0  0.93036  0.65566  0.13611  1.0000
  O   O4        1.0  0.56965  0.34435  0.63610  1.0000
  O   O5        1.0  0.75256  0.89068  0.87255  1.0000
  O   O6        1.0  0.74748  0.10931  0.37255  1.0000
  O   O7        1.0  0.25250  0.60932  0.12745  1.0000
  O   O8        1.0  0.24750  0.39068  0.62744  1.0000
