data_image0
_chemical_formula_structural       Nd4H56C60O28
_chemical_formula_sum              "Nd4 H56 C60 O28"
_cell_length_a       7.7676
_cell_length_b       15.3728
_cell_length_c       15.3727
_cell_angle_alpha    62.7125
_cell_angle_beta     86.8187
_cell_angle_gamma    86.8187

_space_group_name_H-M_alt    "P 1"
_space_group_IT_number       1

loop_
  _space_group_symop_operation_xyz
  'x, y, z'

loop_
  _atom_site_type_symbol
  _atom_site_label
  _atom_site_symmetry_multiplicity
  _atom_site_fract_x
  _atom_site_fract_y
  _atom_site_fract_z
  _atom_site_occupancy
  Nd  Nd1       1.0  0.03092  0.36001  0.28141  1.0000
  Nd  Nd2       1.0  0.46908  0.71858  0.63998  1.0000
  Nd  Nd3       1.0  0.96908  0.63999  0.71859  1.0000
  Nd  Nd4       1.0  0.53092  0.28142  0.36002  1.0000
  H   H1        1.0  0.34330  0.48050  0.16278  1.0000
  H   H2        1.0  0.15669  0.83722  0.51950  1.0000
  H   H3        1.0  0.65670  0.51950  0.83722  1.0000
  H   H4        1.0  0.84331  0.16278  0.48050  1.0000
  H   H5        1.0  0.18017  0.55610  0.12896  1.0000
  H   H6        1.0  0.31982  0.87104  0.44388  1.0000
  H   H7        1.0  0.81983  0.44390  0.87104  1.0000
  H   H8        1.0  0.68018  0.12896  0.55611  1.0000
  H   H9        1.0  0.30388  0.19910  0.60638  1.0000
  H   H10       1.0  0.19612  0.39362  0.80090  1.0000
  H   H11       1.0  0.69612  0.80090  0.39362  1.0000
  H   H12       1.0  0.80388  0.60638  0.19910  1.0000
  H   H13       1.0  0.42515  0.18706  0.75522  1.0000
  H   H14       1.0  0.07485  0.24478  0.81295  1.0000
  H   H15       1.0  0.57485  0.81295  0.24478  1.0000
  H   H16       1.0  0.92515  0.75521  0.18706  1.0000
  H   H17       1.0  0.40820  0.03183  0.91128  1.0000
  H   H18       1.0  0.09181  0.08872  0.96817  1.0000
  H   H19       1.0  0.59181  0.96817  0.08872  1.0000
  H   H20       1.0  0.90818  0.91127  0.03183  1.0000
  H   H21       1.0  0.26068  0.88975  0.91530  1.0000
  H   H22       1.0  0.23934  0.08469  0.11025  1.0000
  H   H23       1.0  0.73933  0.11025  0.08470  1.0000
  H   H24       1.0  0.76066  0.91530  0.88976  1.0000
  H   H25       1.0  0.08924  0.82055  0.84107  1.0000
  H   H26       1.0  0.41079  0.15893  0.17945  1.0000
  H   H27       1.0  0.91076  0.17945  0.15893  1.0000
  H   H28       1.0  0.58921  0.84107  0.82055  1.0000
  H   H29       1.0  0.00269  0.89176  0.72639  1.0000
  H   H30       1.0  0.49733  0.27361  0.10825  1.0000
  H   H31       1.0  0.99732  0.10825  0.27361  1.0000
  H   H32       1.0  0.50268  0.72639  0.89175  1.0000
  H   H33       1.0  0.99938  0.04218  0.59386  1.0000
  H   H34       1.0  0.50063  0.40614  0.95782  1.0000
  H   H35       1.0  0.00062  0.95782  0.40614  1.0000
  H   H36       1.0  0.49937  0.59386  0.04218  1.0000
  H   H37       1.0  0.19980  0.99518  0.57008  1.0000
  H   H38       1.0  0.30021  0.42992  0.00483  1.0000
  H   H39       1.0  0.80020  0.00482  0.42992  1.0000
  H   H40       1.0  0.69979  0.57008  0.99517  1.0000
  H   H41       1.0  0.42950  0.66752  0.16981  1.0000
  H   H42       1.0  0.07051  0.83020  0.33246  1.0000
  H   H43       1.0  0.57051  0.33248  0.83020  1.0000
  H   H44       1.0  0.92949  0.16980  0.66754  1.0000
  H   H45       1.0  0.34120  0.84197  0.07552  1.0000
  H   H46       1.0  0.15883  0.92447  0.15801  1.0000
  H   H47       1.0  0.65880  0.15803  0.92448  1.0000
  H   H48       1.0  0.84117  0.07553  0.84199  1.0000
  H   H49       1.0  0.37252  0.51559  0.43544  1.0000
  H   H50       1.0  0.12746  0.56456  0.48441  1.0000
  H   H51       1.0  0.62748  0.48441  0.56456  1.0000
  H   H52       1.0  0.87253  0.43544  0.51559  1.0000
  H   H53       1.0  0.48028  0.52902  0.32728  1.0000
  H   H54       1.0  0.01970  0.67272  0.47096  1.0000
  H   H55       1.0  0.51972  0.47098  0.67272  1.0000
  H   H56       1.0  0.98030  0.32728  0.52903  1.0000
  C   C1        1.0  0.20068  0.96349  0.76278  1.0000
  C   C2        1.0  0.29934  0.23722  0.03652  1.0000
  C   C3        1.0  0.79932  0.03652  0.23722  1.0000
  C   C4        1.0  0.70066  0.76278  0.96348  1.0000
  C   C5        1.0  0.21260  0.05085  0.67435  1.0000
  C   C6        1.0  0.28741  0.32565  0.94915  1.0000
  C   C7        1.0  0.78741  0.94915  0.32565  1.0000
  C   C8        1.0  0.71259  0.67435  0.05085  1.0000
  C   C9        1.0  0.29252  0.13066  0.67366  1.0000
  C   C10       1.0  0.20748  0.32634  0.86934  1.0000
  C   C11       1.0  0.70748  0.86934  0.32634  1.0000
  C   C12       1.0  0.79252  0.67366  0.13066  1.0000
  C   C13       1.0  0.36292  0.12406  0.75803  1.0000
  C   C14       1.0  0.13708  0.24196  0.87594  1.0000
  C   C15       1.0  0.63709  0.87594  0.24197  1.0000
  C   C16       1.0  0.86291  0.75803  0.12406  1.0000
  C   C17       1.0  0.35301  0.03721  0.84522  1.0000
  C   C18       1.0  0.14700  0.15478  0.96278  1.0000
  C   C19       1.0  0.64699  0.96279  0.15478  1.0000
  C   C20       1.0  0.85300  0.84522  0.03722  1.0000
  C   C21       1.0  0.27048  0.95798  0.84728  1.0000
  C   C22       1.0  0.22954  0.15272  0.04203  1.0000
  C   C23       1.0  0.72952  0.04202  0.15272  1.0000
  C   C24       1.0  0.77046  0.84727  0.95798  1.0000
  C   C25       1.0  0.12391  0.87459  0.76584  1.0000
  C   C26       1.0  0.37611  0.23416  0.12542  1.0000
  C   C27       1.0  0.87609  0.12542  0.23416  1.0000
  C   C28       1.0  0.62389  0.76584  0.87459  1.0000
  C   C29       1.0  0.24495  0.82259  0.72233  1.0000
  C   C30       1.0  0.25508  0.27766  0.17742  1.0000
  C   C31       1.0  0.75507  0.17741  0.27766  1.0000
  C   C32       1.0  0.74492  0.72235  0.82258  1.0000
  C   C33       1.0  0.13877  0.05489  0.58315  1.0000
  C   C34       1.0  0.36123  0.41686  0.94511  1.0000
  C   C35       1.0  0.86123  0.94511  0.41685  1.0000
  C   C36       1.0  0.63877  0.58314  0.05489  1.0000
  C   C37       1.0  0.17374  0.14838  0.49044  1.0000
  C   C38       1.0  0.32627  0.50956  0.85162  1.0000
  C   C39       1.0  0.82625  0.85162  0.50956  1.0000
  C   C40       1.0  0.67374  0.49044  0.14838  1.0000
  C   C41       1.0  0.30044  0.64881  0.30472  1.0000
  C   C42       1.0  0.19956  0.69528  0.35117  1.0000
  C   C43       1.0  0.69956  0.35118  0.69528  1.0000
  C   C44       1.0  0.80044  0.30472  0.64883  1.0000
  C   C45       1.0  0.34878  0.70301  0.20552  1.0000
  C   C46       1.0  0.15124  0.79448  0.29698  1.0000
  C   C47       1.0  0.65123  0.29699  0.79449  1.0000
  C   C48       1.0  0.84876  0.20552  0.70302  1.0000
  C   C49       1.0  0.29987  0.80158  0.15226  1.0000
  C   C50       1.0  0.20014  0.84773  0.19841  1.0000
  C   C51       1.0  0.70013  0.19842  0.84774  1.0000
  C   C52       1.0  0.79986  0.15227  0.80160  1.0000
  C   C53       1.0  0.35461  0.54197  0.35672  1.0000
  C   C54       1.0  0.14538  0.64328  0.45802  1.0000
  C   C55       1.0  0.64539  0.45802  0.64328  1.0000
  C   C56       1.0  0.85462  0.35672  0.54198  1.0000
  C   C57       1.0  0.22803  0.47476  0.34737  1.0000
  C   C58       1.0  0.27196  0.65263  0.52523  1.0000
  C   C59       1.0  0.77197  0.52523  0.65263  1.0000
  C   C60       1.0  0.72804  0.34737  0.47477  1.0000
  O   O1        1.0  0.39614  0.85026  0.69334  1.0000
  O   O2        1.0  0.10386  0.30664  0.14975  1.0000
  O   O3        1.0  0.60386  0.14974  0.30666  1.0000
  O   O4        1.0  0.89614  0.69336  0.85024  1.0000
  O   O5        1.0  0.19031  0.74752  0.71610  1.0000
  O   O6        1.0  0.30971  0.28389  0.25248  1.0000
  O   O7        1.0  0.80970  0.25248  0.28389  1.0000
  O   O8        1.0  0.69029  0.71611  0.74751  1.0000
  O   O9        1.0  0.32989  0.16791  0.46548  1.0000
  O   O10       1.0  0.17010  0.53452  0.83209  1.0000
  O   O11       1.0  0.67011  0.83209  0.53452  1.0000
  O   O12       1.0  0.82990  0.46548  0.16791  1.0000
  O   O13       1.0  0.04589  0.20212  0.44189  1.0000
  O   O14       1.0  0.45409  0.55811  0.79788  1.0000
  O   O15       1.0  0.95411  0.79788  0.55811  1.0000
  O   O16       1.0  0.54590  0.44189  0.20212  1.0000
  O   O17       1.0  0.28203  0.38688  0.36580  1.0000
  O   O18       1.0  0.21794  0.63420  0.61311  1.0000
  O   O19       1.0  0.71797  0.61312  0.63420  1.0000
  O   O20       1.0  0.78205  0.36580  0.38689  1.0000
  O   O21       1.0  0.07608  0.50343  0.32035  1.0000
  O   O22       1.0  0.42390  0.67965  0.49657  1.0000
  O   O23       1.0  0.92393  0.49657  0.67966  1.0000
  O   O24       1.0  0.57609  0.32035  0.50343  1.0000
  O   O25       1.0  0.21857  0.48923  0.14530  1.0000
  O   O26       1.0  0.28143  0.85470  0.51076  1.0000
  O   O27       1.0  0.78143  0.51077  0.85470  1.0000
  O   O28       1.0  0.71857  0.14530  0.48924  1.0000
