data_image0
_chemical_formula_structural       CdH28C20N10O8
_chemical_formula_sum              "Cd1 H28 C20 N10 O8"
_cell_length_a       8.6544
_cell_length_b       8.81065
_cell_length_c       10.4799
_cell_angle_alpha    84.6181
_cell_angle_beta     68.2626
_cell_angle_gamma    62.4869

_space_group_name_H-M_alt    "P 1"
_space_group_IT_number       1

loop_
  _space_group_symop_operation_xyz
  'x, y, z'

loop_
  _atom_site_type_symbol
  _atom_site_label
  _atom_site_symmetry_multiplicity
  _atom_site_fract_x
  _atom_site_fract_y
  _atom_site_fract_z
  _atom_site_occupancy
  Cd  Cd1       1.0  0.00000  0.00000  0.00000  1.0000
  H   H1        1.0  0.49692  0.18146  0.48579  1.0000
  H   H2        1.0  0.50308  0.81853  0.51421  1.0000
  H   H3        1.0  0.47724  0.39030  0.45018  1.0000
  H   H4        1.0  0.52276  0.60970  0.54982  1.0000
  H   H5        1.0  0.12568  0.51465  0.60085  1.0000
  H   H6        1.0  0.87432  0.48535  0.39915  1.0000
  H   H7        1.0  0.19771  0.39198  0.44410  1.0000
  H   H8        1.0  0.80229  0.60802  0.55589  1.0000
  H   H9        1.0  0.10929  0.32391  0.82927  1.0000
  H   H10       1.0  0.89071  0.67609  0.17073  1.0000
  H   H11       1.0  0.13289  0.14807  0.45641  1.0000
  H   H12       1.0  0.86711  0.85193  0.54359  1.0000
  H   H13       1.0  0.03136  0.95376  0.66850  1.0000
  H   H14       1.0  0.96864  0.04624  0.33150  1.0000
  H   H15       1.0  0.19131  0.55588  0.92929  1.0000
  H   H16       1.0  0.80869  0.44412  0.07070  1.0000
  H   H17       1.0  0.73787  0.51281  0.78074  1.0000
  H   H18       1.0  0.26213  0.48719  0.21926  1.0000
  H   H19       1.0  0.47506  0.85747  0.84397  1.0000
  H   H20       1.0  0.52494  0.14253  0.15603  1.0000
  H   H21       1.0  0.46343  0.25638  0.89009  1.0000
  H   H22       1.0  0.53657  0.74362  0.10991  1.0000
  H   H23       1.0  0.69567  0.22879  0.83431  1.0000
  H   H24       1.0  0.30434  0.77121  0.16568  1.0000
  H   H25       1.0  0.69435  0.29361  0.59514  1.0000
  H   H26       1.0  0.30565  0.70639  0.40486  1.0000
  H   H27       1.0  0.65192  0.11355  0.65169  1.0000
  H   H28       1.0  0.34808  0.88645  0.34831  1.0000
  C   C1        1.0  0.41484  0.31865  0.52582  1.0000
  C   C2        1.0  0.58516  0.68135  0.47418  1.0000
  C   C3        1.0  0.21064  0.38571  0.54474  1.0000
  C   C4        1.0  0.78935  0.61429  0.45526  1.0000
  C   C5        1.0  0.10174  0.24773  0.75831  1.0000
  C   C6        1.0  0.89826  0.75227  0.24169  1.0000
  C   C7        1.0  0.11402  0.15191  0.56455  1.0000
  C   C8        1.0  0.88598  0.84809  0.43545  1.0000
  C   C9        1.0  0.06519  0.05774  0.66967  1.0000
  C   C10       1.0  0.93481  0.94226  0.33033  1.0000
  C   C11       1.0  0.30142  0.59442  0.89714  1.0000
  C   C12       1.0  0.69858  0.40558  0.10286  1.0000
  C   C13       1.0  0.58625  0.57421  0.81682  1.0000
  C   C14       1.0  0.41375  0.42580  0.18318  1.0000
  C   C15       1.0  0.45464  0.74421  0.84989  1.0000
  C   C16       1.0  0.54536  0.25579  0.15011  1.0000
  C   C17       1.0  0.56347  0.29684  0.81736  1.0000
  C   C18       1.0  0.43653  0.70316  0.18264  1.0000
  C   C19       1.0  0.59362  0.25384  0.67038  1.0000
  C   C20       1.0  0.40638  0.74616  0.32962  1.0000
  N   N1        1.0  0.13658  0.27178  0.62222  1.0000
  N   N2        1.0  0.86342  0.72822  0.37778  1.0000
  N   N3        1.0  0.05768  0.11906  0.78966  1.0000
  N   N4        1.0  0.94232  0.88094  0.21034  1.0000
  N   N5        1.0  0.85397  0.77658  0.86387  1.0000
  N   N6        1.0  0.14603  0.22342  0.13613  1.0000
  N   N7        1.0  0.48669  0.48131  0.84743  1.0000
  N   N8        1.0  0.51331  0.51869  0.15257  1.0000
  N   N9        1.0  0.27762  0.75486  0.90017  1.0000
  N   N10       1.0  0.72238  0.24514  0.09983  1.0000
  O   O1        1.0  0.41534  0.34210  0.65805  1.0000
  O   O2        1.0  0.58466  0.65790  0.34195  1.0000
  O   O3        1.0  0.80800  0.92488  0.91477  1.0000
  O   O4        1.0  0.19200  0.07512  0.08523  1.0000
  O   O5        1.0  0.85657  0.76152  0.74381  1.0000
  O   O6        1.0  0.14342  0.23848  0.25619  1.0000
  O   O7        1.0  0.89447  0.64862  0.93290  1.0000
  O   O8        1.0  0.10553  0.35138  0.06710  1.0000
