data_image0
_chemical_formula_structural       Sr2P2H10C4S2O12
_chemical_formula_sum              "Sr2 P2 H10 C4 S2 O12"
_cell_length_a       5.21151
_cell_length_b       8.37609
_cell_length_c       8.80055
_cell_angle_alpha    86.192
_cell_angle_beta     72.7709
_cell_angle_gamma    76.9852

_space_group_name_H-M_alt    "P 1"
_space_group_IT_number       1

loop_
  _space_group_symop_operation_xyz
  'x, y, z'

loop_
  _atom_site_type_symbol
  _atom_site_label
  _atom_site_symmetry_multiplicity
  _atom_site_fract_x
  _atom_site_fract_y
  _atom_site_fract_z
  _atom_site_occupancy
  Sr  Sr1       1.0  0.82881  0.82844  0.55311  1.0000
  Sr  Sr2       1.0  0.38204  0.32835  0.44693  1.0000
  P   P1        1.0  0.33481  0.58600  0.74805  1.0000
  P   P2        1.0  0.08297  0.08596  0.25180  1.0000
  H   H1        1.0  0.30566  0.33360  0.76676  1.0000
  H   H2        1.0  0.07275  0.83353  0.23321  1.0000
  H   H3        1.0  0.89221  0.55046  0.90727  1.0000
  H   H4        1.0  0.79906  0.05063  0.09300  1.0000
  H   H5        1.0  0.95027  0.74173  0.94316  1.0000
  H   H6        1.0  0.89306  0.24176  0.05710  1.0000
  H   H7        1.0  0.21049  0.40665  0.06827  1.0000
  H   H8        1.0  0.27809  0.90659  0.93158  1.0000
  H   H9        1.0  0.30095  0.59285  0.09079  1.0000
  H   H10       1.0  0.39110  0.09278  0.90898  1.0000
  C   C1        1.0  0.04621  0.61047  0.92794  1.0000
  C   C2        1.0  0.97378  0.11052  0.07212  1.0000
  C   C3        1.0  0.13686  0.54030  0.07276  1.0000
  C   C4        1.0  0.20892  0.04024  0.92726  1.0000
  S   S1        1.0  0.85852  0.58229  0.25124  1.0000
  S   S2        1.0  0.10884  0.08235  0.74884  1.0000
  O   O1        1.0  0.54951  0.67437  0.76106  1.0000
  O   O2        1.0  0.31066  0.17431  0.23882  1.0000
  O   O3        1.0  0.22908  0.62493  0.60237  1.0000
  O   O4        1.0  0.83176  0.12473  0.39765  1.0000
  O   O5        1.0  0.46271  0.39037  0.74406  1.0000
  O   O6        1.0  0.20715  0.89040  0.25570  1.0000
  O   O7        1.0  0.63788  0.50856  0.23451  1.0000
  O   O8        1.0  0.87140  0.00865  0.76570  1.0000
  O   O9        1.0  0.78108  0.76362  0.26501  1.0000
  O   O10       1.0  0.04541  0.26369  0.73505  1.0000
  O   O11       1.0  0.95891  0.51365  0.38778  1.0000
  O   O12       1.0  0.34564  0.01361  0.61211  1.0000
