data_image0
_chemical_formula_structural       H28Pb2C32Cl4O10
_chemical_formula_sum              "H28 Pb2 C32 Cl4 O10"
_cell_length_a       7.23348
_cell_length_b       9.7582
_cell_length_c       12.7252
_cell_angle_alpha    85.4934
_cell_angle_beta     83.9593
_cell_angle_gamma    72.119

_space_group_name_H-M_alt    "P 1"
_space_group_IT_number       1

loop_
  _space_group_symop_operation_xyz
  'x, y, z'

loop_
  _atom_site_type_symbol
  _atom_site_label
  _atom_site_symmetry_multiplicity
  _atom_site_fract_x
  _atom_site_fract_y
  _atom_site_fract_z
  _atom_site_occupancy
  H   H1        1.0  0.61619  0.08589  0.93456  1.0000
  H   H2        1.0  0.38380  0.91413  0.06542  1.0000
  H   H3        1.0  0.31270  0.14522  0.84668  1.0000
  H   H4        1.0  0.68728  0.85478  0.15331  1.0000
  H   H5        1.0  0.64846  0.03627  0.54696  1.0000
  H   H6        1.0  0.35157  0.96376  0.45303  1.0000
  H   H7        1.0  0.95338  0.98021  0.63591  1.0000
  H   H8        1.0  0.04663  0.01981  0.36410  1.0000
  H   H9        1.0  0.96551  0.03842  0.92318  1.0000
  H   H10       1.0  0.03449  0.96158  0.07682  1.0000
  H   H11       1.0  0.10286  0.02962  0.80001  1.0000
  H   H12       1.0  0.89714  0.97037  0.20000  1.0000
  H   H13       1.0  0.34998  0.26079  0.30997  1.0000
  H   H14       1.0  0.65003  0.73921  0.69001  1.0000
  H   H15       1.0  0.66805  0.16040  0.38684  1.0000
  H   H16       1.0  0.33196  0.83959  0.61314  1.0000
  H   H17       1.0  0.71009  0.58957  0.40107  1.0000
  H   H18       1.0  0.28993  0.41044  0.59892  1.0000
  H   H19       1.0  0.39338  0.68941  0.32151  1.0000
  H   H20       1.0  0.60660  0.31060  0.67851  1.0000
  H   H21       1.0  0.06625  0.47512  0.27777  1.0000
  H   H22       1.0  0.93375  0.52487  0.72222  1.0000
  H   H23       1.0  0.07995  0.65069  0.28935  1.0000
  H   H24       1.0  0.92001  0.34933  0.71066  1.0000
  H   H25       1.0  0.24250  0.24895  0.08410  1.0000
  H   H26       1.0  0.75749  0.75105  0.91590  1.0000
  H   H27       1.0  0.46888  0.23939  0.07253  1.0000
  H   H28       1.0  0.53110  0.76061  0.92748  1.0000
  Pb  Pb1       1.0  0.26700  0.50705  0.90875  1.0000
  Pb  Pb2       1.0  0.73302  0.49292  0.09125  1.0000
  C   C1        1.0  0.80744  0.02803  0.79197  1.0000
  C   C2        1.0  0.19257  0.97198  0.20803  1.0000
  C   C3        1.0  0.62546  0.07393  0.84961  1.0000
  C   C4        1.0  0.37455  0.92606  0.15038  1.0000
  C   C5        1.0  0.45245  0.10728  0.80025  1.0000
  C   C6        1.0  0.54755  0.89271  0.19974  1.0000
  C   C7        1.0  0.46370  0.09247  0.69149  1.0000
  C   C8        1.0  0.53631  0.90754  0.30850  1.0000
  C   C9        1.0  0.64276  0.04642  0.63184  1.0000
  C   C10       1.0  0.35726  0.95356  0.36816  1.0000
  C   C11       1.0  0.81347  0.01564  0.68259  1.0000
  C   C12       1.0  0.18654  0.98438  0.31741  1.0000
  C   C13       1.0  0.99248  0.98863  0.84624  1.0000
  C   C14       1.0  0.00752  0.01135  0.15376  1.0000
  C   C15       1.0  0.08653  0.82614  0.86546  1.0000
  C   C16       1.0  0.91346  0.17383  0.13454  1.0000
  C   C17       1.0  0.34963  0.48249  0.30987  1.0000
  C   C18       1.0  0.65037  0.51751  0.69013  1.0000
  C   C19       1.0  0.42832  0.33363  0.32941  1.0000
  C   C20       1.0  0.57169  0.66636  0.67060  1.0000
  C   C21       1.0  0.60699  0.27638  0.37310  1.0000
  C   C22       1.0  0.39303  0.72362  0.62692  1.0000
  C   C23       1.0  0.70719  0.36929  0.39811  1.0000
  C   C24       1.0  0.29281  0.63073  0.60188  1.0000
  C   C25       1.0  0.63197  0.51812  0.37950  1.0000
  C   C26       1.0  0.36799  0.48191  0.62052  1.0000
  C   C27       1.0  0.45372  0.57329  0.33533  1.0000
  C   C28       1.0  0.54626  0.42671  0.66467  1.0000
  C   C29       1.0  0.16126  0.54421  0.25920  1.0000
  C   C30       1.0  0.83871  0.45579  0.74082  1.0000
  C   C31       1.0  0.18645  0.56393  0.13917  1.0000
  C   C32       1.0  0.81357  0.43607  0.86084  1.0000
  Cl  Cl1       1.0  0.25038  0.13663  0.62677  1.0000
  Cl  Cl2       1.0  0.74964  0.86334  0.37322  1.0000
  Cl  Cl3       1.0  0.92824  0.30098  0.45400  1.0000
  Cl  Cl4       1.0  0.07175  0.69902  0.54601  1.0000
  O   O1        1.0  0.25879  0.78270  0.89470  1.0000
  O   O2        1.0  0.74119  0.21728  0.10530  1.0000
  O   O3        1.0  0.98932  0.74047  0.85143  1.0000
  O   O4        1.0  0.01064  0.25953  0.14857  1.0000
  O   O5        1.0  0.35316  0.55623  0.09198  1.0000
  O   O6        1.0  0.64687  0.44377  0.90804  1.0000
  O   O7        1.0  0.03836  0.58656  0.08656  1.0000
  O   O8        1.0  0.96168  0.41343  0.91345  1.0000
  O   O9        1.0  0.35217  0.26014  0.03382  1.0000
  O   O10       1.0  0.64782  0.73986  0.96618  1.0000
