data_image0
_chemical_formula_structural       Cd2H20C28N24O8
_chemical_formula_sum              "Cd2 H20 C28 N24 O8"
_cell_length_a       8.58746
_cell_length_b       8.87849
_cell_length_c       13.72
_cell_angle_alpha    95.2913
_cell_angle_beta     89.9953
_cell_angle_gamma    118.928

_space_group_name_H-M_alt    "P 1"
_space_group_IT_number       1

loop_
  _space_group_symop_operation_xyz
  'x, y, z'

loop_
  _atom_site_type_symbol
  _atom_site_label
  _atom_site_symmetry_multiplicity
  _atom_site_fract_x
  _atom_site_fract_y
  _atom_site_fract_z
  _atom_site_occupancy
  Cd  Cd1       1.0  0.19579  0.99993  0.25006  1.0000
  Cd  Cd2       1.0  0.80421  0.00007  0.74994  1.0000
  H   H1        1.0  0.36342  0.69776  0.72398  1.0000
  H   H2        1.0  0.66583  0.30234  0.77604  1.0000
  H   H3        1.0  0.63658  0.30224  0.27602  1.0000
  H   H4        1.0  0.33417  0.69767  0.22396  1.0000
  H   H5        1.0  0.16110  0.37704  0.65893  1.0000
  H   H6        1.0  0.78432  0.62305  0.84109  1.0000
  H   H7        1.0  0.83890  0.62296  0.34107  1.0000
  H   H8        1.0  0.21569  0.37696  0.15892  1.0000
  H   H9        1.0  0.31194  0.21510  0.58689  1.0000
  H   H10       1.0  0.09715  0.78496  0.91310  1.0000
  H   H11       1.0  0.68806  0.78490  0.41311  1.0000
  H   H12       1.0  0.90285  0.21504  0.08691  1.0000
  H   H13       1.0  0.24878  0.67134  0.49670  1.0000
  H   H14       1.0  0.57735  0.32874  0.00350  1.0000
  H   H15       1.0  0.75122  0.32866  0.50331  1.0000
  H   H16       1.0  0.42265  0.67126  0.99650  1.0000
  H   H17       1.0  0.37722  0.88808  0.55677  1.0000
  H   H18       1.0  0.48916  0.11206  0.94341  1.0000
  H   H19       1.0  0.62277  0.11192  0.44323  1.0000
  H   H20       1.0  0.51084  0.88794  0.05659  1.0000
  C   C1        1.0  0.41410  0.61696  0.68728  1.0000
  C   C2        1.0  0.79735  0.38315  0.81269  1.0000
  C   C3        1.0  0.58589  0.38304  0.31272  1.0000
  C   C4        1.0  0.20265  0.61685  0.18732  1.0000
  C   C5        1.0  0.30519  0.44305  0.65385  1.0000
  C   C6        1.0  0.86240  0.55707  0.84615  1.0000
  C   C7        1.0  0.69480  0.55695  0.34615  1.0000
  C   C8        1.0  0.13760  0.44293  0.15385  1.0000
  C   C9        1.0  0.38836  0.35339  0.61109  1.0000
  C   C10       1.0  0.03527  0.64669  0.88887  1.0000
  C   C11       1.0  0.61164  0.64661  0.38891  1.0000
  C   C12       1.0  0.96473  0.35331  0.11113  1.0000
  C   C13       1.0  0.65709  0.59853  0.63210  1.0000
  C   C14       1.0  0.05881  0.40153  0.86777  1.0000
  C   C15       1.0  0.34290  0.40147  0.36790  1.0000
  C   C16       1.0  0.94119  0.59847  0.13223  1.0000
  C   C17       1.0  0.84960  0.69109  0.61959  1.0000
  C   C18       1.0  0.15874  0.30898  0.88026  1.0000
  C   C19       1.0  0.15040  0.30890  0.38041  1.0000
  C   C20       1.0  0.84126  0.69102  0.11974  1.0000
  C   C21       1.0  0.25326  0.79644  0.51423  1.0000
  C   C22       1.0  0.45674  0.20363  0.98594  1.0000
  C   C23       1.0  0.74674  0.20356  0.48577  1.0000
  C   C24       1.0  0.54326  0.79636  0.01405  1.0000
  C   C25       1.0  0.24170  0.86720  0.41814  1.0000
  C   C26       1.0  0.37423  0.13275  0.08196  1.0000
  C   C27       1.0  0.75830  0.13280  0.58186  1.0000
  C   C28       1.0  0.62577  0.86725  0.91803  1.0000
  N   N1        1.0  0.59064  0.69520  0.67696  1.0000
  N   N2        1.0  0.89565  0.30490  0.82297  1.0000
  N   N3        1.0  0.40936  0.30480  0.32304  1.0000
  N   N4        1.0  0.10435  0.69510  0.17704  1.0000
  N   N5        1.0  0.56445  0.43038  0.59906  1.0000
  N   N6        1.0  0.13434  0.56967  0.90084  1.0000
  N   N7        1.0  0.43555  0.56962  0.40093  1.0000
  N   N8        1.0  0.86566  0.43033  0.09916  1.0000
  N   N9        1.0  0.94244  0.63798  0.56123  1.0000
  N   N10       1.0  0.30456  0.36208  0.93873  1.0000
  N   N11       1.0  0.05756  0.36202  0.43877  1.0000
  N   N12       1.0  0.69544  0.63792  0.06127  1.0000
  N   N13       1.0  0.10558  0.77324  0.57419  1.0000
  N   N14       1.0  0.33238  0.22680  0.92587  1.0000
  N   N15       1.0  0.89441  0.22676  0.42581  1.0000
  N   N16       1.0  0.66762  0.77320  0.07413  1.0000
  N   N17       1.0  0.11692  0.90398  0.63627  1.0000
  N   N18       1.0  0.21306  0.09605  0.86375  1.0000
  N   N19       1.0  0.88308  0.09602  0.36372  1.0000
  N   N20       1.0  0.78694  0.90395  0.13625  1.0000
  N   N21       1.0  0.95515  0.85173  0.66564  1.0000
  N   N22       1.0  0.10366  0.14833  0.83426  1.0000
  N   N23       1.0  0.04485  0.14827  0.33436  1.0000
  N   N24       1.0  0.89634  0.85167  0.16574  1.0000
  O   O1        1.0  0.09453  0.85886  0.39359  1.0000
  O   O2        1.0  0.23545  0.14116  0.10652  1.0000
  O   O3        1.0  0.90547  0.14115  0.60641  1.0000
  O   O4        1.0  0.76455  0.85884  0.89348  1.0000
  O   O5        1.0  0.37926  0.92898  0.36879  1.0000
  O   O6        1.0  0.44993  0.07084  0.13126  1.0000
  O   O7        1.0  0.62074  0.07102  0.63121  1.0000
  O   O8        1.0  0.55007  0.92915  0.86873  1.0000
