data_image0
_chemical_formula_structural       Mn4H20C28N24Cl4O8
_chemical_formula_sum              "Mn4 H20 C28 N24 Cl4 O8"
_cell_length_a       6.87747
_cell_length_b       11.7629
_cell_length_c       12.9014
_cell_angle_alpha    89.9982
_cell_angle_beta     89.9976
_cell_angle_gamma    106.19

_space_group_name_H-M_alt    "P 1"
_space_group_IT_number       1

loop_
  _space_group_symop_operation_xyz
  'x, y, z'

loop_
  _atom_site_type_symbol
  _atom_site_label
  _atom_site_symmetry_multiplicity
  _atom_site_fract_x
  _atom_site_fract_y
  _atom_site_fract_z
  _atom_site_occupancy
  Mn  Mn1       1.0  0.01419  0.28955  0.83024  1.0000
  Mn  Mn2       1.0  0.48664  0.71115  0.32979  1.0000
  Mn  Mn3       1.0  0.98661  0.71117  0.17019  1.0000
  Mn  Mn4       1.0  0.51417  0.28953  0.66979  1.0000
  H   H1        1.0  0.41643  0.34412  0.19102  1.0000
  H   H2        1.0  0.08393  0.65628  0.69077  1.0000
  H   H3        1.0  0.58395  0.65631  0.80923  1.0000
  H   H4        1.0  0.91641  0.34412  0.30895  1.0000
  H   H5        1.0  0.37144  0.40615  0.06811  1.0000
  H   H6        1.0  0.12872  0.59407  0.56788  1.0000
  H   H7        1.0  0.62870  0.59409  0.93211  1.0000
  H   H8        1.0  0.87148  0.40616  0.43187  1.0000
  H   H9        1.0  0.29243  0.11421  0.90153  1.0000
  H   H10       1.0  0.20775  0.88589  0.40143  1.0000
  H   H11       1.0  0.70773  0.88590  0.09856  1.0000
  H   H12       1.0  0.79241  0.11418  0.59848  1.0000
  H   H13       1.0  0.37929  0.02611  0.07124  1.0000
  H   H14       1.0  0.12041  0.97367  0.57124  1.0000
  H   H15       1.0  0.62044  0.97370  0.92874  1.0000
  H   H16       1.0  0.87929  0.02609  0.42876  1.0000
  H   H17       1.0  0.18378  0.05018  0.22984  1.0000
  H   H18       1.0  0.31570  0.94946  0.72982  1.0000
  H   H19       1.0  0.81573  0.94946  0.77017  1.0000
  H   H20       1.0  0.68383  0.05020  0.27016  1.0000
  C   C1        1.0  0.56428  0.53255  0.16944  1.0000
  C   C2        1.0  0.93657  0.46784  0.66951  1.0000
  C   C3        1.0  0.43656  0.46785  0.83050  1.0000
  C   C4        1.0  0.06432  0.53257  0.33055  1.0000
  C   C5        1.0  0.99224  0.19672  0.06358  1.0000
  C   C6        1.0  0.50761  0.80318  0.56346  1.0000
  C   C7        1.0  0.00761  0.80317  0.93655  1.0000
  C   C8        1.0  0.49227  0.19673  0.43644  1.0000
  C   C9        1.0  0.48393  0.40521  0.12850  1.0000
  C   C10       1.0  0.01635  0.59505  0.62836  1.0000
  C   C11       1.0  0.51637  0.59506  0.87166  1.0000
  C   C12       1.0  0.98392  0.40522  0.37149  1.0000
  C   C13       1.0  0.21934  0.12253  0.97520  1.0000
  C   C14       1.0  0.28067  0.87745  0.47512  1.0000
  C   C15       1.0  0.78069  0.87746  0.02489  1.0000
  C   C16       1.0  0.71934  0.12253  0.52481  1.0000
  C   C17       1.0  0.26651  0.07496  0.06743  1.0000
  C   C18       1.0  0.23320  0.92483  0.56737  1.0000
  C   C19       1.0  0.73324  0.92485  0.93262  1.0000
  C   C20       1.0  0.76650  0.07495  0.43258  1.0000
  C   C21       1.0  0.85762  0.27318  0.05773  1.0000
  C   C22       1.0  0.64226  0.72675  0.55763  1.0000
  C   C23       1.0  0.14225  0.72673  0.94239  1.0000
  C   C24       1.0  0.35762  0.27319  0.44228  1.0000
  C   C25       1.0  0.15822  0.08857  0.15602  1.0000
  C   C26       1.0  0.34138  0.91115  0.65598  1.0000
  C   C27       1.0  0.84139  0.91115  0.84401  1.0000
  C   C28       1.0  0.65824  0.08857  0.34399  1.0000
  N   N1        1.0  0.64128  0.36225  0.08126  1.0000
  N   N2        1.0  0.85874  0.63780  0.58117  1.0000
  N   N3        1.0  0.35871  0.63780  0.91884  1.0000
  N   N4        1.0  0.14129  0.36224  0.41872  1.0000
  N   N5        1.0  0.72529  0.28728  0.12892  1.0000
  N   N6        1.0  0.77472  0.71278  0.62879  1.0000
  N   N7        1.0  0.27470  0.71279  0.87120  1.0000
  N   N8        1.0  0.22533  0.28727  0.37106  1.0000
  N   N9        1.0  0.07982  0.18290  0.97269  1.0000
  N   N10       1.0  0.42035  0.81719  0.47253  1.0000
  N   N11       1.0  0.92036  0.81721  0.02749  1.0000
  N   N12       1.0  0.57982  0.18290  0.52733  1.0000
  N   N13       1.0  0.71590  0.39557  0.98705  1.0000
  N   N14       1.0  0.78397  0.60436  0.48699  1.0000
  N   N15       1.0  0.28394  0.60436  0.01302  1.0000
  N   N16       1.0  0.21594  0.39558  0.51292  1.0000
  N   N17       1.0  0.85363  0.33920  0.97165  1.0000
  N   N18       1.0  0.64618  0.66069  0.47158  1.0000
  N   N19       1.0  0.14618  0.66068  0.02842  1.0000
  N   N20       1.0  0.35359  0.33920  0.52833  1.0000
  N   N21       1.0  0.02038  0.14981  0.15481  1.0000
  N   N22       1.0  0.47916  0.84986  0.65475  1.0000
  N   N23       1.0  0.97916  0.84986  0.84525  1.0000
  N   N24       1.0  0.52040  0.14981  0.34520  1.0000
  Cl  Cl1       1.0  0.15352  0.16657  0.70964  1.0000
  Cl  Cl2       1.0  0.34387  0.83199  0.21026  1.0000
  Cl  Cl3       1.0  0.84388  0.83202  0.28975  1.0000
  Cl  Cl4       1.0  0.65352  0.16654  0.79038  1.0000
  O   O1        1.0  0.69784  0.60436  0.11649  1.0000
  O   O2        1.0  0.80308  0.39575  0.61672  1.0000
  O   O3        1.0  0.30313  0.39578  0.88329  1.0000
  O   O4        1.0  0.19785  0.60435  0.38348  1.0000
  O   O5        1.0  0.48101  0.55347  0.25201  1.0000
  O   O6        1.0  0.02027  0.44725  0.75203  1.0000
  O   O7        1.0  0.52025  0.44725  0.74797  1.0000
  O   O8        1.0  0.98097  0.55351  0.24800  1.0000
