data_image0
_chemical_formula_structural       Cd3H38C54O22
_chemical_formula_sum              "Cd3 H38 C54 O22"
_cell_length_a       8.28454
_cell_length_b       8.22434
_cell_length_c       18.6997
_cell_angle_alpha    98.6622
_cell_angle_beta     98.3916
_cell_angle_gamma    106.015

_space_group_name_H-M_alt    "P 1"
_space_group_IT_number       1

loop_
  _space_group_symop_operation_xyz
  'x, y, z'

loop_
  _atom_site_type_symbol
  _atom_site_label
  _atom_site_symmetry_multiplicity
  _atom_site_fract_x
  _atom_site_fract_y
  _atom_site_fract_z
  _atom_site_occupancy
  Cd  Cd1       1.0  0.50001  0.50000  0.50000  1.0000
  Cd  Cd2       1.0  0.77072  0.94741  0.50997  1.0000
  Cd  Cd3       1.0  0.22931  0.05260  0.49003  1.0000
  H   H1        1.0  0.16791  0.34176  0.55809  1.0000
  H   H2        1.0  0.83210  0.65824  0.44191  1.0000
  H   H3        1.0  0.11137  0.34379  0.47130  1.0000
  H   H4        1.0  0.88863  0.65621  0.52870  1.0000
  H   H5        1.0  0.77351  0.29883  0.54068  1.0000
  H   H6        1.0  0.22652  0.70117  0.45932  1.0000
  H   H7        1.0  0.69585  0.22725  0.45868  1.0000
  H   H8        1.0  0.30418  0.77276  0.54133  1.0000
  H   H9        1.0  0.40952  0.55217  0.02319  1.0000
  H   H10       1.0  0.59047  0.44783  0.97680  1.0000
  H   H11       1.0  0.42502  0.92968  0.88428  1.0000
  H   H12       1.0  0.57497  0.07032  0.11571  1.0000
  H   H13       1.0  0.03105  0.82283  0.01344  1.0000
  H   H14       1.0  0.96893  0.17718  0.98655  1.0000
  H   H15       1.0  0.42399  0.84857  0.14341  1.0000
  H   H16       1.0  0.57599  0.15144  0.85659  1.0000
  H   H17       1.0  0.54271  0.89738  0.27765  1.0000
  H   H18       1.0  0.45729  0.10262  0.72235  1.0000
  H   H19       1.0  0.15014  0.44772  0.29569  1.0000
  H   H20       1.0  0.84988  0.55228  0.70431  1.0000
  H   H21       1.0  0.02765  0.40038  0.16049  1.0000
  H   H22       1.0  0.97236  0.59963  0.83952  1.0000
  H   H23       1.0  0.81969  0.93013  0.88938  1.0000
  H   H24       1.0  0.18029  0.06987  0.11062  1.0000
  H   H25       1.0  0.82924  0.98519  0.76122  1.0000
  H   H26       1.0  0.17076  0.01482  0.23879  1.0000
  H   H27       1.0  0.35935  0.57108  0.67772  1.0000
  H   H28       1.0  0.64067  0.42891  0.32227  1.0000
  H   H29       1.0  0.35018  0.51887  0.80468  1.0000
  H   H30       1.0  0.64983  0.48111  0.19531  1.0000
  H   H31       1.0  0.16281  0.79493  0.79787  1.0000
  H   H32       1.0  0.83716  0.20507  0.20213  1.0000
  H   H33       1.0  0.12841  0.86449  0.67324  1.0000
  H   H34       1.0  0.87158  0.13551  0.32676  1.0000
  H   H35       1.0  0.09816  0.36310  0.76446  1.0000
  H   H36       1.0  0.90184  0.63691  0.23554  1.0000
  H   H37       1.0  0.13291  0.29661  0.89117  1.0000
  H   H38       1.0  0.86709  0.70339  0.10883  1.0000
  C   C1        1.0  0.21868  0.68462  0.02447  1.0000
  C   C2        1.0  0.78130  0.31538  0.97553  1.0000
  C   C3        1.0  0.36034  0.64846  0.00162  1.0000
  C   C4        1.0  0.63964  0.35153  0.99838  1.0000
  C   C5        1.0  0.43092  0.73566  0.94955  1.0000
  C   C6        1.0  0.56906  0.26435  0.05045  1.0000
  C   C7        1.0  0.36521  0.85903  0.92292  1.0000
  C   C8        1.0  0.63478  0.14098  0.07708  1.0000
  C   C9        1.0  0.22171  0.88847  0.94599  1.0000
  C   C10       1.0  0.77827  0.11152  0.05401  1.0000
  C   C11       1.0  0.14530  0.80150  0.99686  1.0000
  C   C12       1.0  0.85468  0.19850  0.00314  1.0000
  C   C13       1.0  0.21813  0.62224  0.14494  1.0000
  C   C14       1.0  0.78187  0.37777  0.85507  1.0000
  C   C15       1.0  0.36472  0.76101  0.17684  1.0000
  C   C16       1.0  0.63528  0.23901  0.82317  1.0000
  C   C17       1.0  0.43051  0.78811  0.25190  1.0000
  C   C18       1.0  0.56949  0.21190  0.74810  1.0000
  C   C19       1.0  0.35395  0.67678  0.29540  1.0000
  C   C20       1.0  0.64605  0.32322  0.70460  1.0000
  C   C21       1.0  0.20834  0.53593  0.26211  1.0000
  C   C22       1.0  0.79167  0.46407  0.73789  1.0000
  C   C23       1.0  0.14027  0.50864  0.18743  1.0000
  C   C24       1.0  0.85973  0.49138  0.81257  1.0000
  C   C25       1.0  0.43004  0.70392  0.37514  1.0000
  C   C26       1.0  0.56996  0.29608  0.62485  1.0000
  C   C27       1.0  0.58214  0.72466  0.85349  1.0000
  C   C28       1.0  0.41785  0.27534  0.14651  1.0000
  C   C29       1.0  0.72067  0.85260  0.84245  1.0000
  C   C30       1.0  0.27932  0.14741  0.15756  1.0000
  C   C31       1.0  0.72581  0.88224  0.77119  1.0000
  C   C32       1.0  0.27419  0.11777  0.22882  1.0000
  C   C33       1.0  0.59492  0.78450  0.71160  1.0000
  C   C34       1.0  0.40509  0.21550  0.28840  1.0000
  C   C35       1.0  0.45954  0.65179  0.72369  1.0000
  C   C36       1.0  0.54048  0.34821  0.27630  1.0000
  C   C37       1.0  0.45346  0.62181  0.79452  1.0000
  C   C38       1.0  0.54655  0.37818  0.20548  1.0000
  C   C39       1.0  0.59896  0.81822  0.63560  1.0000
  C   C40       1.0  0.40106  0.18178  0.36440  1.0000
  C   C41       1.0  0.15097  0.04303  0.85218  1.0000
  C   C42       1.0  0.84902  0.95697  0.14782  1.0000
  C   C43       1.0  0.14990  0.92016  0.79123  1.0000
  C   C44       1.0  0.85008  0.07983  0.20876  1.0000
  C   C45       1.0  0.13089  0.95925  0.72124  1.0000
  C   C46       1.0  0.86910  0.04074  0.27875  1.0000
  C   C47       1.0  0.11471  0.11990  0.71131  1.0000
  C   C48       1.0  0.88528  0.88010  0.28869  1.0000
  C   C49       1.0  0.11613  0.24078  0.77290  1.0000
  C   C50       1.0  0.88387  0.75922  0.22710  1.0000
  C   C51       1.0  0.13428  0.20384  0.84321  1.0000
  C   C52       1.0  0.86572  0.79616  0.15679  1.0000
  C   C53       1.0  0.09959  0.16285  0.63661  1.0000
  C   C54       1.0  0.90042  0.83715  0.36339  1.0000
  O   O1        1.0  0.13737  0.59123  0.07215  1.0000
  O   O2        1.0  0.86262  0.40877  0.92785  1.0000
  O   O3        1.0  0.56980  0.69947  0.92525  1.0000
  O   O4        1.0  0.43018  0.30052  0.07476  1.0000
  O   O5        1.0  0.15345  0.01196  0.92298  1.0000
  O   O6        1.0  0.84653  0.98803  0.07702  1.0000
  O   O7        1.0  0.35583  0.58986  0.41038  1.0000
  O   O8        1.0  0.64418  0.41013  0.58961  1.0000
  O   O9        1.0  0.55954  0.83408  0.40357  1.0000
  O   O10       1.0  0.44047  0.16593  0.59643  1.0000
  O   O11       1.0  0.47477  0.72267  0.58331  1.0000
  O   O12       1.0  0.52525  0.27733  0.41669  1.0000
  O   O13       1.0  0.72377  0.93675  0.62536  1.0000
  O   O14       1.0  0.27624  0.06325  0.37464  1.0000
  O   O15       1.0  0.05996  0.03600  0.58064  1.0000
  O   O16       1.0  0.94007  0.96399  0.41936  1.0000
  O   O17       1.0  0.12818  0.31992  0.63126  1.0000
  O   O18       1.0  0.87185  0.68008  0.36874  1.0000
  O   O19       1.0  0.20874  0.34256  0.50726  1.0000
  O   O20       1.0  0.79127  0.65745  0.49274  1.0000
  O   O21       1.0  0.79306  0.22724  0.49721  1.0000
  O   O22       1.0  0.20696  0.77276  0.50279  1.0000
