data_image0
_chemical_formula_structural       H44Pb2C24O8
_chemical_formula_sum              "H44 Pb2 C24 O8"
_cell_length_a       4.69053
_cell_length_b       7.22732
_cell_length_c       20.8388
_cell_angle_alpha    88.5189
_cell_angle_beta     83.9004
_cell_angle_gamma    88.413

_space_group_name_H-M_alt    "P 1"
_space_group_IT_number       1

loop_
  _space_group_symop_operation_xyz
  'x, y, z'

loop_
  _atom_site_type_symbol
  _atom_site_label
  _atom_site_symmetry_multiplicity
  _atom_site_fract_x
  _atom_site_fract_y
  _atom_site_fract_z
  _atom_site_occupancy
  H   H1        1.0  0.44366  0.07765  0.14046  1.0000
  H   H2        1.0  0.55633  0.92236  0.85953  1.0000
  H   H3        1.0  0.35230  0.31818  0.13654  1.0000
  H   H4        1.0  0.64770  0.68183  0.86346  1.0000
  H   H5        1.0  0.88679  0.16421  0.19500  1.0000
  H   H6        1.0  0.11321  0.83579  0.80500  1.0000
  H   H7        1.0  0.75040  0.39475  0.19793  1.0000
  H   H8        1.0  0.24960  0.60525  0.80207  1.0000
  H   H9        1.0  0.46107  0.05082  0.26213  1.0000
  H   H10       1.0  0.53892  0.94917  0.73786  1.0000
  H   H11       1.0  0.29543  0.27224  0.26281  1.0000
  H   H12       1.0  0.70456  0.72776  0.73719  1.0000
  H   H13       1.0  0.85972  0.17496  0.31956  1.0000
  H   H14       1.0  0.14027  0.82504  0.68044  1.0000
  H   H15       1.0  0.69184  0.39544  0.32032  1.0000
  H   H16       1.0  0.30814  0.60456  0.67968  1.0000
  H   H17       1.0  0.43261  0.04370  0.38716  1.0000
  H   H18       1.0  0.56738  0.95630  0.61284  1.0000
  H   H19       1.0  0.25582  0.26325  0.38715  1.0000
  H   H20       1.0  0.74418  0.73675  0.61285  1.0000
  H   H21       1.0  0.57129  0.23072  0.42666  1.0000
  H   H22       1.0  0.42870  0.76928  0.57334  1.0000
  H   H23       1.0  0.26368  0.54204  0.21809  1.0000
  H   H24       1.0  0.73632  0.45795  0.78192  1.0000
  H   H25       1.0  0.42869  0.75553  0.21462  1.0000
  H   H26       1.0  0.57133  0.24445  0.78538  1.0000
  H   H27       1.0  0.82156  0.67600  0.28091  1.0000
  H   H28       1.0  0.17845  0.32400  0.71909  1.0000
  H   H29       1.0  0.97571  0.89502  0.27713  1.0000
  H   H30       1.0  0.02431  0.10498  0.72287  1.0000
  H   H31       1.0  0.37777  0.76911  0.33750  1.0000
  H   H32       1.0  0.62224  0.23088  0.66250  1.0000
  H   H33       1.0  0.22701  0.54869  0.34128  1.0000
  H   H34       1.0  0.77299  0.45131  0.65872  1.0000
  H   H35       1.0  0.79236  0.66626  0.40730  1.0000
  H   H36       1.0  0.20764  0.33373  0.59269  1.0000
  H   H37       1.0  0.91641  0.89421  0.39941  1.0000
  H   H38       1.0  0.08359  0.10579  0.60059  1.0000
  H   H39       1.0  0.33587  0.80541  0.46025  1.0000
  H   H40       1.0  0.66412  0.19460  0.53975  1.0000
  H   H41       1.0  0.22253  0.57311  0.46726  1.0000
  H   H42       1.0  0.77747  0.42690  0.53274  1.0000
  H   H43       1.0  0.00868  0.75135  0.50678  1.0000
  H   H44       1.0  0.99130  0.24866  0.49322  1.0000
  Pb  Pb1       1.0  0.77733  0.75089  0.04188  1.0000
  Pb  Pb2       1.0  0.22266  0.24909  0.95813  1.0000
  C   C1        1.0  0.72901  0.24118  0.07670  1.0000
  C   C2        1.0  0.27100  0.75883  0.92330  1.0000
  C   C3        1.0  0.53169  0.21702  0.13850  1.0000
  C   C4        1.0  0.46831  0.78297  0.86150  1.0000
  C   C5        1.0  0.68749  0.24911  0.19822  1.0000
  C   C6        1.0  0.31250  0.75090  0.80178  1.0000
  C   C7        1.0  0.50624  0.19984  0.26121  1.0000
  C   C8        1.0  0.49375  0.80016  0.73879  1.0000
  C   C9        1.0  0.64834  0.24620  0.32129  1.0000
  C   C10       1.0  0.35165  0.75381  0.67871  1.0000
  C   C11       1.0  0.46809  0.19347  0.38406  1.0000
  C   C12       1.0  0.53190  0.80653  0.61594  1.0000
  C   C13       1.0  0.09093  0.73649  0.15543  1.0000
  C   C14       1.0  0.90909  0.26351  0.84457  1.0000
  C   C15       1.0  0.21683  0.69230  0.21790  1.0000
  C   C16       1.0  0.78318  0.30769  0.78210  1.0000
  C   C17       1.0  0.02815  0.74562  0.27905  1.0000
  C   C18       1.0  0.97187  0.25438  0.72095  1.0000
  C   C19       1.0  0.17168  0.69796  0.34000  1.0000
  C   C20       1.0  0.82834  0.30203  0.66000  1.0000
  C   C21       1.0  0.98872  0.74805  0.40255  1.0000
  C   C22       1.0  0.01128  0.25195  0.59745  1.0000
  C   C23       1.0  0.14694  0.71778  0.46249  1.0000
  C   C24       1.0  0.85305  0.28224  0.53751  1.0000
  O   O1        1.0  0.76632  0.10734  0.03686  1.0000
  O   O2        1.0  0.23372  0.89267  0.96314  1.0000
  O   O3        1.0  0.85726  0.39278  0.06500  1.0000
  O   O4        1.0  0.14274  0.60723  0.93500  1.0000
  O   O5        1.0  0.24022  0.70501  0.10136  1.0000
  O   O6        1.0  0.75980  0.29499  0.89864  1.0000
  O   O7        1.0  0.83354  0.79940  0.15709  1.0000
  O   O8        1.0  0.16648  0.20060  0.84291  1.0000
