data_image0
_chemical_formula_structural       H44Pb2C24O8
_chemical_formula_sum              "H44 Pb2 C24 O8"
_cell_length_a       4.69439
_cell_length_b       7.2103
_cell_length_c       20.8051
_cell_angle_alpha    87.5297
_cell_angle_beta     83.6894
_cell_angle_gamma    90.6236

_space_group_name_H-M_alt    "P 1"
_space_group_IT_number       1

loop_
  _space_group_symop_operation_xyz
  'x, y, z'

loop_
  _atom_site_type_symbol
  _atom_site_label
  _atom_site_symmetry_multiplicity
  _atom_site_fract_x
  _atom_site_fract_y
  _atom_site_fract_z
  _atom_site_occupancy
  H   H1        1.0  0.42598  0.69949  0.21513  1.0000
  H   H2        1.0  0.57401  0.30051  0.78487  1.0000
  H   H3        1.0  0.26137  0.91463  0.21765  1.0000
  H   H4        1.0  0.73860  0.08537  0.78235  1.0000
  H   H5        1.0  0.97576  0.55261  0.27823  1.0000
  H   H6        1.0  0.02421  0.44739  0.72177  1.0000
  H   H7        1.0  0.81316  0.77060  0.27907  1.0000
  H   H8        1.0  0.18682  0.22941  0.72093  1.0000
  H   H9        1.0  0.20889  0.89506  0.33947  1.0000
  H   H10       1.0  0.79109  0.10493  0.66054  1.0000
  H   H11       1.0  0.36176  0.67353  0.34045  1.0000
  H   H12       1.0  0.63823  0.32646  0.65955  1.0000
  H   H13       1.0  0.76086  0.76802  0.40299  1.0000
  H   H14       1.0  0.23913  0.23196  0.59701  1.0000
  H   H15       1.0  0.90587  0.54385  0.40323  1.0000
  H   H16       1.0  0.09413  0.45613  0.59678  1.0000
  H   H17       1.0  0.95958  0.69616  0.50779  1.0000
  H   H18       1.0  0.04044  0.30383  0.49221  1.0000
  H   H19       1.0  0.16075  0.88086  0.46485  1.0000
  H   H20       1.0  0.83927  0.11913  0.53515  1.0000
  H   H21       1.0  0.30095  0.65335  0.46606  1.0000
  H   H22       1.0  0.69906  0.34664  0.53394  1.0000
  H   H23       1.0  0.44425  0.40161  0.14214  1.0000
  H   H24       1.0  0.55576  0.59840  0.85786  1.0000
  H   H25       1.0  0.34958  0.16263  0.13851  1.0000
  H   H26       1.0  0.65041  0.83738  0.86148  1.0000
  H   H27       1.0  0.74948  0.06784  0.19905  1.0000
  H   H28       1.0  0.25051  0.93217  0.80094  1.0000
  H   H29       1.0  0.88424  0.29830  0.19649  1.0000
  H   H30       1.0  0.11576  0.70170  0.80351  1.0000
  H   H31       1.0  0.45600  0.40015  0.26463  1.0000
  H   H32       1.0  0.54401  0.59985  0.73537  1.0000
  H   H33       1.0  0.29575  0.17813  0.26543  1.0000
  H   H34       1.0  0.70425  0.82187  0.73457  1.0000
  H   H35       1.0  0.85990  0.26307  0.32090  1.0000
  H   H36       1.0  0.14011  0.73692  0.67909  1.0000
  H   H37       1.0  0.69432  0.04281  0.32218  1.0000
  H   H38       1.0  0.30568  0.95718  0.67781  1.0000
  H   H39       1.0  0.57402  0.18484  0.42890  1.0000
  H   H40       1.0  0.42598  0.81516  0.57110  1.0000
  H   H41       1.0  0.25783  0.16606  0.38995  1.0000
  H   H42       1.0  0.74217  0.83394  0.61005  1.0000
  H   H43       1.0  0.43591  0.38356  0.39041  1.0000
  H   H44       1.0  0.56410  0.61644  0.60959  1.0000
  Pb  Pb1       1.0  0.77656  0.74187  0.04148  1.0000
  Pb  Pb2       1.0  0.22345  0.25813  0.95852  1.0000
  C   C1        1.0  0.09137  0.73274  0.15495  1.0000
  C   C2        1.0  0.90865  0.26727  0.84506  1.0000
  C   C3        1.0  0.21429  0.76450  0.21773  1.0000
  C   C4        1.0  0.78570  0.23550  0.78227  1.0000
  C   C5        1.0  0.02199  0.70253  0.27887  1.0000
  C   C6        1.0  0.97800  0.29747  0.72113  1.0000
  C   C7        1.0  0.15568  0.74555  0.34031  1.0000
  C   C8        1.0  0.84430  0.25444  0.65969  1.0000
  C   C9        1.0  0.96391  0.69253  0.40272  1.0000
  C   C10       1.0  0.03609  0.30746  0.59728  1.0000
  C   C11       1.0  0.10331  0.73277  0.46370  1.0000
  C   C12       1.0  0.89670  0.26722  0.53630  1.0000
  C   C13       1.0  0.72703  0.24556  0.07808  1.0000
  C   C14       1.0  0.27297  0.75446  0.92192  1.0000
  C   C15       1.0  0.52996  0.26080  0.14022  1.0000
  C   C16       1.0  0.47003  0.73921  0.85978  1.0000
  C   C17       1.0  0.68561  0.21423  0.19984  1.0000
  C   C18       1.0  0.31439  0.78578  0.80016  1.0000
  C   C19       1.0  0.50466  0.25103  0.26341  1.0000
  C   C20       1.0  0.49534  0.74897  0.73659  1.0000
  C   C21       1.0  0.64943  0.19242  0.32324  1.0000
  C   C22       1.0  0.35058  0.80757  0.67676  1.0000
  C   C23       1.0  0.47043  0.23368  0.38661  1.0000
  C   C24       1.0  0.52957  0.76632  0.61339  1.0000
  O   O1        1.0  0.83515  0.67039  0.15663  1.0000
  O   O2        1.0  0.16485  0.32962  0.84337  1.0000
  O   O3        1.0  0.24098  0.77410  0.10074  1.0000
  O   O4        1.0  0.75903  0.22591  0.89926  1.0000
  O   O5        1.0  0.76603  0.38708  0.03805  1.0000
  O   O6        1.0  0.23396  0.61294  0.96195  1.0000
  O   O7        1.0  0.85309  0.09394  0.06629  1.0000
  O   O8        1.0  0.14693  0.90608  0.93371  1.0000
