data_image0
_chemical_formula_structural       H36Pb2C20O8
_chemical_formula_sum              "H36 Pb2 C20 O8"
_cell_length_a       4.65888
_cell_length_b       7.20922
_cell_length_c       18.1829
_cell_angle_alpha    92.5823
_cell_angle_beta     97.0602
_cell_angle_gamma    88.9627

_space_group_name_H-M_alt    "P 1"
_space_group_IT_number       1

loop_
  _space_group_symop_operation_xyz
  'x, y, z'

loop_
  _atom_site_type_symbol
  _atom_site_label
  _atom_site_symmetry_multiplicity
  _atom_site_fract_x
  _atom_site_fract_y
  _atom_site_fract_z
  _atom_site_occupancy
  H   H1        1.0  0.84143  0.27651  0.61025  1.0000
  H   H2        1.0  0.15856  0.72348  0.38975  1.0000
  H   H3        1.0  0.71605  0.04703  0.60575  1.0000
  H   H4        1.0  0.28393  0.95298  0.39425  1.0000
  H   H5        1.0  0.76622  0.04017  0.74866  1.0000
  H   H6        1.0  0.23378  0.95982  0.25134  1.0000
  H   H7        1.0  0.91556  0.26012  0.75190  1.0000
  H   H8        1.0  0.08443  0.73988  0.24811  1.0000
  H   H9        1.0  0.35288  0.64924  0.77403  1.0000
  H   H10       1.0  0.64712  0.35077  0.22597  1.0000
  H   H11       1.0  0.23044  0.88301  0.77244  1.0000
  H   H12       1.0  0.76957  0.11700  0.22756  1.0000
  H   H13       1.0  0.54508  0.20561  0.48798  1.0000
  H   H14       1.0  0.45493  0.79438  0.51202  1.0000
  H   H15       1.0  0.36918  0.38042  0.53864  1.0000
  H   H16       1.0  0.63081  0.61957  0.46135  1.0000
  H   H17       1.0  0.24598  0.14824  0.53383  1.0000
  H   H18       1.0  0.75403  0.85176  0.46617  1.0000
  H   H19       1.0  0.96870  0.68091  0.57962  1.0000
  H   H20       1.0  0.03128  0.31910  0.42038  1.0000
  H   H21       1.0  0.31105  0.64147  0.63103  1.0000
  H   H22       1.0  0.68892  0.35853  0.36896  1.0000
  H   H23       1.0  0.16246  0.86908  0.62703  1.0000
  H   H24       1.0  0.83752  0.13092  0.37296  1.0000
  H   H25       1.0  0.83114  0.81285  0.84380  1.0000
  H   H26       1.0  0.16888  0.18717  0.15620  1.0000
  H   H27       1.0  0.91556  0.57104  0.83872  1.0000
  H   H28       1.0  0.08445  0.42898  0.16128  1.0000
  H   H29       1.0  0.30589  0.15286  0.67728  1.0000
  H   H30       1.0  0.69410  0.84713  0.32272  1.0000
  H   H31       1.0  0.43707  0.37996  0.68276  1.0000
  H   H32       1.0  0.56291  0.62003  0.31724  1.0000
  H   H33       1.0  0.76076  0.77217  0.69782  1.0000
  H   H34       1.0  0.23923  0.22784  0.30218  1.0000
  H   H35       1.0  0.89987  0.54414  0.69986  1.0000
  H   H36       1.0  0.10012  0.45587  0.30014  1.0000
  Pb  Pb1       1.0  0.27620  0.24814  0.95143  1.0000
  Pb  Pb2       1.0  0.72377  0.75182  0.04857  1.0000
  C   C1        1.0  0.64407  0.19344  0.60826  1.0000
  C   C2        1.0  0.35592  0.80655  0.39174  1.0000
  C   C3        1.0  0.70736  0.18878  0.74889  1.0000
  C   C4        1.0  0.29263  0.81122  0.25111  1.0000
  C   C5        1.0  0.15788  0.73827  0.77165  1.0000
  C   C6        1.0  0.84213  0.26173  0.22835  1.0000
  C   C7        1.0  0.44068  0.23412  0.53834  1.0000
  C   C8        1.0  0.55933  0.76588  0.46166  1.0000
  C   C9        1.0  0.58694  0.23224  0.82118  1.0000
  C   C10       1.0  0.41304  0.76775  0.17883  1.0000
  C   C11       1.0  0.10851  0.72210  0.63057  1.0000
  C   C12       1.0  0.89147  0.27791  0.36943  1.0000
  C   C13       1.0  0.00823  0.71032  0.84084  1.0000
  C   C14       1.0  0.99179  0.28969  0.15916  1.0000
  C   C15       1.0  0.50557  0.23323  0.67934  1.0000
  C   C16       1.0  0.49442  0.76678  0.32067  1.0000
  C   C17       1.0  0.21485  0.73705  0.91146  1.0000
  C   C18       1.0  0.78520  0.26297  0.08854  1.0000
  C   C19       1.0  0.96348  0.69045  0.69968  1.0000
  C   C20       1.0  0.03651  0.30956  0.30032  1.0000
  O   O1        1.0  0.34714  0.88962  0.92471  1.0000
  O   O2        1.0  0.65292  0.11036  0.07529  1.0000
  O   O3        1.0  0.73837  0.19471  0.88270  1.0000
  O   O4        1.0  0.26165  0.80527  0.11730  1.0000
  O   O5        1.0  0.33266  0.30131  0.82014  1.0000
  O   O6        1.0  0.66735  0.69866  0.17987  1.0000
  O   O7        1.0  0.25437  0.60518  0.95727  1.0000
  O   O8        1.0  0.74564  0.39481  0.04273  1.0000
