data_image0
_chemical_formula_structural       Ca2H20C24N4Cl4O12
_chemical_formula_sum              "Ca2 H20 C24 N4 Cl4 O12"
_cell_length_a       7.80055
_cell_length_b       10.7509
_cell_length_c       10.8138
_cell_angle_alpha    98.9087
_cell_angle_beta     98.0644
_cell_angle_gamma    97.1236

_space_group_name_H-M_alt    "P 1"
_space_group_IT_number       1

loop_
  _space_group_symop_operation_xyz
  'x, y, z'

loop_
  _atom_site_type_symbol
  _atom_site_label
  _atom_site_symmetry_multiplicity
  _atom_site_fract_x
  _atom_site_fract_y
  _atom_site_fract_z
  _atom_site_occupancy
  Ca  Ca1       1.0  0.75329  0.97978  0.54552  1.0000
  Ca  Ca2       1.0  0.24671  0.02022  0.45448  1.0000
  H   H1        1.0  0.98265  0.79392  0.56794  1.0000
  H   H2        1.0  0.01734  0.20608  0.43206  1.0000
  H   H3        1.0  0.79816  0.70785  0.53750  1.0000
  H   H4        1.0  0.20184  0.29215  0.46250  1.0000
  H   H5        1.0  0.71375  0.02490  0.81950  1.0000
  H   H6        1.0  0.28625  0.97509  0.18050  1.0000
  H   H7        1.0  0.56225  0.08345  0.74188  1.0000
  H   H8        1.0  0.43775  0.91655  0.25813  1.0000
  H   H9        1.0  0.02780  0.27600  0.82684  1.0000
  H   H10       1.0  0.97220  0.72401  0.17317  1.0000
  H   H11       1.0  0.00259  0.32778  0.05920  1.0000
  H   H12       1.0  0.99742  0.67221  0.94081  1.0000
  H   H13       1.0  0.12723  0.19093  0.20667  1.0000
  H   H14       1.0  0.87278  0.80906  0.79333  1.0000
  H   H15       1.0  0.45975  0.24313  0.24972  1.0000
  H   H16       1.0  0.54025  0.75687  0.75028  1.0000
  H   H17       1.0  0.42268  0.44789  0.17003  1.0000
  H   H18       1.0  0.57732  0.55211  0.82996  1.0000
  H   H19       1.0  0.58156  0.65384  0.30630  1.0000
  H   H20       1.0  0.41843  0.34616  0.69369  1.0000
  C   C1        1.0  0.18993  0.09003  0.71640  1.0000
  C   C2        1.0  0.81008  0.90997  0.28360  1.0000
  C   C3        1.0  0.22780  0.04739  0.94311  1.0000
  C   C4        1.0  0.77220  0.95261  0.05689  1.0000
  C   C5        1.0  0.16874  0.11990  0.85326  1.0000
  C   C6        1.0  0.83126  0.88010  0.14674  1.0000
  C   C7        1.0  0.08371  0.22162  0.89549  1.0000
  C   C8        1.0  0.91629  0.77838  0.10451  1.0000
  C   C9        1.0  0.06881  0.24958  0.02339  1.0000
  C   C10       1.0  0.93120  0.75042  0.97661  1.0000
  C   C11       1.0  0.13612  0.17315  0.10551  1.0000
  C   C12       1.0  0.86389  0.82684  0.89450  1.0000
  C   C13       1.0  0.66544  0.21195  0.45964  1.0000
  C   C14       1.0  0.33456  0.78805  0.54036  1.0000
  C   C15       1.0  0.72540  0.45486  0.48167  1.0000
  C   C16       1.0  0.27460  0.54514  0.51833  1.0000
  C   C17       1.0  0.64195  0.33532  0.41516  1.0000
  C   C18       1.0  0.35804  0.66468  0.58484  1.0000
  C   C19       1.0  0.53018  0.33416  0.30192  1.0000
  C   C20       1.0  0.46982  0.66584  0.69808  1.0000
  C   C21       1.0  0.50891  0.44751  0.25840  1.0000
  C   C22       1.0  0.49109  0.55249  0.74160  1.0000
  C   C23       1.0  0.59613  0.56119  0.33281  1.0000
  C   C24       1.0  0.40387  0.43881  0.66718  1.0000
  N   N1        1.0  0.21311  0.07220  0.06513  1.0000
  N   N2        1.0  0.78689  0.92780  0.93487  1.0000
  N   N3        1.0  0.70088  0.56390  0.44340  1.0000
  N   N4        1.0  0.29911  0.43610  0.55660  1.0000
  Cl  Cl1       1.0  0.31874  0.91217  0.89446  1.0000
  Cl  Cl2       1.0  0.68126  0.08783  0.10554  1.0000
  Cl  Cl3       1.0  0.86398  0.46828  0.62510  1.0000
  Cl  Cl4       1.0  0.13602  0.53173  0.37490  1.0000
  O   O1        1.0  0.05318  0.05157  0.63505  1.0000
  O   O2        1.0  0.94682  0.94843  0.36495  1.0000
  O   O3        1.0  0.34265  0.10740  0.68787  1.0000
  O   O4        1.0  0.65735  0.89260  0.31213  1.0000
  O   O5        1.0  0.81964  0.18681  0.48537  1.0000
  O   O6        1.0  0.18036  0.81320  0.51464  1.0000
  O   O7        1.0  0.52978  0.13769  0.46785  1.0000
  O   O8        1.0  0.47022  0.86231  0.53215  1.0000
  O   O9        1.0  0.86143  0.79166  0.58684  1.0000
  O   O10       1.0  0.13857  0.20834  0.41316  1.0000
  O   O11       1.0  0.68538  0.06852  0.74590  1.0000
  O   O12       1.0  0.31463  0.93147  0.25410  1.0000
