data_image0
_chemical_formula_structural       Cd4H40C68S4N12Cl4O16
_chemical_formula_sum              "Cd4 H40 C68 S4 N12 Cl4 O16"
_cell_length_a       7.27592
_cell_length_b       10.7163
_cell_length_c       21.7239
_cell_angle_alpha    90.0003
_cell_angle_beta     89.2828
_cell_angle_gamma    89.9996

_space_group_name_H-M_alt    "P 1"
_space_group_IT_number       1

loop_
  _space_group_symop_operation_xyz
  'x, y, z'

loop_
  _atom_site_type_symbol
  _atom_site_label
  _atom_site_symmetry_multiplicity
  _atom_site_fract_x
  _atom_site_fract_y
  _atom_site_fract_z
  _atom_site_occupancy
  Cd  Cd1       1.0  0.02144  0.65332  0.69337  1.0000
  Cd  Cd2       1.0  0.47857  0.15331  0.30663  1.0000
  Cd  Cd3       1.0  0.97857  0.34668  0.30663  1.0000
  Cd  Cd4       1.0  0.52144  0.84669  0.69337  1.0000
  H   H1        1.0  0.04007  0.73036  0.91623  1.0000
  H   H2        1.0  0.45990  0.23038  0.08377  1.0000
  H   H3        1.0  0.95993  0.26963  0.08377  1.0000
  H   H4        1.0  0.54008  0.76964  0.91623  1.0000
  H   H5        1.0  0.34128  0.05351  0.98723  1.0000
  H   H6        1.0  0.15867  0.55353  0.01278  1.0000
  H   H7        1.0  0.65869  0.94649  0.01277  1.0000
  H   H8        1.0  0.84129  0.44648  0.98723  1.0000
  H   H9        1.0  0.22362  0.50749  0.80888  1.0000
  H   H10       1.0  0.27637  0.00748  0.19112  1.0000
  H   H11       1.0  0.77636  0.49251  0.19112  1.0000
  H   H12       1.0  0.72363  0.99251  0.80888  1.0000
  H   H13       1.0  0.28864  0.29068  0.84521  1.0000
  H   H14       1.0  0.21135  0.79068  0.15479  1.0000
  H   H15       1.0  0.71135  0.70931  0.15479  1.0000
  H   H16       1.0  0.78865  0.20932  0.84521  1.0000
  H   H17       1.0  0.19594  0.10870  0.77749  1.0000
  H   H18       1.0  0.30407  0.60870  0.22251  1.0000
  H   H19       1.0  0.80407  0.89129  0.22251  1.0000
  H   H20       1.0  0.69594  0.39130  0.77749  1.0000
  H   H21       1.0  0.04756  0.03334  0.68337  1.0000
  H   H22       1.0  0.45246  0.53334  0.31664  1.0000
  H   H23       1.0  0.95246  0.96665  0.31663  1.0000
  H   H24       1.0  0.54755  0.46666  0.68337  1.0000
  H   H25       1.0  0.90098  0.07918  0.58410  1.0000
  H   H26       1.0  0.59904  0.57918  0.41590  1.0000
  H   H27       1.0  0.09903  0.92083  0.41590  1.0000
  H   H28       1.0  0.40098  0.42083  0.58410  1.0000
  H   H29       1.0  0.79702  0.23811  0.50574  1.0000
  H   H30       1.0  0.70300  0.73811  0.49425  1.0000
  H   H31       1.0  0.20299  0.76188  0.49425  1.0000
  H   H32       1.0  0.29703  0.26189  0.50574  1.0000
  H   H33       1.0  0.73328  0.45949  0.48040  1.0000
  H   H34       1.0  0.76673  0.95948  0.51960  1.0000
  H   H35       1.0  0.26672  0.54051  0.51959  1.0000
  H   H36       1.0  0.23330  0.04052  0.48040  1.0000
  H   H37       1.0  0.81646  0.62658  0.55893  1.0000
  H   H38       1.0  0.68352  0.12657  0.44107  1.0000
  H   H39       1.0  0.18352  0.37342  0.44107  1.0000
  H   H40       1.0  0.31650  0.87343  0.55892  1.0000
  C   C1        1.0  0.17595  0.82687  0.79699  1.0000
  C   C2        1.0  0.32406  0.32687  0.20301  1.0000
  C   C3        1.0  0.82405  0.17313  0.20301  1.0000
  C   C4        1.0  0.67596  0.67314  0.79699  1.0000
  C   C5        1.0  0.19702  0.86595  0.86247  1.0000
  C   C6        1.0  0.30297  0.36597  0.13754  1.0000
  C   C7        1.0  0.80298  0.13404  0.13753  1.0000
  C   C8        1.0  0.69703  0.63405  0.86247  1.0000
  C   C9        1.0  0.12569  0.81334  0.91540  1.0000
  C   C10       1.0  0.37428  0.31336  0.08460  1.0000
  C   C11       1.0  0.87431  0.18665  0.08459  1.0000
  C   C12       1.0  0.62569  0.68666  0.91540  1.0000
  C   C13       1.0  0.17683  0.88316  0.96804  1.0000
  C   C14       1.0  0.32312  0.38317  0.03196  1.0000
  C   C15       1.0  0.82316  0.11683  0.03196  1.0000
  C   C16       1.0  0.67683  0.61683  0.96804  1.0000
  C   C17       1.0  0.28612  0.98606  0.95511  1.0000
  C   C18       1.0  0.21384  0.48608  0.04490  1.0000
  C   C19       1.0  0.71387  0.01393  0.04489  1.0000
  C   C20       1.0  0.78611  0.51393  0.95511  1.0000
  C   C21       1.0  0.18533  0.42665  0.78126  1.0000
  C   C22       1.0  0.31467  0.92665  0.21874  1.0000
  C   C23       1.0  0.81466  0.57334  0.21874  1.0000
  C   C24       1.0  0.68533  0.07335  0.78126  1.0000
  C   C25       1.0  0.22042  0.30436  0.80147  1.0000
  C   C26       1.0  0.27958  0.80435  0.19853  1.0000
  C   C27       1.0  0.77957  0.69564  0.19853  1.0000
  C   C28       1.0  0.72043  0.19564  0.80147  1.0000
  C   C29       1.0  0.16968  0.20545  0.76476  1.0000
  C   C30       1.0  0.33032  0.70544  0.23524  1.0000
  C   C31       1.0  0.83032  0.79455  0.23524  1.0000
  C   C32       1.0  0.66968  0.29455  0.76476  1.0000
  C   C33       1.0  0.08343  0.22853  0.70811  1.0000
  C   C34       1.0  0.41659  0.72853  0.29189  1.0000
  C   C35       1.0  0.91659  0.77147  0.29189  1.0000
  C   C36       1.0  0.58342  0.27147  0.70811  1.0000
  C   C37       1.0  0.02583  0.12947  0.66863  1.0000
  C   C38       1.0  0.47420  0.62947  0.33137  1.0000
  C   C39       1.0  0.97418  0.87052  0.33137  1.0000
  C   C40       1.0  0.52582  0.37052  0.66863  1.0000
  C   C41       1.0  0.94505  0.15525  0.61373  1.0000
  C   C42       1.0  0.55499  0.65525  0.38627  1.0000
  C   C43       1.0  0.05498  0.84475  0.38627  1.0000
  C   C44       1.0  0.44505  0.34475  0.61373  1.0000
  C   C45       1.0  0.91476  0.28106  0.59445  1.0000
  C   C46       1.0  0.58526  0.78106  0.40555  1.0000
  C   C47       1.0  0.08525  0.71894  0.40555  1.0000
  C   C48       1.0  0.41477  0.21894  0.59445  1.0000
  C   C49       1.0  0.83270  0.31190  0.53795  1.0000
  C   C50       1.0  0.66732  0.81190  0.46205  1.0000
  C   C51       1.0  0.16732  0.68809  0.46205  1.0000
  C   C52       1.0  0.33270  0.18811  0.53795  1.0000
  C   C53       1.0  0.79662  0.43510  0.52394  1.0000
  C   C54       1.0  0.70339  0.93510  0.47606  1.0000
  C   C55       1.0  0.20338  0.56489  0.47606  1.0000
  C   C56       1.0  0.29663  0.06490  0.52394  1.0000
  C   C57       1.0  0.84401  0.52776  0.56664  1.0000
  C   C58       1.0  0.65600  0.02775  0.43336  1.0000
  C   C59       1.0  0.15600  0.47224  0.43336  1.0000
  C   C60       1.0  0.34403  0.97225  0.56664  1.0000
  C   C61       1.0  0.96365  0.38161  0.63384  1.0000
  C   C62       1.0  0.53635  0.88161  0.36616  1.0000
  C   C63       1.0  0.03635  0.61839  0.36615  1.0000
  C   C64       1.0  0.46366  0.11840  0.63384  1.0000
  C   C65       1.0  0.05236  0.35487  0.69152  1.0000
  C   C66       1.0  0.44763  0.85487  0.30848  1.0000
  C   C67       1.0  0.94764  0.64513  0.30848  1.0000
  C   C68       1.0  0.55237  0.14513  0.69152  1.0000
  S   S1        1.0  0.32664  0.99761  0.87856  1.0000
  S   S2        1.0  0.17333  0.49762  0.12145  1.0000
  S   S3        1.0  0.67335  0.00239  0.12144  1.0000
  S   S4        1.0  0.82665  0.50239  0.87856  1.0000
  N   N1        1.0  0.92678  0.50176  0.61924  1.0000
  N   N2        1.0  0.57322  0.00176  0.38076  1.0000
  N   N3        1.0  0.07322  0.49824  0.38076  1.0000
  N   N4        1.0  0.42680  0.99825  0.61924  1.0000
  N   N5        1.0  0.10286  0.45083  0.72822  1.0000
  N   N6        1.0  0.39715  0.95082  0.27178  1.0000
  N   N7        1.0  0.89714  0.54917  0.27178  1.0000
  N   N8        1.0  0.60285  0.04917  0.72822  1.0000
  N   N9        1.0  0.11987  0.85382  0.02999  1.0000
  N   N10       1.0  0.38008  0.35384  0.97002  1.0000
  N   N11       1.0  0.88011  0.14618  0.97001  1.0000
  N   N12       1.0  0.61987  0.64618  0.02999  1.0000
  Cl  Cl1       1.0  0.84611  0.82396  0.63428  1.0000
  Cl  Cl2       1.0  0.65390  0.32396  0.36572  1.0000
  Cl  Cl3       1.0  0.15389  0.17603  0.36572  1.0000
  Cl  Cl4       1.0  0.34612  0.67605  0.63428  1.0000
  O   O1        1.0  0.23791  0.89982  0.75578  1.0000
  O   O2        1.0  0.26211  0.39982  0.24422  1.0000
  O   O3        1.0  0.76209  0.10018  0.24421  1.0000
  O   O4        1.0  0.73792  0.60019  0.75579  1.0000
  O   O5        1.0  0.09451  0.72284  0.78873  1.0000
  O   O6        1.0  0.40549  0.22285  0.21127  1.0000
  O   O7        1.0  0.90549  0.27715  0.21127  1.0000
  O   O8        1.0  0.59453  0.77717  0.78873  1.0000
  O   O9        1.0  0.16132  0.92810  0.07165  1.0000
  O   O10       1.0  0.33864  0.42813  0.92835  1.0000
  O   O11       1.0  0.83867  0.07189  0.92835  1.0000
  O   O12       1.0  0.66131  0.57189  0.07165  1.0000
  O   O13       1.0  0.03034  0.75578  0.03889  1.0000
  O   O14       1.0  0.46959  0.25580  0.96111  1.0000
  O   O15       1.0  0.96963  0.24421  0.96110  1.0000
  O   O16       1.0  0.53035  0.74422  0.03890  1.0000
