data_image0
_chemical_formula_structural       Dy2H12C16N2O16
_chemical_formula_sum              "Dy2 H12 C16 N2 O16"
_cell_length_a       6.32863
_cell_length_b       9.41179
_cell_length_c       9.77527
_cell_angle_alpha    72.5035
_cell_angle_beta     80.5793
_cell_angle_gamma    82.4453

_space_group_name_H-M_alt    "P 1"
_space_group_IT_number       1

loop_
  _space_group_symop_operation_xyz
  'x, y, z'

loop_
  _atom_site_type_symbol
  _atom_site_label
  _atom_site_symmetry_multiplicity
  _atom_site_fract_x
  _atom_site_fract_y
  _atom_site_fract_z
  _atom_site_occupancy
  Dy  Dy1       1.0  0.59169  0.78984  0.80342  1.0000
  Dy  Dy2       1.0  0.40831  0.21016  0.19658  1.0000
  H   H1        1.0  0.71118  0.52171  0.45767  1.0000
  H   H2        1.0  0.28882  0.47830  0.54233  1.0000
  H   H3        1.0  0.94291  0.17287  0.89057  1.0000
  H   H4        1.0  0.05709  0.82714  0.10942  1.0000
  H   H5        1.0  0.88961  0.29439  0.43396  1.0000
  H   H6        1.0  0.11039  0.70561  0.56604  1.0000
  H   H7        1.0  0.02330  0.10799  0.65400  1.0000
  H   H8        1.0  0.97670  0.89200  0.34600  1.0000
  H   H9        1.0  0.05283  0.73164  0.85672  1.0000
  H   H10       1.0  0.94718  0.26836  0.14328  1.0000
  H   H11       1.0  0.06516  0.84623  0.70557  1.0000
  H   H12       1.0  0.93484  0.15377  0.29443  1.0000
  C   C1        1.0  0.71452  0.49335  0.67309  1.0000
  C   C2        1.0  0.28548  0.50665  0.32690  1.0000
  C   C3        1.0  0.43880  0.05869  0.94214  1.0000
  C   C4        1.0  0.56122  0.94131  0.05785  1.0000
  C   C5        1.0  0.38103  0.98306  0.51588  1.0000
  C   C6        1.0  0.61898  0.01693  0.48413  1.0000
  C   C7        1.0  0.73507  0.42108  0.94249  1.0000
  C   C8        1.0  0.26492  0.57893  0.05751  1.0000
  C   C9        1.0  0.78219  0.38646  0.80082  1.0000
  C   C10       1.0  0.21781  0.61354  0.19918  1.0000
  C   C11       1.0  0.89074  0.25074  0.79210  1.0000
  C   C12       1.0  0.10926  0.74926  0.20789  1.0000
  C   C13       1.0  0.86515  0.31346  0.53997  1.0000
  C   C14       1.0  0.13486  0.68655  0.46003  1.0000
  C   C15       1.0  0.93661  0.21342  0.66104  1.0000
  C   C16       1.0  0.06340  0.78658  0.33896  1.0000
  N   N1        1.0  0.75812  0.44596  0.54889  1.0000
  N   N2        1.0  0.24189  0.55404  0.45111  1.0000
  O   O1        1.0  0.32528  0.88840  0.63598  1.0000
  O   O2        1.0  0.67472  0.11160  0.36401  1.0000
  O   O3        1.0  0.71243  0.55448  0.94660  1.0000
  O   O4        1.0  0.28757  0.44552  0.05340  1.0000
  O   O5        1.0  0.43727  0.02785  0.82471  1.0000
  O   O6        1.0  0.56273  0.97215  0.17529  1.0000
  O   O7        1.0  0.61812  0.62238  0.66176  1.0000
  O   O8        1.0  0.38187  0.37761  0.33824  1.0000
  O   O9        1.0  0.35087  0.17493  0.97487  1.0000
  O   O10       1.0  0.64912  0.82506  0.02513  1.0000
  O   O11       1.0  0.26096  0.05139  0.42160  1.0000
  O   O12       1.0  0.73903  0.94861  0.57841  1.0000
  O   O13       1.0  0.72213  0.30814  0.05691  1.0000
  O   O14       1.0  0.27786  0.69186  0.94309  1.0000
  O   O15       1.0  0.96237  0.78300  0.77936  1.0000
  O   O16       1.0  0.03762  0.21700  0.22064  1.0000
