data_image0
_chemical_formula_structural       Cu2H12C28N4Cl4O16
_chemical_formula_sum              "Cu2 H12 C28 N4 Cl4 O16"
_cell_length_a       5.06342
_cell_length_b       11.8195
_cell_length_c       13.8942
_cell_angle_alpha    84.4625
_cell_angle_beta     85.4462
_cell_angle_gamma    85.5406

_space_group_name_H-M_alt    "P 1"
_space_group_IT_number       1

loop_
  _space_group_symop_operation_xyz
  'x, y, z'

loop_
  _atom_site_type_symbol
  _atom_site_label
  _atom_site_symmetry_multiplicity
  _atom_site_fract_x
  _atom_site_fract_y
  _atom_site_fract_z
  _atom_site_occupancy
  Cu  Cu1       1.0  0.20837  0.05005  0.47240  1.0000
  Cu  Cu2       1.0  0.79165  0.94995  0.52760  1.0000
  H   H1        1.0  0.13784  0.49547  0.41346  1.0000
  H   H2        1.0  0.86215  0.50454  0.58654  1.0000
  H   H3        1.0  0.11207  0.49986  0.23453  1.0000
  H   H4        1.0  0.88792  0.50014  0.76548  1.0000
  H   H5        1.0  0.69439  0.21304  0.22665  1.0000
  H   H6        1.0  0.30561  0.78696  0.77335  1.0000
  H   H7        1.0  0.27181  0.91111  0.00624  1.0000
  H   H8        1.0  0.72819  0.08889  0.99375  1.0000
  H   H9        1.0  0.02260  0.74034  0.99326  1.0000
  H   H10       1.0  0.97741  0.25967  0.00674  1.0000
  H   H11       1.0  0.77994  0.73114  0.29878  1.0000
  H   H12       1.0  0.22009  0.26886  0.70122  1.0000
  C   C1        1.0  0.43153  0.35343  0.41853  1.0000
  C   C2        1.0  0.56845  0.64656  0.58148  1.0000
  C   C3        1.0  0.25892  0.43463  0.37184  1.0000
  C   C4        1.0  0.74106  0.56537  0.62816  1.0000
  C   C5        1.0  0.24521  0.43714  0.27237  1.0000
  C   C6        1.0  0.75479  0.56286  0.72763  1.0000
  C   C7        1.0  0.40627  0.35851  0.22097  1.0000
  C   C8        1.0  0.59370  0.64149  0.77903  1.0000
  C   C9        1.0  0.57633  0.27567  0.26758  1.0000
  C   C10       1.0  0.42367  0.72433  0.73242  1.0000
  C   C11       1.0  0.58867  0.27267  0.36767  1.0000
  C   C12       1.0  0.41133  0.72734  0.63234  1.0000
  C   C13       1.0  0.75455  0.17677  0.41680  1.0000
  C   C14       1.0  0.24543  0.82323  0.58320  1.0000
  C   C15       1.0  0.02672  0.91121  0.34034  1.0000
  C   C16       1.0  0.97327  0.08879  0.65966  1.0000
  C   C17       1.0  0.02418  0.86727  0.24285  1.0000
  C   C18       1.0  0.97586  0.13272  0.75714  1.0000
  C   C19       1.0  0.15866  0.91666  0.15900  1.0000
  C   C20       1.0  0.84135  0.08334  0.84099  1.0000
  C   C21       1.0  0.16399  0.87113  0.07004  1.0000
  C   C22       1.0  0.83601  0.12887  0.92996  1.0000
  C   C23       1.0  0.02411  0.77578  0.06264  1.0000
  C   C24       1.0  0.97590  0.22422  0.93736  1.0000
  C   C25       1.0  0.88388  0.72760  0.14517  1.0000
  C   C26       1.0  0.11612  0.27240  0.85482  1.0000
  C   C27       1.0  0.88563  0.77123  0.23475  1.0000
  C   C28       1.0  0.11439  0.22877  0.76525  1.0000
  N   N1        1.0  0.44920  0.35404  0.52244  1.0000
  N   N2        1.0  0.55079  0.64595  0.47756  1.0000
  N   N3        1.0  0.28495  0.02498  0.15853  1.0000
  N   N4        1.0  0.71505  0.97502  0.84146  1.0000
  Cl  Cl1       1.0  0.39715  0.36526  0.09693  1.0000
  Cl  Cl2       1.0  0.60286  0.63475  0.90308  1.0000
  Cl  Cl3       1.0  0.70441  0.61057  0.13711  1.0000
  Cl  Cl4       1.0  0.29561  0.38943  0.86288  1.0000
  O   O1        1.0  0.37167  0.90758  0.54376  1.0000
  O   O2        1.0  0.62833  0.09242  0.45624  1.0000
  O   O3        1.0  0.00331  0.18191  0.40935  1.0000
  O   O4        1.0  0.99667  0.81809  0.59064  1.0000
  O   O5        1.0  0.63411  0.29519  0.56055  1.0000
  O   O6        1.0  0.36589  0.70481  0.43945  1.0000
  O   O7        1.0  0.28072  0.41444  0.56841  1.0000
  O   O8        1.0  0.71928  0.58556  0.43159  1.0000
  O   O9        1.0  0.21377  0.97345  0.35236  1.0000
  O   O10       1.0  0.78622  0.02655  0.64763  1.0000
  O   O11       1.0  0.15975  0.11785  0.59748  1.0000
  O   O12       1.0  0.84024  0.88216  0.40253  1.0000
  O   O13       1.0  0.13927  0.11072  0.17542  1.0000
  O   O14       1.0  0.86073  0.88928  0.82458  1.0000
  O   O15       1.0  0.52728  0.02395  0.13634  1.0000
  O   O16       1.0  0.47272  0.97605  0.86365  1.0000
