data_image0
_chemical_formula_structural       Co2H12C6N8Cl4
_chemical_formula_sum              "Co2 H12 C6 N8 Cl4"
_cell_length_a       6.63596
_cell_length_b       7.34219
_cell_length_c       8.62624
_cell_angle_alpha    108.247
_cell_angle_beta     105.065
_cell_angle_gamma    106.676

_space_group_name_H-M_alt    "P 1"
_space_group_IT_number       1

loop_
  _space_group_symop_operation_xyz
  'x, y, z'

loop_
  _atom_site_type_symbol
  _atom_site_label
  _atom_site_symmetry_multiplicity
  _atom_site_fract_x
  _atom_site_fract_y
  _atom_site_fract_z
  _atom_site_occupancy
  Co  Co1       1.0  1.00000  0.99999  0.99999  1.0000
  Co  Co2       1.0  0.49998  0.99999  0.99999  1.0000
  H   H1        1.0  0.44573  0.67759  0.44166  1.0000
  H   H2        1.0  0.55424  0.32241  0.55837  1.0000
  H   H3        1.0  0.38711  0.67091  0.22701  1.0000
  H   H4        1.0  0.61288  0.32910  0.77298  1.0000
  H   H5        1.0  0.42741  0.45641  0.26473  1.0000
  H   H6        1.0  0.57259  0.54356  0.73526  1.0000
  H   H7        1.0  0.92490  0.77510  0.50852  1.0000
  H   H8        1.0  0.07512  0.22491  0.49148  1.0000
  H   H9        1.0  0.07429  0.88188  0.38910  1.0000
  H   H10       1.0  0.92575  0.11812  0.61092  1.0000
  H   H11       1.0  0.21981  0.81884  0.55721  1.0000
  H   H12       1.0  0.78019  0.18115  0.44278  1.0000
  C   C1        1.0  0.11137  0.47051  0.25515  1.0000
  C   C2        1.0  0.88861  0.52949  0.74485  1.0000
  C   C3        1.0  0.35684  0.57353  0.29991  1.0000
  C   C4        1.0  0.64323  0.42649  0.70010  1.0000
  C   C5        1.0  0.05561  0.77404  0.45323  1.0000
  C   C6        1.0  0.94439  0.22594  0.54676  1.0000
  N   N1        1.0  0.98413  0.56213  0.32224  1.0000
  N   N2        1.0  0.01588  0.43786  0.67775  1.0000
  N   N3        1.0  0.76512  0.42605  0.25019  1.0000
  N   N4        1.0  0.23485  0.57396  0.74981  1.0000
  N   N5        1.0  0.75939  0.25397  0.14083  1.0000
  N   N6        1.0  0.24059  0.74604  0.85916  1.0000
  N   N7        1.0  0.96961  0.27384  0.14110  1.0000
  N   N8        1.0  0.03038  0.72619  0.85891  1.0000
  Cl  Cl1       1.0  0.28878  0.16499  0.90289  1.0000
  Cl  Cl2       1.0  0.71121  0.83502  0.09712  1.0000
  Cl  Cl3       1.0  0.32438  0.04571  0.23876  1.0000
  Cl  Cl4       1.0  0.67562  0.95429  0.76124  1.0000
