data_image0
_chemical_formula_structural       Mg4H48C56O24
_chemical_formula_sum              "Mg4 H48 C56 O24"
_cell_length_a       6.66684
_cell_length_b       7.14606
_cell_length_c       26.7983
_cell_angle_alpha    89.9995
_cell_angle_beta     89.9982
_cell_angle_gamma    90

_space_group_name_H-M_alt    "P 1"
_space_group_IT_number       1

loop_
  _space_group_symop_operation_xyz
  'x, y, z'

loop_
  _atom_site_type_symbol
  _atom_site_label
  _atom_site_symmetry_multiplicity
  _atom_site_fract_x
  _atom_site_fract_y
  _atom_site_fract_z
  _atom_site_occupancy
  Mg  Mg1       1.0  0.00000  0.50000  1.00000  1.0000
  Mg  Mg2       1.0  0.50000  0.99999  0.50000  1.0000
  Mg  Mg3       1.0  1.00000  0.50000  0.50000  1.0000
  Mg  Mg4       1.0  0.50000  0.00000  1.00000  1.0000
  H   H1        1.0  0.56392  0.85076  0.14960  1.0000
  H   H2        1.0  0.93608  0.64926  0.64960  1.0000
  H   H3        1.0  0.43609  0.85075  0.35040  1.0000
  H   H4        1.0  0.06392  0.64927  0.85040  1.0000
  H   H5        1.0  0.43609  0.14925  0.85040  1.0000
  H   H6        1.0  0.06392  0.35073  0.35041  1.0000
  H   H7        1.0  0.56391  0.14924  0.64960  1.0000
  H   H8        1.0  0.93608  0.35074  0.14960  1.0000
  H   H9        1.0  0.66521  0.84120  0.23886  1.0000
  H   H10       1.0  0.83479  0.65879  0.73885  1.0000
  H   H11       1.0  0.33480  0.84121  0.26114  1.0000
  H   H12       1.0  0.16522  0.65880  0.76115  1.0000
  H   H13       1.0  0.33479  0.15880  0.76114  1.0000
  H   H14       1.0  0.16521  0.34122  0.26115  1.0000
  H   H15       1.0  0.66521  0.15880  0.73886  1.0000
  H   H16       1.0  0.83479  0.34121  0.23885  1.0000
  H   H17       1.0  0.25867  0.66579  0.19506  1.0000
  H   H18       1.0  0.24135  0.83422  0.69507  1.0000
  H   H19       1.0  0.74135  0.66578  0.30493  1.0000
  H   H20       1.0  0.75867  0.83421  0.80493  1.0000
  H   H21       1.0  0.74135  0.33423  0.80493  1.0000
  H   H22       1.0  0.75866  0.16578  0.30493  1.0000
  H   H23       1.0  0.25866  0.33421  0.69506  1.0000
  H   H24       1.0  0.24134  0.16580  0.19507  1.0000
  H   H25       1.0  0.15761  0.67899  0.10641  1.0000
  H   H26       1.0  0.34237  0.82102  0.60642  1.0000
  H   H27       1.0  0.84238  0.67898  0.39358  1.0000
  H   H28       1.0  0.65763  0.82103  0.89358  1.0000
  H   H29       1.0  0.84239  0.32103  0.89358  1.0000
  H   H30       1.0  0.65763  0.17897  0.39358  1.0000
  H   H31       1.0  0.15760  0.32101  0.60641  1.0000
  H   H32       1.0  0.34238  0.17898  0.10642  1.0000
  H   H33       1.0  0.63295  0.59314  0.96050  1.0000
  H   H34       1.0  0.86704  0.90687  0.46050  1.0000
  H   H35       1.0  0.36704  0.59313  0.53951  1.0000
  H   H36       1.0  0.13296  0.90688  0.03951  1.0000
  H   H37       1.0  0.36705  0.40686  0.03951  1.0000
  H   H38       1.0  0.13296  0.09312  0.53951  1.0000
  H   H39       1.0  0.63296  0.40687  0.46050  1.0000
  H   H40       1.0  0.86704  0.09313  0.96049  1.0000
  H   H41       1.0  0.64862  0.39142  0.98436  1.0000
  H   H42       1.0  0.85138  0.10858  0.48437  1.0000
  H   H43       1.0  0.35138  0.39142  0.51564  1.0000
  H   H44       1.0  0.14861  0.10859  0.01564  1.0000
  H   H45       1.0  0.35138  0.60857  0.01563  1.0000
  H   H46       1.0  0.14861  0.89141  0.51564  1.0000
  H   H47       1.0  0.64862  0.60858  0.48437  1.0000
  H   H48       1.0  0.85138  0.89142  0.98436  1.0000
  C   C1        1.0  0.79347  0.79146  0.06927  1.0000
  C   C2        1.0  0.70655  0.70853  0.56927  1.0000
  C   C3        1.0  0.20652  0.79146  0.43073  1.0000
  C   C4        1.0  0.29345  0.70855  0.93073  1.0000
  C   C5        1.0  0.20653  0.20854  0.93072  1.0000
  C   C6        1.0  0.29345  0.29145  0.43073  1.0000
  C   C7        1.0  0.79346  0.20853  0.56928  1.0000
  C   C8        1.0  0.70656  0.29145  0.06927  1.0000
  C   C9        1.0  0.85448  0.76958  0.12240  1.0000
  C   C10       1.0  0.64551  0.73043  0.62240  1.0000
  C   C11       1.0  0.14552  0.76957  0.37760  1.0000
  C   C12       1.0  0.35449  0.73044  0.87760  1.0000
  C   C13       1.0  0.14552  0.23042  0.87760  1.0000
  C   C14       1.0  0.35449  0.26956  0.37760  1.0000
  C   C15       1.0  0.85447  0.23042  0.62240  1.0000
  C   C16       1.0  0.64551  0.26957  0.12240  1.0000
  C   C17       1.0  0.71520  0.80949  0.16015  1.0000
  C   C18       1.0  0.78480  0.69053  0.66015  1.0000
  C   C19       1.0  0.28481  0.80947  0.33985  1.0000
  C   C20       1.0  0.21520  0.69055  0.83985  1.0000
  C   C21       1.0  0.28480  0.19052  0.83985  1.0000
  C   C22       1.0  0.21520  0.30946  0.33985  1.0000
  C   C23       1.0  0.71519  0.19052  0.66015  1.0000
  C   C24       1.0  0.78480  0.30947  0.16015  1.0000
  C   C25       1.0  0.77228  0.80265  0.20990  1.0000
  C   C26       1.0  0.72772  0.69735  0.70990  1.0000
  C   C27       1.0  0.22773  0.80265  0.29010  1.0000
  C   C28       1.0  0.27228  0.69736  0.79010  1.0000
  C   C29       1.0  0.22772  0.19735  0.79009  1.0000
  C   C30       1.0  0.27228  0.30265  0.29010  1.0000
  C   C31       1.0  0.77227  0.19735  0.70990  1.0000
  C   C32       1.0  0.72772  0.30265  0.20990  1.0000
  C   C33       1.0  0.96955  0.75467  0.22355  1.0000
  C   C34       1.0  0.53045  0.74535  0.72355  1.0000
  C   C35       1.0  0.03046  0.75466  0.27645  1.0000
  C   C36       1.0  0.46956  0.74534  0.77645  1.0000
  C   C37       1.0  0.03045  0.24534  0.77645  1.0000
  C   C38       1.0  0.46955  0.25465  0.27645  1.0000
  C   C39       1.0  0.96955  0.24534  0.72355  1.0000
  C   C40       1.0  0.53044  0.25466  0.22355  1.0000
  C   C41       1.0  0.10695  0.71022  0.18541  1.0000
  C   C42       1.0  0.39305  0.78980  0.68541  1.0000
  C   C43       1.0  0.89305  0.71021  0.31459  1.0000
  C   C44       1.0  0.60695  0.78980  0.81459  1.0000
  C   C45       1.0  0.89305  0.28979  0.81459  1.0000
  C   C46       1.0  0.60695  0.21020  0.31459  1.0000
  C   C47       1.0  0.10695  0.28978  0.68541  1.0000
  C   C48       1.0  0.39305  0.21021  0.18541  1.0000
  C   C49       1.0  0.05061  0.71713  0.13545  1.0000
  C   C50       1.0  0.44938  0.78289  0.63546  1.0000
  C   C51       1.0  0.94939  0.71712  0.36455  1.0000
  C   C52       1.0  0.55062  0.78289  0.86454  1.0000
  C   C53       1.0  0.94939  0.28288  0.86454  1.0000
  C   C54       1.0  0.55062  0.21711  0.36455  1.0000
  C   C55       1.0  0.05061  0.28287  0.63545  1.0000
  C   C56       1.0  0.44938  0.21712  0.13545  1.0000
  O   O1        1.0  0.92505  0.75488  0.03473  1.0000
  O   O2        1.0  0.57495  0.74511  0.53473  1.0000
  O   O3        1.0  0.07495  0.75488  0.46527  1.0000
  O   O4        1.0  0.42504  0.74512  0.96527  1.0000
  O   O5        1.0  0.07495  0.24512  0.96527  1.0000
  O   O6        1.0  0.42504  0.25489  0.46528  1.0000
  O   O7        1.0  0.92504  0.24511  0.53473  1.0000
  O   O8        1.0  0.57497  0.25488  0.03473  1.0000
  O   O9        1.0  0.72450  0.48502  0.96425  1.0000
  O   O10       1.0  0.77549  0.01499  0.46425  1.0000
  O   O11       1.0  0.27549  0.48502  0.53575  1.0000
  O   O12       1.0  0.22451  0.01500  0.03575  1.0000
  O   O13       1.0  0.27550  0.51497  0.03575  1.0000
  O   O14       1.0  0.22451  0.98500  0.53575  1.0000
  O   O15       1.0  0.72451  0.51498  0.46425  1.0000
  O   O16       1.0  0.77549  0.98501  0.96425  1.0000
  O   O17       1.0  0.62002  0.85153  0.05944  1.0000
  O   O18       1.0  0.87997  0.64848  0.55945  1.0000
  O   O19       1.0  0.37998  0.85153  0.44056  1.0000
  O   O20       1.0  0.12002  0.64849  0.94055  1.0000
  O   O21       1.0  0.37998  0.14847  0.94055  1.0000
  O   O22       1.0  0.12002  0.35151  0.44056  1.0000
  O   O23       1.0  0.62001  0.14846  0.55945  1.0000
  O   O24       1.0  0.87998  0.35151  0.05945  1.0000
