data_image0
_chemical_formula_structural       Nd2H26C18N8O18
_chemical_formula_sum              "Nd2 H26 C18 N8 O18"
_cell_length_a       7.90984
_cell_length_b       9.77294
_cell_length_c       10.4081
_cell_angle_alpha    117.086
_cell_angle_beta     107.209
_cell_angle_gamma    95.4761

_space_group_name_H-M_alt    "P 1"
_space_group_IT_number       1

loop_
  _space_group_symop_operation_xyz
  'x, y, z'

loop_
  _atom_site_type_symbol
  _atom_site_label
  _atom_site_symmetry_multiplicity
  _atom_site_fract_x
  _atom_site_fract_y
  _atom_site_fract_z
  _atom_site_occupancy
  Nd  Nd1       1.0  0.21461  0.20645  0.81112  1.0000
  Nd  Nd2       1.0  0.78539  0.79355  0.18888  1.0000
  H   H1        1.0  0.96343  0.15751  0.96748  1.0000
  H   H2        1.0  0.03657  0.84249  0.03252  1.0000
  H   H3        1.0  0.14926  0.12482  0.05326  1.0000
  H   H4        1.0  0.85073  0.87518  0.94674  1.0000
  H   H5        1.0  0.57795  0.14137  0.93991  1.0000
  H   H6        1.0  0.42205  0.85863  0.06009  1.0000
  H   H7        1.0  0.61529  0.27494  0.82704  1.0000
  H   H8        1.0  0.38471  0.72506  0.17296  1.0000
  H   H9        1.0  0.84563  0.09042  0.56343  1.0000
  H   H10       1.0  0.15437  0.90958  0.43657  1.0000
  H   H11       1.0  0.43763  0.97092  0.84422  1.0000
  H   H12       1.0  0.56237  0.02908  0.15577  1.0000
  H   H13       1.0  0.79252  0.03729  0.67385  1.0000
  H   H14       1.0  0.20748  0.96271  0.32615  1.0000
  H   H15       1.0  0.46333  0.34904  0.16007  1.0000
  H   H16       1.0  0.53667  0.65096  0.83993  1.0000
  H   H17       1.0  0.45114  0.50098  0.13677  1.0000
  H   H18       1.0  0.54886  0.49902  0.86323  1.0000
  H   H19       1.0  0.49579  0.24831  0.65525  1.0000
  H   H20       1.0  0.50421  0.75169  0.34475  1.0000
  H   H21       1.0  0.17355  0.63417  0.29626  1.0000
  H   H22       1.0  0.82645  0.36583  0.70374  1.0000
  H   H23       1.0  0.82336  0.19951  0.18771  1.0000
  H   H24       1.0  0.17664  0.80049  0.81229  1.0000
  H   H25       1.0  0.30499  0.45114  0.61058  1.0000
  H   H26       1.0  0.69501  0.54886  0.38942  1.0000
  C   C1        1.0  0.42976  0.68734  0.56850  1.0000
  C   C2        1.0  0.57024  0.31266  0.43150  1.0000
  C   C3        1.0  0.26316  0.55584  0.46362  1.0000
  C   C4        1.0  0.73684  0.44416  0.53638  1.0000
  C   C5        1.0  0.14552  0.54357  0.32635  1.0000
  C   C6        1.0  0.85448  0.45643  0.67365  1.0000
  C   C7        1.0  0.98728  0.41589  0.22817  1.0000
  C   C8        1.0  0.01272  0.58411  0.77183  1.0000
  C   C9        1.0  0.94535  0.29993  0.26560  1.0000
  C   C10       1.0  0.05465  0.70007  0.73439  1.0000
  C   C11       1.0  0.05892  0.31470  0.40517  1.0000
  C   C12       1.0  0.94108  0.68530  0.59483  1.0000
  C   C13       1.0  0.21719  0.44216  0.50307  1.0000
  C   C14       1.0  0.78281  0.55784  0.49693  1.0000
  C   C15       1.0  0.01626  0.19732  0.45360  1.0000
  C   C16       1.0  0.98374  0.80268  0.54641  1.0000
  C   C17       1.0  0.86005  0.40557  0.08383  1.0000
  C   C18       1.0  0.13995  0.59444  0.91617  1.0000
  N   N1        1.0  0.52697  0.72592  0.71670  1.0000
  N   N2        1.0  0.47303  0.27408  0.28331  1.0000
  N   N3        1.0  0.66967  0.85081  0.77275  1.0000
  N   N4        1.0  0.33033  0.14918  0.22725  1.0000
  N   N5        1.0  0.65825  0.88715  0.66334  1.0000
  N   N6        1.0  0.34175  0.11285  0.33666  1.0000
  N   N7        1.0  0.51011  0.78711  0.53367  1.0000
  N   N8        1.0  0.48989  0.21289  0.46633  1.0000
  O   O1        1.0  0.13415  0.21708  0.57800  1.0000
  O   O2        1.0  0.86585  0.78292  0.42200  1.0000
  O   O3        1.0  0.86593  0.08534  0.37082  1.0000
  O   O4        1.0  0.13407  0.91466  0.62918  1.0000
  O   O5        1.0  0.84058  0.53310  0.08497  1.0000
  O   O6        1.0  0.15942  0.46690  0.91503  1.0000
  O   O7        1.0  0.44471  0.38585  0.08211  1.0000
  O   O8        1.0  0.55529  0.61415  0.91788  1.0000
  O   O9        1.0  0.49739  0.28320  0.76266  1.0000
  O   O10       1.0  0.50261  0.71680  0.23734  1.0000
  O   O11       1.0  0.44878  0.08411  0.90730  1.0000
  O   O12       1.0  0.55122  0.91590  0.09270  1.0000
  O   O13       1.0  0.87384  0.12400  0.67373  1.0000
  O   O14       1.0  0.12616  0.87600  0.32627  1.0000
  O   O15       1.0  0.07617  0.12594  0.95751  1.0000
  O   O16       1.0  0.92383  0.87406  0.04248  1.0000
  O   O17       1.0  0.77751  0.26501  0.96473  1.0000
  O   O18       1.0  0.22249  0.73499  0.03527  1.0000
