data_image0
_chemical_formula_structural       K4H20C12N8O20
_chemical_formula_sum              "K4 H20 C12 N8 O20"
_cell_length_a       6.86866
_cell_length_b       7.71928
_cell_length_c       12.7387
_cell_angle_alpha    89.9999
_cell_angle_beta     89.9999
_cell_angle_gamma    89.9999

_space_group_name_H-M_alt    "P 1"
_space_group_IT_number       1

loop_
  _space_group_symop_operation_xyz
  'x, y, z'

loop_
  _atom_site_type_symbol
  _atom_site_label
  _atom_site_symmetry_multiplicity
  _atom_site_fract_x
  _atom_site_fract_y
  _atom_site_fract_z
  _atom_site_occupancy
  K   K1        1.0  0.24547  0.99999  0.50000  1.0000
  K   K2        1.0  0.25453  0.50000  0.00000  1.0000
  K   K3        1.0  0.75453  0.00000  0.50000  1.0000
  K   K4        1.0  0.74547  0.50000  1.00000  1.0000
  H   H1        1.0  0.00000  0.61905  0.41361  1.0000
  H   H2        1.0  1.00000  0.38094  0.58639  1.0000
  H   H3        1.0  0.50000  0.88094  0.91361  1.0000
  H   H4        1.0  0.50000  0.11906  0.08639  1.0000
  H   H5        1.0  0.00000  0.13480  0.28643  1.0000
  H   H6        1.0  0.00000  0.86520  0.71357  1.0000
  H   H7        1.0  0.50000  0.36520  0.78643  1.0000
  H   H8        1.0  0.50000  0.63480  0.21356  1.0000
  H   H9        1.0  1.00000  0.32157  0.20179  1.0000
  H   H10       1.0  0.00000  0.67843  0.79821  1.0000
  H   H11       1.0  0.50000  0.17843  0.70180  1.0000
  H   H12       1.0  0.50000  0.82157  0.29820  1.0000
  H   H13       1.0  0.50000  0.68007  0.53711  1.0000
  H   H14       1.0  0.50000  0.31993  0.46289  1.0000
  H   H15       1.0  0.00000  0.81993  0.03711  1.0000
  H   H16       1.0  1.00000  0.18007  0.96289  1.0000
  H   H17       1.0  0.50000  0.61279  0.41996  1.0000
  H   H18       1.0  0.50000  0.38721  0.58004  1.0000
  H   H19       1.0  1.00000  0.88721  0.91996  1.0000
  H   H20       1.0  1.00000  0.11279  0.08004  1.0000
  C   C1        1.0  0.00000  0.83305  0.25215  1.0000
  C   C2        1.0  1.00000  0.16695  0.74785  1.0000
  C   C3        1.0  0.50000  0.66695  0.75214  1.0000
  C   C4        1.0  0.50000  0.33305  0.24785  1.0000
  C   C5        1.0  1.00000  0.63143  0.25004  1.0000
  C   C6        1.0  1.00000  0.36857  0.74996  1.0000
  C   C7        1.0  0.50000  0.86857  0.75003  1.0000
  C   C8        1.0  0.50000  0.13143  0.24997  1.0000
  C   C9        1.0  0.00000  0.36695  0.35990  1.0000
  C   C10       1.0  0.00000  0.63305  0.64010  1.0000
  C   C11       1.0  0.50000  0.13305  0.85989  1.0000
  C   C12       1.0  0.50000  0.86695  0.14010  1.0000
  N   N1        1.0  0.00000  0.54848  0.34427  1.0000
  N   N2        1.0  1.00000  0.45152  0.65573  1.0000
  N   N3        1.0  0.50000  0.95152  0.84428  1.0000
  N   N4        1.0  0.50000  0.04848  0.15572  1.0000
  N   N5        1.0  0.00000  0.26652  0.27468  1.0000
  N   N6        1.0  0.00000  0.73348  0.72532  1.0000
  N   N7        1.0  0.50000  0.23348  0.77469  1.0000
  N   N8        1.0  0.50000  0.76652  0.22531  1.0000
  O   O1        1.0  0.00000  0.90647  0.34086  1.0000
  O   O2        1.0  1.00000  0.09352  0.65914  1.0000
  O   O3        1.0  0.50000  0.59352  0.84086  1.0000
  O   O4        1.0  0.50000  0.40648  0.15914  1.0000
  O   O5        1.0  0.00000  0.90579  0.16347  1.0000
  O   O6        1.0  1.00000  0.09421  0.83653  1.0000
  O   O7        1.0  0.50000  0.59422  0.66347  1.0000
  O   O8        1.0  0.50000  0.40578  0.33652  1.0000
  O   O9        1.0  1.00000  0.55615  0.16374  1.0000
  O   O10       1.0  0.00000  0.44385  0.83626  1.0000
  O   O11       1.0  0.50000  0.94385  0.66375  1.0000
  O   O12       1.0  0.50000  0.05615  0.33625  1.0000
  O   O13       1.0  1.00000  0.30735  0.45134  1.0000
  O   O14       1.0  0.00000  0.69265  0.54866  1.0000
  O   O15       1.0  0.50000  0.19265  0.95135  1.0000
  O   O16       1.0  0.50000  0.80735  0.04865  1.0000
  O   O17       1.0  0.50000  0.71868  0.46264  1.0000
  O   O18       1.0  0.50000  0.28132  0.53736  1.0000
  O   O19       1.0  1.00000  0.78132  0.96264  1.0000
  O   O20       1.0  1.00000  0.21868  0.03736  1.0000
