data_image0
_chemical_formula_structural       Pr2H16C16N2O18
_chemical_formula_sum              "Pr2 H16 C16 N2 O18"
_cell_length_a       7.51886
_cell_length_b       8.52199
_cell_length_c       9.52402
_cell_angle_alpha    110.685
_cell_angle_beta     104.826
_cell_angle_gamma    100.255

_space_group_name_H-M_alt    "P 1"
_space_group_IT_number       1

loop_
  _space_group_symop_operation_xyz
  'x, y, z'

loop_
  _atom_site_type_symbol
  _atom_site_label
  _atom_site_symmetry_multiplicity
  _atom_site_fract_x
  _atom_site_fract_y
  _atom_site_fract_z
  _atom_site_occupancy
  Pr  Pr1       1.0  0.15196  0.64982  0.89145  1.0000
  Pr  Pr2       1.0  0.84804  0.35019  0.10855  1.0000
  H   H1        1.0  0.72877  0.07181  0.32628  1.0000
  H   H2        1.0  0.27123  0.92819  0.67373  1.0000
  H   H3        1.0  0.53347  0.64347  0.52454  1.0000
  H   H4        1.0  0.46654  0.35653  0.47546  1.0000
  H   H5        1.0  0.83312  0.89773  0.68835  1.0000
  H   H6        1.0  0.16688  0.10227  0.31165  1.0000
  H   H7        1.0  0.91496  0.12008  0.57562  1.0000
  H   H8        1.0  0.08504  0.87992  0.42438  1.0000
  H   H9        1.0  0.57513  0.82341  0.92942  1.0000
  H   H10       1.0  0.42487  0.17659  0.07058  1.0000
  H   H11       1.0  0.55249  0.65241  0.78014  1.0000
  H   H12       1.0  0.44751  0.34759  0.21986  1.0000
  H   H13       1.0  0.18740  0.31148  0.90919  1.0000
  H   H14       1.0  0.81260  0.68853  0.09081  1.0000
  H   H15       1.0  0.40147  0.40604  0.99984  1.0000
  H   H16       1.0  0.59853  0.59397  0.00016  1.0000
  C   C1        1.0  0.27305  0.57742  0.24867  1.0000
  C   C2        1.0  0.72695  0.42257  0.75134  1.0000
  C   C3        1.0  0.45762  0.72162  0.33328  1.0000
  C   C4        1.0  0.54238  0.27837  0.66672  1.0000
  C   C5        1.0  0.57535  0.74079  0.48035  1.0000
  C   C6        1.0  0.42465  0.25921  0.51965  1.0000
  C   C7        1.0  0.74256  0.88239  0.57306  1.0000
  C   C8        1.0  0.25744  0.11761  0.42695  1.0000
  C   C9        1.0  0.79109  0.00220  0.51307  1.0000
  C   C10       1.0  0.20891  0.99780  0.48693  1.0000
  C   C11       1.0  0.51257  0.84516  0.26976  1.0000
  C   C12       1.0  0.48743  0.15484  0.73024  1.0000
  C   C13       1.0  0.01582  0.59466  0.50635  1.0000
  C   C14       1.0  0.98419  0.40534  0.49366  1.0000
  C   C15       1.0  0.07190  0.04834  0.97279  1.0000
  C   C16       1.0  0.92810  0.95166  0.02721  1.0000
  N   N1        1.0  0.68070  0.98024  0.36702  1.0000
  N   N2        1.0  0.31930  0.01975  0.63298  1.0000
  O   O1        1.0  0.13505  0.59072  0.14527  1.0000
  O   O2        1.0  0.86495  0.40927  0.85473  1.0000
  O   O3        1.0  0.25167  0.44615  0.28407  1.0000
  O   O4        1.0  0.74833  0.55385  0.71593  1.0000
  O   O5        1.0  0.42483  0.84063  0.13522  1.0000
  O   O6        1.0  0.57517  0.15937  0.86478  1.0000
  O   O7        1.0  0.10485  0.71777  0.64561  1.0000
  O   O8        1.0  0.89515  0.28223  0.35439  1.0000
  O   O9        1.0  0.95170  0.61203  0.37831  1.0000
  O   O10       1.0  0.04830  0.38798  0.62169  1.0000
  O   O11       1.0  0.20445  0.98379  0.94491  1.0000
  O   O12       1.0  0.79555  0.01621  0.05509  1.0000
  O   O13       1.0  0.04368  0.18657  0.96153  1.0000
  O   O14       1.0  0.95632  0.81344  0.03848  1.0000
  O   O15       1.0  0.48658  0.70525  0.85364  1.0000
  O   O16       1.0  0.51342  0.29475  0.14636  1.0000
  O   O17       1.0  0.29445  0.40447  0.91416  1.0000
  O   O18       1.0  0.70555  0.59553  0.08584  1.0000
