data_image0
_chemical_formula_structural       Zn2H32C34N12Cl2O4
_chemical_formula_sum              "Zn2 H32 C34 N12 Cl2 O4"
_cell_length_a       8.92303
_cell_length_b       8.87199
_cell_length_c       11.733
_cell_angle_alpha    99.8765
_cell_angle_beta     106.636
_cell_angle_gamma    91.9461

_space_group_name_H-M_alt    "P 1"
_space_group_IT_number       1

loop_
  _space_group_symop_operation_xyz
  'x, y, z'

loop_
  _atom_site_type_symbol
  _atom_site_label
  _atom_site_symmetry_multiplicity
  _atom_site_fract_x
  _atom_site_fract_y
  _atom_site_fract_z
  _atom_site_occupancy
  Zn  Zn1       1.0  0.03691  0.66531  0.26939  1.0000
  Zn  Zn2       1.0  0.96309  0.33470  0.73061  1.0000
  H   H1        1.0  0.53091  0.50419  0.21197  1.0000
  H   H2        1.0  0.46909  0.49581  0.78803  1.0000
  H   H3        1.0  0.54642  0.69959  0.28033  1.0000
  H   H4        1.0  0.45358  0.30041  0.71967  1.0000
  H   H5        1.0  0.58046  0.30449  0.35670  1.0000
  H   H6        1.0  0.41954  0.69551  0.64330  1.0000
  H   H7        1.0  0.48996  0.76995  0.46976  1.0000
  H   H8        1.0  0.51004  0.23005  0.53024  1.0000
  H   H9        1.0  0.08309  0.69507  0.56075  1.0000
  H   H10       1.0  0.91691  0.30493  0.43925  1.0000
  H   H11       1.0  0.22752  0.00607  0.37037  1.0000
  H   H12       1.0  0.77248  0.99393  0.62963  1.0000
  H   H13       1.0  0.08296  0.94760  0.75292  1.0000
  H   H14       1.0  0.91703  0.05240  0.24708  1.0000
  H   H15       1.0  0.22904  0.09664  0.76670  1.0000
  H   H16       1.0  0.77096  0.90336  0.23330  1.0000
  H   H17       1.0  0.14909  0.76338  0.87684  1.0000
  H   H18       1.0  0.85090  0.23661  0.12315  1.0000
  H   H19       1.0  0.34672  0.63660  0.01471  1.0000
  H   H20       1.0  0.65328  0.36340  0.98529  1.0000
  H   H21       1.0  0.63105  0.68725  0.03846  1.0000
  H   H22       1.0  0.36895  0.31275  0.96154  1.0000
  H   H23       1.0  0.51827  0.99722  0.78642  1.0000
  H   H24       1.0  0.48173  0.00278  0.21359  1.0000
  H   H25       1.0  0.79104  0.98187  0.90099  1.0000
  H   H26       1.0  0.20896  0.01813  0.09901  1.0000
  H   H27       1.0  0.83925  0.86162  0.01161  1.0000
  H   H28       1.0  0.16076  0.13838  0.98839  1.0000
  H   H29       1.0  0.86374  0.56769  0.93207  1.0000
  H   H30       1.0  0.13626  0.43230  0.06793  1.0000
  H   H31       1.0  0.85566  0.61985  0.58012  1.0000
  H   H32       1.0  0.14434  0.38015  0.41988  1.0000
  C   C1        1.0  0.76248  0.59513  0.31104  1.0000
  C   C2        1.0  0.23752  0.40487  0.68896  1.0000
  C   C3        1.0  0.58638  0.58722  0.29655  1.0000
  C   C4        1.0  0.41362  0.41278  0.70345  1.0000
  C   C5        1.0  0.54041  0.54233  0.40060  1.0000
  C   C6        1.0  0.45959  0.45767  0.59940  1.0000
  C   C7        1.0  0.54642  0.39105  0.42027  1.0000
  C   C8        1.0  0.45358  0.60895  0.57973  1.0000
  C   C9        1.0  0.49318  0.65079  0.48207  1.0000
  C   C10       1.0  0.50682  0.34921  0.51793  1.0000
  C   C11       1.0  0.12684  0.79757  0.53735  1.0000
  C   C12       1.0  0.87316  0.20243  0.46265  1.0000
  C   C13       1.0  0.20545  0.95623  0.44307  1.0000
  C   C14       1.0  0.79456  0.04377  0.55693  1.0000
  C   C15       1.0  0.19984  0.97161  0.74333  1.0000
  C   C16       1.0  0.80016  0.02839  0.25667  1.0000
  C   C17       1.0  0.32000  0.88807  0.82202  1.0000
  C   C18       1.0  0.67999  0.11192  0.17798  1.0000
  C   C19       1.0  0.27318  0.78508  0.88557  1.0000
  C   C20       1.0  0.72682  0.21492  0.11443  1.0000
  C   C21       1.0  0.38472  0.71268  0.96276  1.0000
  C   C22       1.0  0.61528  0.28731  0.03724  1.0000
  C   C23       1.0  0.54379  0.74092  0.97543  1.0000
  C   C24       1.0  0.45621  0.25908  0.02457  1.0000
  C   C25       1.0  0.59197  0.84214  0.91038  1.0000
  C   C26       1.0  0.40803  0.15786  0.08962  1.0000
  C   C27       1.0  0.48008  0.91603  0.83489  1.0000
  C   C28       1.0  0.51993  0.08397  0.16511  1.0000
  C   C29       1.0  0.76361  0.86972  0.92116  1.0000
  C   C30       1.0  0.23638  0.13028  0.07884  1.0000
  C   C31       1.0  0.85204  0.61331  0.85033  1.0000
  C   C32       1.0  0.14796  0.38669  0.14967  1.0000
  C   C33       1.0  0.85024  0.64554  0.67295  1.0000
  C   C34       1.0  0.14976  0.35446  0.32705  1.0000
  N   N1        1.0  0.13487  0.81150  0.42738  1.0000
  N   N2        1.0  0.86513  0.18850  0.57262  1.0000
  N   N3        1.0  0.23962  0.03210  0.55625  1.0000
  N   N4        1.0  0.76039  0.96790  0.44375  1.0000
  N   N5        1.0  0.18810  0.92963  0.61447  1.0000
  N   N6        1.0  0.81190  0.07037  0.38553  1.0000
  N   N7        1.0  0.81122  0.75426  0.83593  1.0000
  N   N8        1.0  0.18878  0.24575  0.16407  1.0000
  N   N9        1.0  0.80889  0.77698  0.72340  1.0000
  N   N10       1.0  0.19111  0.22302  0.27660  1.0000
  N   N11       1.0  0.87873  0.54184  0.74874  1.0000
  N   N12       1.0  0.12127  0.45816  0.25126  1.0000
  Cl  Cl1       1.0  0.10613  0.76976  0.12671  1.0000
  Cl  Cl2       1.0  0.89387  0.23024  0.87329  1.0000
  O   O1        1.0  0.80350  0.65208  0.22805  1.0000
  O   O2        1.0  0.19650  0.34792  0.77195  1.0000
  O   O3        1.0  0.85907  0.54874  0.39546  1.0000
  O   O4        1.0  0.14093  0.45126  0.60454  1.0000
