data_image0
_chemical_formula_structural       Zn4H20C8N44O12
_chemical_formula_sum              "Zn4 H20 C8 N44 O12"
_cell_length_a       6.70862
_cell_length_b       10.2308
_cell_length_c       14.002
_cell_angle_alpha    90
_cell_angle_beta     102.168
_cell_angle_gamma    90

_space_group_name_H-M_alt    "P 1"
_space_group_IT_number       1

loop_
  _space_group_symop_operation_xyz
  'x, y, z'

loop_
  _atom_site_type_symbol
  _atom_site_label
  _atom_site_symmetry_multiplicity
  _atom_site_fract_x
  _atom_site_fract_y
  _atom_site_fract_z
  _atom_site_occupancy
  Zn  Zn1       1.0  0.99080  0.85939  0.74180  1.0000
  Zn  Zn2       1.0  0.50920  0.35939  0.75820  1.0000
  Zn  Zn3       1.0  0.00920  0.14061  0.25820  1.0000
  Zn  Zn4       1.0  0.49080  0.64061  0.24180  1.0000
  H   H1        1.0  0.49007  0.85458  0.51142  1.0000
  H   H2        1.0  0.00993  0.35458  0.98858  1.0000
  H   H3        1.0  0.50993  0.14542  0.48858  1.0000
  H   H4        1.0  0.99007  0.64542  0.01142  1.0000
  H   H5        1.0  0.36884  0.62529  0.56347  1.0000
  H   H6        1.0  0.13116  0.12529  0.93653  1.0000
  H   H7        1.0  0.63116  0.37471  0.43653  1.0000
  H   H8        1.0  0.86884  0.87471  0.06347  1.0000
  H   H9        1.0  0.17702  0.62282  0.63445  1.0000
  H   H10       1.0  0.32298  0.12282  0.86555  1.0000
  H   H11       1.0  0.82298  0.37718  0.36555  1.0000
  H   H12       1.0  0.67702  0.87718  0.13445  1.0000
  H   H13       1.0  0.48458  0.64436  0.85002  1.0000
  H   H14       1.0  0.01543  0.14436  0.64998  1.0000
  H   H15       1.0  0.51542  0.35564  0.14998  1.0000
  H   H16       1.0  0.98458  0.85564  0.35002  1.0000
  H   H17       1.0  0.60345  0.79295  0.83132  1.0000
  H   H18       1.0  0.89655  0.29295  0.66868  1.0000
  H   H19       1.0  0.39655  0.20705  0.16868  1.0000
  H   H20       1.0  0.10345  0.70705  0.33132  1.0000
  C   C1        1.0  0.72017  0.62964  0.77963  1.0000
  C   C2        1.0  0.77983  0.12964  0.72037  1.0000
  C   C3        1.0  0.27983  0.37036  0.22038  1.0000
  C   C4        1.0  0.22017  0.87036  0.27963  1.0000
  C   C5        1.0  0.27672  0.80107  0.60019  1.0000
  C   C6        1.0  0.22328  0.30107  0.89980  1.0000
  C   C7        1.0  0.72328  0.19893  0.39980  1.0000
  C   C8        1.0  0.77672  0.69893  0.10019  1.0000
  N   N1        1.0  0.15769  0.88313  0.63976  1.0000
  N   N2        1.0  0.34231  0.38313  0.86024  1.0000
  N   N3        1.0  0.84231  0.11687  0.36024  1.0000
  N   N4        1.0  0.65769  0.61687  0.13976  1.0000
  N   N5        1.0  0.87561  0.68172  0.74383  1.0000
  N   N6        1.0  0.62439  0.18172  0.75617  1.0000
  N   N7        1.0  0.12439  0.31828  0.25617  1.0000
  N   N8        1.0  0.37561  0.81828  0.24383  1.0000
  N   N9        1.0  0.38810  0.87917  0.55340  1.0000
  N   N10       1.0  0.11190  0.37917  0.94659  1.0000
  N   N11       1.0  0.61190  0.12083  0.44659  1.0000
  N   N12       1.0  0.88810  0.62083  0.05341  1.0000
  N   N13       1.0  0.70852  0.50062  0.75629  1.0000
  N   N14       1.0  0.79148  0.00062  0.74371  1.0000
  N   N15       1.0  0.29148  0.49938  0.24371  1.0000
  N   N16       1.0  0.20852  0.99938  0.25629  1.0000
  N   N17       1.0  0.19944  0.00713  0.61424  1.0000
  N   N18       1.0  0.30056  0.50713  0.88576  1.0000
  N   N19       1.0  0.80056  0.99287  0.38576  1.0000
  N   N20       1.0  0.69944  0.49287  0.11424  1.0000
  N   N21       1.0  0.95851  0.58232  0.70031  1.0000
  N   N22       1.0  0.54149  0.08232  0.79969  1.0000
  N   N23       1.0  0.04149  0.41768  0.29969  1.0000
  N   N24       1.0  0.45851  0.91768  0.20031  1.0000
  N   N25       1.0  0.19087  0.82857  0.93895  1.0000
  N   N26       1.0  0.30913  0.32857  0.56105  1.0000
  N   N27       1.0  0.80913  0.17143  0.06105  1.0000
  N   N28       1.0  0.69087  0.67144  0.43895  1.0000
  N   N29       1.0  0.86093  0.47588  0.70754  1.0000
  N   N30       1.0  0.63907  0.97588  0.79246  1.0000
  N   N31       1.0  0.13907  0.52412  0.29246  1.0000
  N   N32       1.0  0.36093  0.02412  0.20754  1.0000
  N   N33       1.0  0.33629  0.00602  0.56247  1.0000
  N   N34       1.0  0.16371  0.50602  0.93753  1.0000
  N   N35       1.0  0.66371  0.99398  0.43753  1.0000
  N   N36       1.0  0.83629  0.49398  0.06247  1.0000
  N   N37       1.0  0.28796  0.67170  0.60731  1.0000
  N   N38       1.0  0.21204  0.17170  0.89269  1.0000
  N   N39       1.0  0.71204  0.32830  0.39269  1.0000
  N   N40       1.0  0.78796  0.82830  0.10731  1.0000
  N   N41       1.0  0.60463  0.69260  0.83152  1.0000
  N   N42       1.0  0.89537  0.19260  0.66848  1.0000
  N   N43       1.0  0.39537  0.30740  0.16848  1.0000
  N   N44       1.0  0.10463  0.80740  0.33152  1.0000
  O   O1        1.0  0.23846  0.86034  0.85622  1.0000
  O   O2        1.0  0.26154  0.36034  0.64378  1.0000
  O   O3        1.0  0.76154  0.13966  0.14378  1.0000
  O   O4        1.0  0.73846  0.63966  0.35622  1.0000
  O   O5        1.0  0.00569  0.83970  0.94517  1.0000
  O   O6        1.0  0.49431  0.33971  0.55483  1.0000
  O   O7        1.0  0.99431  0.16029  0.05483  1.0000
  O   O8        1.0  0.50569  0.66030  0.44517  1.0000
  O   O9        1.0  0.32568  0.78814  0.00678  1.0000
  O   O10       1.0  0.17432  0.28815  0.49322  1.0000
  O   O11       1.0  0.67432  0.21185  0.99322  1.0000
  O   O12       1.0  0.82568  0.71186  0.50678  1.0000
