data_image0
_chemical_formula_structural       In4P4H36C8N8O16F4
_chemical_formula_sum              "In4 P4 H36 C8 N8 O16 F4"
_cell_length_a       7.83491
_cell_length_b       9.20894
_cell_length_c       10.0083
_cell_angle_alpha    100.942
_cell_angle_beta     90
_cell_angle_gamma    89.9997

_space_group_name_H-M_alt    "P 1"
_space_group_IT_number       1

loop_
  _space_group_symop_operation_xyz
  'x, y, z'

loop_
  _atom_site_type_symbol
  _atom_site_label
  _atom_site_symmetry_multiplicity
  _atom_site_fract_x
  _atom_site_fract_y
  _atom_site_fract_z
  _atom_site_occupancy
  In  In1       1.0  0.38593  0.48890  0.73816  1.0000
  In  In2       1.0  0.88593  0.51110  0.76184  1.0000
  In  In3       1.0  0.61407  0.51110  0.26183  1.0000
  In  In4       1.0  0.11407  0.48890  0.23817  1.0000
  P   P1        1.0  0.36737  0.28385  0.42168  1.0000
  P   P2        1.0  0.86736  0.71614  0.07832  1.0000
  P   P3        1.0  0.63263  0.71614  0.57832  1.0000
  P   P4        1.0  0.13263  0.28386  0.92168  1.0000
  H   H1        1.0  0.36380  0.60447  0.00600  1.0000
  H   H2        1.0  0.86381  0.39552  0.49400  1.0000
  H   H3        1.0  0.63619  0.39552  0.99400  1.0000
  H   H4        1.0  0.13619  0.60448  0.50600  1.0000
  H   H5        1.0  0.53267  0.68072  0.95586  1.0000
  H   H6        1.0  0.03267  0.31927  0.54414  1.0000
  H   H7        1.0  0.46733  0.31928  0.04414  1.0000
  H   H8        1.0  0.96734  0.68073  0.45586  1.0000
  H   H9        1.0  0.17352  0.77212  0.92812  1.0000
  H   H10       1.0  0.67352  0.22788  0.57188  1.0000
  H   H11       1.0  0.82648  0.22788  0.07187  1.0000
  H   H12       1.0  0.32648  0.77212  0.42813  1.0000
  H   H13       1.0  0.35143  0.86141  0.87005  1.0000
  H   H14       1.0  0.85143  0.13859  0.62995  1.0000
  H   H15       1.0  0.64856  0.13859  0.12995  1.0000
  H   H16       1.0  0.14857  0.86141  0.37005  1.0000
  H   H17       1.0  0.45612  0.94514  0.10254  1.0000
  H   H18       1.0  0.95613  0.05486  0.39745  1.0000
  H   H19       1.0  0.54387  0.05486  0.89745  1.0000
  H   H20       1.0  0.04387  0.94514  0.60255  1.0000
  H   H21       1.0  0.32779  0.81394  0.16387  1.0000
  H   H22       1.0  0.82779  0.18606  0.33613  1.0000
  H   H23       1.0  0.67221  0.18606  0.83613  1.0000
  H   H24       1.0  0.17221  0.81394  0.66387  1.0000
  H   H25       1.0  0.18759  0.07733  0.06695  1.0000
  H   H26       1.0  0.68759  0.92268  0.43305  1.0000
  H   H27       1.0  0.81241  0.92267  0.93305  1.0000
  H   H28       1.0  0.31241  0.07733  0.56695  1.0000
  H   H29       1.0  0.23650  0.06256  0.22910  1.0000
  H   H30       1.0  0.73650  0.93744  0.27090  1.0000
  H   H31       1.0  0.76350  0.93744  0.77090  1.0000
  H   H32       1.0  0.26350  0.06256  0.72910  1.0000
  H   H33       1.0  0.07498  0.95523  0.13716  1.0000
  H   H34       1.0  0.57498  0.04477  0.36284  1.0000
  H   H35       1.0  0.92502  0.04477  0.86284  1.0000
  H   H36       1.0  0.42502  0.95523  0.63716  1.0000
  C   C1        1.0  0.30845  0.79997  0.94764  1.0000
  C   C2        1.0  0.80845  0.20003  0.55236  1.0000
  C   C3        1.0  0.69155  0.20003  0.05236  1.0000
  C   C4        1.0  0.19155  0.79997  0.44764  1.0000
  C   C5        1.0  0.33163  0.88924  0.09120  1.0000
  C   C6        1.0  0.83163  0.11076  0.40880  1.0000
  C   C7        1.0  0.66837  0.11076  0.90880  1.0000
  C   C8        1.0  0.16837  0.88924  0.59120  1.0000
  N   N1        1.0  0.40579  0.66072  0.93272  1.0000
  N   N2        1.0  0.90579  0.33928  0.56728  1.0000
  N   N3        1.0  0.59421  0.33928  0.06728  1.0000
  N   N4        1.0  0.09421  0.66072  0.43272  1.0000
  N   N5        1.0  0.19769  0.00317  0.13270  1.0000
  N   N6        1.0  0.69769  0.99683  0.36730  1.0000
  N   N7        1.0  0.80231  0.99682  0.86730  1.0000
  N   N8        1.0  0.30231  0.00318  0.63270  1.0000
  O   O1        1.0  0.36124  0.30236  0.58059  1.0000
  O   O2        1.0  0.86123  0.69764  0.91941  1.0000
  O   O3        1.0  0.63877  0.69764  0.41941  1.0000
  O   O4        1.0  0.13879  0.30236  0.08060  1.0000
  O   O5        1.0  0.29646  0.35422  0.87595  1.0000
  O   O6        1.0  0.79646  0.64578  0.62404  1.0000
  O   O7        1.0  0.70354  0.64578  0.12404  1.0000
  O   O8        1.0  0.20354  0.35422  0.37596  1.0000
  O   O9        1.0  0.46718  0.64534  0.62113  1.0000
  O   O10       1.0  0.96718  0.35467  0.87888  1.0000
  O   O11       1.0  0.53281  0.35465  0.37886  1.0000
  O   O12       1.0  0.03281  0.64534  0.12113  1.0000
  O   O13       1.0  0.36905  0.11477  0.36686  1.0000
  O   O14       1.0  0.86905  0.88523  0.13314  1.0000
  O   O15       1.0  0.63095  0.88522  0.63314  1.0000
  O   O16       1.0  0.13095  0.11478  0.86686  1.0000
  F   F1        1.0  0.63662  0.42497  0.79456  1.0000
  F   F2        1.0  0.13662  0.57502  0.70543  1.0000
  F   F3        1.0  0.36338  0.57502  0.20544  1.0000
  F   F4        1.0  0.86338  0.42497  0.29456  1.0000
