data_image0
_chemical_formula_structural       Cu4H24C8N4O8F8
_chemical_formula_sum              "Cu4 H24 C8 N4 O8 F8"
_cell_length_a       6.70821
_cell_length_b       7.57686
_cell_length_c       11.1927
_cell_angle_alpha    109.757
_cell_angle_beta     97.2485
_cell_angle_gamma    90.0125

_space_group_name_H-M_alt    "P 1"
_space_group_IT_number       1

loop_
  _space_group_symop_operation_xyz
  'x, y, z'

loop_
  _atom_site_type_symbol
  _atom_site_label
  _atom_site_symmetry_multiplicity
  _atom_site_fract_x
  _atom_site_fract_y
  _atom_site_fract_z
  _atom_site_occupancy
  Cu  Cu1       1.0  0.78306  0.16916  0.83936  1.0000
  Cu  Cu2       1.0  0.71777  0.32968  0.16035  1.0000
  Cu  Cu3       1.0  0.21792  0.83073  0.16031  1.0000
  Cu  Cu4       1.0  0.28304  0.67030  0.83948  1.0000
  H   H1        1.0  0.45418  0.09165  0.90006  1.0000
  H   H2        1.0  0.04773  0.19274  0.10200  1.0000
  H   H3        1.0  0.54786  0.90951  0.10233  1.0000
  H   H4        1.0  0.95363  0.80793  0.89910  1.0000
  H   H5        1.0  0.45651  0.30641  0.90677  1.0000
  H   H6        1.0  0.04529  0.40054  0.09493  1.0000
  H   H7        1.0  0.54546  0.69460  0.09523  1.0000
  H   H8        1.0  0.95593  0.59991  0.90584  1.0000
  H   H9        1.0  0.12194  0.25446  0.79901  1.0000
  H   H10       1.0  0.37839  0.45481  0.19926  1.0000
  H   H11       1.0  0.87854  0.74455  0.19907  1.0000
  H   H12       1.0  0.62154  0.54439  0.79865  1.0000
  H   H13       1.0  0.12074  0.04118  0.79222  1.0000
  H   H14       1.0  0.37974  0.24833  0.20635  1.0000
  H   H15       1.0  0.87993  0.95816  0.20624  1.0000
  H   H16       1.0  0.62024  0.75102  0.79193  1.0000
  H   H17       1.0  0.37430  0.26864  0.65886  1.0000
  H   H18       1.0  0.12434  0.60967  0.34136  1.0000
  H   H19       1.0  0.62439  0.73193  0.34207  1.0000
  H   H20       1.0  0.87407  0.38951  0.65826  1.0000
  H   H21       1.0  0.79649  0.86046  0.57201  1.0000
  H   H22       1.0  0.70139  0.28896  0.42837  1.0000
  H   H23       1.0  0.20184  0.13973  0.42892  1.0000
  H   H24       1.0  0.29629  0.71113  0.57138  1.0000
  C   C1        1.0  0.43033  0.14861  0.58766  1.0000
  C   C2        1.0  0.06809  0.56095  0.41259  1.0000
  C   C3        1.0  0.56816  0.85189  0.41323  1.0000
  C   C4        1.0  0.93004  0.43858  0.58710  1.0000
  C   C5        1.0  0.66267  0.92236  0.53953  1.0000
  C   C6        1.0  0.83540  0.38310  0.46082  1.0000
  C   C7        1.0  0.33570  0.07796  0.46138  1.0000
  C   C8        1.0  0.16248  0.61674  0.53893  1.0000
  N   N1        1.0  0.59402  0.07043  0.62681  1.0000
  N   N2        1.0  0.90425  0.44381  0.37350  1.0000
  N   N3        1.0  0.40442  0.92995  0.37409  1.0000
  N   N4        1.0  0.09379  0.55587  0.62624  1.0000
  O   O1        1.0  0.54270  0.21037  0.92921  1.0000
  O   O2        1.0  0.95939  0.28188  0.07229  1.0000
  O   O3        1.0  0.45957  0.79063  0.07257  1.0000
  O   O4        1.0  0.04202  0.71836  0.92828  1.0000
  O   O5        1.0  0.03607  0.13470  0.76541  1.0000
  O   O6        1.0  0.46425  0.36883  0.23317  1.0000
  O   O7        1.0  0.96444  0.86441  0.23298  1.0000
  O   O8        1.0  0.53561  0.63066  0.76517  1.0000
  F   F1        1.0  0.78989  0.91071  0.83797  1.0000
  F   F2        1.0  0.71081  0.07263  0.16221  1.0000
  F   F3        1.0  0.21092  0.08941  0.16200  1.0000
  F   F4        1.0  0.29059  0.92755  0.83834  1.0000
  F   F5        1.0  0.79008  0.43300  0.85051  1.0000
  F   F6        1.0  0.71059  0.58218  0.14857  1.0000
  F   F7        1.0  0.21050  0.56656  0.14863  1.0000
  F   F8        1.0  0.29066  0.41777  0.85107  1.0000
