data_image0
_chemical_formula_structural       Mo2H24C30N4O12
_chemical_formula_sum              "Mo2 H24 C30 N4 O12"
_cell_length_a       3.95194
_cell_length_b       10.2336
_cell_length_c       21.1047
_cell_angle_alpha    90.0006
_cell_angle_beta     99.2593
_cell_angle_gamma    90.0003

_space_group_name_H-M_alt    "P 1"
_space_group_IT_number       1

loop_
  _space_group_symop_operation_xyz
  'x, y, z'

loop_
  _atom_site_type_symbol
  _atom_site_label
  _atom_site_symmetry_multiplicity
  _atom_site_fract_x
  _atom_site_fract_y
  _atom_site_fract_z
  _atom_site_occupancy
  Mo  Mo1       1.0  0.90452  0.99499  0.80428  1.0000
  Mo  Mo2       1.0  0.09548  0.49498  0.19571  1.0000
  H   H1        1.0  0.00523  0.27820  0.54432  1.0000
  H   H2        1.0  0.99477  0.77820  0.45568  1.0000
  H   H3        1.0  0.97256  0.49336  0.59741  1.0000
  H   H4        1.0  0.02742  0.99335  0.40260  1.0000
  H   H5        1.0  0.85572  0.50470  0.70985  1.0000
  H   H6        1.0  0.14428  0.00469  0.29016  1.0000
  H   H7        1.0  0.71702  0.40338  0.80421  1.0000
  H   H8        1.0  0.28298  0.90337  0.19579  1.0000
  H   H9        1.0  0.96044  0.93180  0.01059  1.0000
  H   H10       1.0  0.03960  0.43180  0.98941  1.0000
  H   H11       1.0  0.80625  0.92609  0.11946  1.0000
  H   H12       1.0  0.19379  0.42609  0.88054  1.0000
  H   H13       1.0  0.40118  0.31744  0.09336  1.0000
  H   H14       1.0  0.59880  0.81745  0.90664  1.0000
  H   H15       1.0  0.54471  0.32041  0.98379  1.0000
  H   H16       1.0  0.45528  0.82042  0.01620  1.0000
  H   H17       1.0  0.03200  0.92815  0.53095  1.0000
  H   H18       1.0  0.96798  0.42815  0.46905  1.0000
  H   H19       1.0  0.83766  0.07881  0.50093  1.0000
  H   H20       1.0  0.16233  0.57880  0.49908  1.0000
  H   H21       1.0  0.27487  0.07619  0.54162  1.0000
  H   H22       1.0  0.72513  0.57619  0.45838  1.0000
  H   H23       1.0  0.39620  0.19330  0.18443  1.0000
  H   H24       1.0  0.60380  0.69330  0.81557  1.0000
  C   C1        1.0  0.81913  0.29552  0.71991  1.0000
  C   C2        1.0  0.18087  0.79551  0.28010  1.0000
  C   C3        1.0  0.82973  0.17313  0.68931  1.0000
  C   C4        1.0  0.17027  0.67313  0.31069  1.0000
  C   C5        1.0  0.89447  0.16741  0.62538  1.0000
  C   C6        1.0  0.10552  0.66740  0.37462  1.0000
  C   C7        1.0  0.94665  0.28289  0.59293  1.0000
  C   C8        1.0  0.05333  0.78288  0.40708  1.0000
  C   C9        1.0  0.92896  0.40409  0.62306  1.0000
  C   C10       1.0  0.07107  0.90408  0.37695  1.0000
  C   C11       1.0  0.86321  0.41095  0.68557  1.0000
  C   C12       1.0  0.13674  0.91094  0.31444  1.0000
  C   C13       1.0  0.77324  0.30677  0.78602  1.0000
  C   C14       1.0  0.22676  0.80676  0.21398  1.0000
  C   C15       1.0  0.81203  0.12698  0.92284  1.0000
  C   C16       1.0  0.18798  0.62698  0.07716  1.0000
  C   C17       1.0  0.75795  0.12620  0.98916  1.0000
  C   C18       1.0  0.24207  0.62621  0.01084  1.0000
  C   C19       1.0  0.83632  0.01584  0.02856  1.0000
  C   C20       1.0  0.16370  0.51585  0.97144  1.0000
  C   C21       1.0  0.75513  0.01312  0.08998  1.0000
  C   C22       1.0  0.24489  0.51312  0.91002  1.0000
  C   C23       1.0  0.59694  0.12119  0.11406  1.0000
  C   C24       1.0  0.40309  0.62119  0.88594  1.0000
  C   C25       1.0  0.52749  0.23360  0.07571  1.0000
  C   C26       1.0  0.47250  0.73360  0.92429  1.0000
  C   C27       1.0  0.60705  0.23529  0.01427  1.0000
  C   C28       1.0  0.39296  0.73529  0.98573  1.0000
  C   C29       1.0  0.01860  0.03317  0.53990  1.0000
  C   C30       1.0  0.98139  0.53316  0.46010  1.0000
  N   N1        1.0  0.80516  0.20844  0.82593  1.0000
  N   N2        1.0  0.19485  0.70843  0.17407  1.0000
  N   N3        1.0  0.75685  0.23324  0.88740  1.0000
  N   N4        1.0  0.24316  0.73323  0.11261  1.0000
  O   O1        1.0  0.34527  0.01167  0.80626  1.0000
  O   O2        1.0  0.65473  0.51167  0.19374  1.0000
  O   O3        1.0  0.77839  0.05955  0.71823  1.0000
  O   O4        1.0  0.22160  0.55954  0.28176  1.0000
  O   O5        1.0  0.90449  0.01450  0.89760  1.0000
  O   O6        1.0  0.09553  0.51450  0.10239  1.0000
  O   O7        1.0  0.90447  0.04474  0.60033  1.0000
  O   O8        1.0  0.09553  0.54473  0.39967  1.0000
  O   O9        1.0  0.51505  0.11205  0.17372  1.0000
  O   O10       1.0  0.48495  0.61206  0.82628  1.0000
  O   O11       1.0  0.82007  0.82925  0.79746  1.0000
  O   O12       1.0  0.17992  0.32925  0.20253  1.0000
