data_image0
_chemical_formula_structural       Na4H20C24O4
_chemical_formula_sum              "Na4 H20 C24 O4"
_cell_length_a       5.74552
_cell_length_b       10.2707
_cell_length_c       10.9966
_cell_angle_alpha    117.809
_cell_angle_beta     105.148
_cell_angle_gamma    90.0149

_space_group_name_H-M_alt    "P 1"
_space_group_IT_number       1

loop_
  _space_group_symop_operation_xyz
  'x, y, z'

loop_
  _atom_site_type_symbol
  _atom_site_label
  _atom_site_symmetry_multiplicity
  _atom_site_fract_x
  _atom_site_fract_y
  _atom_site_fract_z
  _atom_site_occupancy
  Na  Na1       1.0  0.05648  0.17262  0.12109  1.0000
  Na  Na2       1.0  0.93575  0.82728  0.87893  1.0000
  Na  Na3       1.0  0.55686  0.94854  0.12123  1.0000
  Na  Na4       1.0  0.43550  0.05127  0.87863  1.0000
  H   H1        1.0  0.78925  0.22700  0.36282  1.0000
  H   H2        1.0  0.42727  0.77300  0.63719  1.0000
  H   H3        1.0  0.29003  0.13610  0.36304  1.0000
  H   H4        1.0  0.92724  0.86403  0.63712  1.0000
  H   H5        1.0  0.13668  0.43261  0.48966  1.0000
  H   H6        1.0  0.64748  0.56741  0.51038  1.0000
  H   H7        1.0  0.63762  0.05751  0.48993  1.0000
  H   H8        1.0  0.14781  0.94294  0.51036  1.0000
  H   H9        1.0  0.17832  0.60753  0.39511  1.0000
  H   H10       1.0  0.78308  0.39221  0.60474  1.0000
  H   H11       1.0  0.67951  0.78825  0.39574  1.0000
  H   H12       1.0  0.28323  0.21244  0.60464  1.0000
  H   H13       1.0  0.86064  0.58003  0.17838  1.0000
  H   H14       1.0  0.68158  0.41957  0.82127  1.0000
  H   H15       1.0  0.36160  0.59888  0.17921  1.0000
  H   H16       1.0  0.18128  0.40138  0.82090  1.0000
  H   H17       1.0  0.51240  0.37448  0.05044  1.0000
  H   H18       1.0  0.46162  0.62512  0.94917  1.0000
  H   H19       1.0  0.01314  0.67633  0.05124  1.0000
  H   H20       1.0  0.96109  0.32366  0.94877  1.0000
  C   C1        1.0  0.62534  0.28235  0.19448  1.0000
  C   C2        1.0  0.43119  0.71752  0.80539  1.0000
  C   C3        1.0  0.12607  0.91244  0.19494  1.0000
  C   C4        1.0  0.93086  0.08755  0.80516  1.0000
  C   C5        1.0  0.80553  0.30395  0.32174  1.0000
  C   C6        1.0  0.48438  0.69599  0.67826  1.0000
  C   C7        1.0  0.30634  0.01811  0.32205  1.0000
  C   C8        1.0  0.98428  0.98206  0.67811  1.0000
  C   C9        1.0  0.00075  0.41954  0.39289  1.0000
  C   C10       1.0  0.60840  0.58043  0.60714  1.0000
  C   C11       1.0  0.50173  0.97380  0.39322  1.0000
  C   C12       1.0  0.10851  0.02655  0.60704  1.0000
  C   C13       1.0  0.02424  0.51893  0.34121  1.0000
  C   C14       1.0  0.68321  0.48090  0.65869  1.0000
  C   C15       1.0  0.52535  0.82283  0.34176  1.0000
  C   C16       1.0  0.18318  0.17758  0.65850  1.0000
  C   C17       1.0  0.84592  0.50202  0.21836  1.0000
  C   C18       1.0  0.62738  0.49770  0.78139  1.0000
  C   C19       1.0  0.34691  0.71682  0.21908  1.0000
  C   C20       1.0  0.12696  0.28340  0.78103  1.0000
  C   C21       1.0  0.65026  0.38722  0.14661  1.0000
  C   C22       1.0  0.50364  0.61253  0.85315  1.0000
  C   C23       1.0  0.15108  0.75979  0.14731  1.0000
  C   C24       1.0  0.00306  0.24026  0.85274  1.0000
  O   O1        1.0  0.44894  0.16764  0.12128  1.0000
  O   O2        1.0  0.32795  0.83215  0.87855  1.0000
  O   O3        1.0  0.94945  0.95375  0.12164  1.0000
  O   O4        1.0  0.82764  0.04600  0.87834  1.0000
