data_image0
_chemical_formula_structural       Zn4H40C36N8O24
_chemical_formula_sum              "Zn4 H40 C36 N8 O24"
_cell_length_a       7.20882
_cell_length_b       7.37383
_cell_length_c       21.8429
_cell_angle_alpha    89.9996
_cell_angle_beta     89.9989
_cell_angle_gamma    90

_space_group_name_H-M_alt    "P 1"
_space_group_IT_number       1

loop_
  _space_group_symop_operation_xyz
  'x, y, z'

loop_
  _atom_site_type_symbol
  _atom_site_label
  _atom_site_symmetry_multiplicity
  _atom_site_fract_x
  _atom_site_fract_y
  _atom_site_fract_z
  _atom_site_occupancy
  Zn  Zn1       1.0  0.75001  0.92662  0.21444  1.0000
  Zn  Zn2       1.0  0.25000  0.42661  0.28556  1.0000
  Zn  Zn3       1.0  0.75000  0.57338  0.71444  1.0000
  Zn  Zn4       1.0  0.25000  0.07338  0.78557  1.0000
  H   H1        1.0  0.75000  0.29274  0.86009  1.0000
  H   H2        1.0  0.25000  0.79274  0.63991  1.0000
  H   H3        1.0  0.75000  0.20726  0.36009  1.0000
  H   H4        1.0  0.25001  0.70725  0.13991  1.0000
  H   H5        1.0  0.63728  0.20950  0.27026  1.0000
  H   H6        1.0  0.36272  0.70950  0.22974  1.0000
  H   H7        1.0  0.86272  0.29050  0.77026  1.0000
  H   H8        1.0  0.13728  0.79050  0.72974  1.0000
  H   H9        1.0  0.36272  0.79051  0.72974  1.0000
  H   H10       1.0  0.63728  0.29050  0.77026  1.0000
  H   H11       1.0  0.13728  0.70949  0.22974  1.0000
  H   H12       1.0  0.86273  0.20950  0.27026  1.0000
  H   H13       1.0  0.75001  0.93967  0.07671  1.0000
  H   H14       1.0  0.25001  0.43967  0.42329  1.0000
  H   H15       1.0  0.74999  0.56033  0.57671  1.0000
  H   H16       1.0  0.24999  0.06033  0.92329  1.0000
  H   H17       1.0  0.75001  0.72720  0.98754  1.0000
  H   H18       1.0  0.25001  0.22719  0.51245  1.0000
  H   H19       1.0  0.74999  0.77279  0.48755  1.0000
  H   H20       1.0  0.24998  0.27281  0.01246  1.0000
  H   H21       1.0  0.75000  0.28578  0.11782  1.0000
  H   H22       1.0  0.24999  0.78578  0.38218  1.0000
  H   H23       1.0  0.75000  0.21421  0.61781  1.0000
  H   H24       1.0  0.24998  0.71422  0.88218  1.0000
  H   H25       1.0  0.75000  0.51573  0.20070  1.0000
  H   H26       1.0  0.24999  0.01573  0.29930  1.0000
  H   H27       1.0  0.75000  0.98427  0.70069  1.0000
  H   H28       1.0  0.24999  0.48427  0.79930  1.0000
  H   H29       1.0  0.75000  0.20677  0.01110  1.0000
  H   H30       1.0  0.25000  0.70676  0.48890  1.0000
  H   H31       1.0  0.75000  0.29322  0.51110  1.0000
  H   H32       1.0  0.25000  0.79324  0.98890  1.0000
  H   H33       1.0  0.25002  0.35848  0.13441  1.0000
  H   H34       1.0  0.75000  0.85849  0.36559  1.0000
  H   H35       1.0  0.25001  0.14151  0.63441  1.0000
  H   H36       1.0  0.74999  0.64152  0.86559  1.0000
  H   H37       1.0  0.25002  0.12479  0.11064  1.0000
  H   H38       1.0  0.74999  0.62481  0.38935  1.0000
  H   H39       1.0  0.25001  0.37519  0.61065  1.0000
  H   H40       1.0  0.74999  0.87520  0.88936  1.0000
  C   C1        1.0  0.75001  0.79332  0.08335  1.0000
  C   C2        1.0  0.25001  0.29332  0.41665  1.0000
  C   C3        1.0  0.74999  0.70668  0.58335  1.0000
  C   C4        1.0  0.24998  0.20669  0.91665  1.0000
  C   C5        1.0  0.75000  0.67502  0.03413  1.0000
  C   C6        1.0  0.25000  0.17503  0.46587  1.0000
  C   C7        1.0  0.74999  0.82497  0.53413  1.0000
  C   C8        1.0  0.24998  0.32497  0.96587  1.0000
  C   C9        1.0  0.75000  0.48694  0.04515  1.0000
  C   C10       1.0  0.25000  0.98694  0.45485  1.0000
  C   C11       1.0  0.74999  0.01305  0.54515  1.0000
  C   C12       1.0  0.24998  0.51306  0.95485  1.0000
  C   C13       1.0  0.75000  0.42950  0.10640  1.0000
  C   C14       1.0  0.24999  0.92950  0.39360  1.0000
  C   C15       1.0  0.74999  0.07050  0.60640  1.0000
  C   C16       1.0  0.24999  0.57050  0.89360  1.0000
  C   C17       1.0  0.75001  0.55754  0.15292  1.0000
  C   C18       1.0  0.25000  0.05754  0.34708  1.0000
  C   C19       1.0  0.75000  0.94246  0.65292  1.0000
  C   C20       1.0  0.24999  0.44247  0.84708  1.0000
  C   C21       1.0  0.75000  0.35002  0.99737  1.0000
  C   C22       1.0  0.25000  0.85002  0.50262  1.0000
  C   C23       1.0  0.75000  0.14997  0.49737  1.0000
  C   C24       1.0  0.24999  0.64998  0.00262  1.0000
  C   C25       1.0  0.42492  0.18422  0.18724  1.0000
  C   C26       1.0  0.57508  0.68422  0.31276  1.0000
  C   C27       1.0  0.07509  0.31579  0.68724  1.0000
  C   C28       1.0  0.92490  0.81578  0.81276  1.0000
  C   C29       1.0  0.57509  0.81579  0.81276  1.0000
  C   C30       1.0  0.42492  0.31579  0.68724  1.0000
  C   C31       1.0  0.92491  0.68421  0.31276  1.0000
  C   C32       1.0  0.07510  0.18422  0.18724  1.0000
  C   C33       1.0  0.25002  0.21628  0.15003  1.0000
  C   C34       1.0  0.74999  0.71628  0.34997  1.0000
  C   C35       1.0  0.25001  0.28372  0.65003  1.0000
  C   C36       1.0  0.74999  0.78373  0.84997  1.0000
  N   N1        1.0  0.75001  0.73681  0.14211  1.0000
  N   N2        1.0  0.25000  0.23680  0.35789  1.0000
  N   N3        1.0  0.75000  0.76319  0.64211  1.0000
  N   N4        1.0  0.24999  0.26320  0.85789  1.0000
  N   N5        1.0  0.75000  0.39279  0.94003  1.0000
  N   N6        1.0  0.25000  0.89279  0.55997  1.0000
  N   N7        1.0  0.75000  0.10721  0.44002  1.0000
  N   N8        1.0  0.25000  0.60721  0.05997  1.0000
  O   O1        1.0  0.75000  0.24273  0.90311  1.0000
  O   O2        1.0  0.25000  0.74272  0.59689  1.0000
  O   O3        1.0  0.75000  0.25727  0.40311  1.0000
  O   O4        1.0  0.25001  0.75727  0.09689  1.0000
  O   O5        1.0  0.75000  0.14514  0.28731  1.0000
  O   O6        1.0  0.25000  0.64514  0.21269  1.0000
  O   O7        1.0  0.75000  0.35487  0.78731  1.0000
  O   O8        1.0  0.25000  0.85487  0.71269  1.0000
  O   O9        1.0  0.53695  0.06569  0.16796  1.0000
  O   O10       1.0  0.46306  0.56568  0.33204  1.0000
  O   O11       1.0  0.96307  0.43432  0.66796  1.0000
  O   O12       1.0  0.03694  0.93431  0.83204  1.0000
  O   O13       1.0  0.46306  0.93432  0.83204  1.0000
  O   O14       1.0  0.53694  0.43432  0.66796  1.0000
  O   O15       1.0  0.03693  0.56568  0.33204  1.0000
  O   O16       1.0  0.96307  0.06569  0.16796  1.0000
  O   O17       1.0  0.45178  0.27832  0.23601  1.0000
  O   O18       1.0  0.54823  0.77832  0.26399  1.0000
  O   O19       1.0  0.04823  0.22168  0.73601  1.0000
  O   O20       1.0  0.95177  0.72169  0.76399  1.0000
  O   O21       1.0  0.54823  0.72169  0.76399  1.0000
  O   O22       1.0  0.45178  0.22168  0.73601  1.0000
  O   O23       1.0  0.95178  0.77832  0.26399  1.0000
  O   O24       1.0  0.04824  0.27832  0.23601  1.0000
