data_image0
_chemical_formula_structural       Cd4H40C36N8O24
_chemical_formula_sum              "Cd4 H40 C36 N8 O24"
_cell_length_a       7.53207
_cell_length_b       7.53205
_cell_length_c       21.763
_cell_angle_alpha    90
_cell_angle_beta     90.0001
_cell_angle_gamma    91.4241

_space_group_name_H-M_alt    "P 1"
_space_group_IT_number       1

loop_
  _space_group_symop_operation_xyz
  'x, y, z'

loop_
  _atom_site_type_symbol
  _atom_site_label
  _atom_site_symmetry_multiplicity
  _atom_site_fract_x
  _atom_site_fract_y
  _atom_site_fract_z
  _atom_site_occupancy
  Cd  Cd1       1.0  0.65114  0.74159  0.70718  1.0000
  Cd  Cd2       1.0  0.25841  0.34886  0.29282  1.0000
  Cd  Cd3       1.0  0.75841  0.84886  0.20718  1.0000
  Cd  Cd4       1.0  0.15114  0.24159  0.79282  1.0000
  H   H1        1.0  0.25268  0.01599  0.39946  1.0000
  H   H2        1.0  0.98402  0.74733  0.60054  1.0000
  H   H3        1.0  0.48401  0.24732  0.89946  1.0000
  H   H4        1.0  0.75267  0.51599  0.10054  1.0000
  H   H5        1.0  0.38250  0.64980  0.60207  1.0000
  H   H6        1.0  0.35020  0.61750  0.39793  1.0000
  H   H7        1.0  0.85020  0.11751  0.10207  1.0000
  H   H8        1.0  0.88249  0.14980  0.89793  1.0000
  H   H9        1.0  0.29844  0.41180  0.52770  1.0000
  H   H10       1.0  0.58819  0.70156  0.47230  1.0000
  H   H11       1.0  0.08820  0.20156  0.02770  1.0000
  H   H12       1.0  0.79844  0.91180  0.97230  1.0000
  H   H13       1.0  0.73082  0.10745  0.59906  1.0000
  H   H14       1.0  0.89254  0.26917  0.40094  1.0000
  H   H15       1.0  0.39255  0.76918  0.09906  1.0000
  H   H16       1.0  0.23082  0.60746  0.90094  1.0000
  H   H17       1.0  0.79771  0.35831  0.67112  1.0000
  H   H18       1.0  0.64168  0.20230  0.32888  1.0000
  H   H19       1.0  0.14168  0.70230  0.17112  1.0000
  H   H20       1.0  0.29771  0.85832  0.82888  1.0000
  H   H21       1.0  0.55083  0.97609  0.51533  1.0000
  H   H22       1.0  0.02391  0.44916  0.48467  1.0000
  H   H23       1.0  0.52391  0.94916  0.01533  1.0000
  H   H24       1.0  0.05084  0.47609  0.98467  1.0000
  H   H25       1.0  0.66423  0.70955  0.85370  1.0000
  H   H26       1.0  0.29046  0.33577  0.14630  1.0000
  H   H27       1.0  0.79046  0.83577  0.35370  1.0000
  H   H28       1.0  0.16423  0.20955  0.64630  1.0000
  H   H29       1.0  0.66870  0.50837  0.89871  1.0000
  H   H30       1.0  0.49163  0.33130  0.10129  1.0000
  H   H31       1.0  0.99163  0.83130  0.39871  1.0000
  H   H32       1.0  0.16870  0.00836  0.60129  1.0000
  H   H33       1.0  0.54600  0.02040  0.77003  1.0000
  H   H34       1.0  0.97959  0.45400  0.22997  1.0000
  H   H35       1.0  0.47959  0.95400  0.27003  1.0000
  H   H36       1.0  0.04600  0.52041  0.72997  1.0000
  H   H37       1.0  0.75967  0.02488  0.76706  1.0000
  H   H38       1.0  0.97512  0.24033  0.23294  1.0000
  H   H39       1.0  0.47512  0.74034  0.26706  1.0000
  H   H40       1.0  0.25966  0.52488  0.73294  1.0000
  C   C1        1.0  0.45688  0.52796  0.59956  1.0000
  C   C2        1.0  0.47204  0.54313  0.40044  1.0000
  C   C3        1.0  0.97204  0.04313  0.09956  1.0000
  C   C4        1.0  0.95687  0.02796  0.90044  1.0000
  C   C5        1.0  0.41076  0.39497  0.55831  1.0000
  C   C6        1.0  0.60502  0.58924  0.44169  1.0000
  C   C7        1.0  0.10502  0.08924  0.05831  1.0000
  C   C8        1.0  0.91076  0.89498  0.94169  1.0000
  C   C9        1.0  0.51009  0.23975  0.55625  1.0000
  C   C10       1.0  0.76025  0.48991  0.44375  1.0000
  C   C11       1.0  0.26025  0.98991  0.05625  1.0000
  C   C12       1.0  0.01008  0.73975  0.94375  1.0000
  C   C13       1.0  0.65170  0.22652  0.59789  1.0000
  C   C14       1.0  0.77347  0.34830  0.40211  1.0000
  C   C15       1.0  0.27347  0.84830  0.09789  1.0000
  C   C16       1.0  0.15170  0.72653  0.90211  1.0000
  C   C17       1.0  0.68921  0.36558  0.63816  1.0000
  C   C18       1.0  0.63442  0.31080  0.36184  1.0000
  C   C19       1.0  0.13442  0.81080  0.13816  1.0000
  C   C20       1.0  0.18921  0.86558  0.86184  1.0000
  C   C21       1.0  0.47298  0.09712  0.51265  1.0000
  C   C22       1.0  0.90287  0.52702  0.48736  1.0000
  C   C23       1.0  0.40288  0.02702  0.01265  1.0000
  C   C24       1.0  0.97298  0.59712  0.98735  1.0000
  C   C25       1.0  0.49102  0.50294  0.82044  1.0000
  C   C26       1.0  0.49707  0.50898  0.17956  1.0000
  C   C27       1.0  0.99706  0.00898  0.32044  1.0000
  C   C28       1.0  0.99102  0.00294  0.67956  1.0000
  C   C29       1.0  0.66201  0.56344  0.85228  1.0000
  C   C30       1.0  0.43656  0.33799  0.14772  1.0000
  C   C31       1.0  0.93656  0.83798  0.35228  1.0000
  C   C32       1.0  0.16201  0.06344  0.64772  1.0000
  C   C33       1.0  0.82530  0.50656  0.81595  1.0000
  C   C34       1.0  0.49344  0.17469  0.18405  1.0000
  C   C35       1.0  0.99344  0.67469  0.31595  1.0000
  C   C36       1.0  0.32531  0.00656  0.68405  1.0000
  N   N1        1.0  0.59465  0.51501  0.63891  1.0000
  N   N2        1.0  0.48499  0.40535  0.36109  1.0000
  N   N3        1.0  0.98499  0.90536  0.13891  1.0000
  N   N4        1.0  0.09464  0.01501  0.86109  1.0000
  N   N5        1.0  0.35359  0.11767  0.47081  1.0000
  N   N6        1.0  0.88233  0.64641  0.52919  1.0000
  N   N7        1.0  0.38233  0.14640  0.97081  1.0000
  N   N8        1.0  0.85359  0.61767  0.02919  1.0000
  O   O1        1.0  0.33747  0.97448  0.43195  1.0000
  O   O2        1.0  0.02552  0.66253  0.56805  1.0000
  O   O3        1.0  0.52552  0.16253  0.93195  1.0000
  O   O4        1.0  0.83747  0.47448  0.06805  1.0000
  O   O5        1.0  0.85289  0.57538  0.76286  1.0000
  O   O6        1.0  0.42462  0.14711  0.23714  1.0000
  O   O7        1.0  0.92462  0.64711  0.26286  1.0000
  O   O8        1.0  0.35289  0.07538  0.73714  1.0000
  O   O9        1.0  0.44265  0.58669  0.77289  1.0000
  O   O10       1.0  0.41331  0.55736  0.22711  1.0000
  O   O11       1.0  0.91331  0.05736  0.27289  1.0000
  O   O12       1.0  0.94265  0.08669  0.72711  1.0000
  O   O13       1.0  0.92441  0.39466  0.84099  1.0000
  O   O14       1.0  0.60534  0.07559  0.15901  1.0000
  O   O15       1.0  0.10534  0.57559  0.34098  1.0000
  O   O16       1.0  0.42441  0.89466  0.65902  1.0000
  O   O17       1.0  0.40313  0.37108  0.84337  1.0000
  O   O18       1.0  0.62892  0.59687  0.15663  1.0000
  O   O19       1.0  0.12892  0.09687  0.34337  1.0000
  O   O20       1.0  0.90313  0.87108  0.65663  1.0000
  O   O21       1.0  0.65453  0.95704  0.78350  1.0000
  O   O22       1.0  0.04296  0.34547  0.21650  1.0000
  O   O23       1.0  0.54296  0.84547  0.28350  1.0000
  O   O24       1.0  0.15452  0.45704  0.71650  1.0000
