data_image0
_chemical_formula_structural       Cd2H36C24N4O12
_chemical_formula_sum              "Cd2 H36 C24 N4 O12"
_cell_length_a       8.92704
_cell_length_b       8.927
_cell_length_c       9.79891
_cell_angle_alpha    105.471
_cell_angle_beta     105.471
_cell_angle_gamma    102.15

_space_group_name_H-M_alt    "P 1"
_space_group_IT_number       1

loop_
  _space_group_symop_operation_xyz
  'x, y, z'

loop_
  _atom_site_type_symbol
  _atom_site_label
  _atom_site_symmetry_multiplicity
  _atom_site_fract_x
  _atom_site_fract_y
  _atom_site_fract_z
  _atom_site_occupancy
  Cd  Cd1       1.0  0.96434  0.03566  0.25000  1.0000
  Cd  Cd2       1.0  0.03567  0.96433  0.75000  1.0000
  H   H1        1.0  0.02011  0.23167  0.58220  1.0000
  H   H2        1.0  0.76833  0.97989  0.91780  1.0000
  H   H3        1.0  0.97989  0.76833  0.41780  1.0000
  H   H4        1.0  0.23167  0.02011  0.08220  1.0000
  H   H5        1.0  0.81258  0.53678  0.46146  1.0000
  H   H6        1.0  0.46322  0.18742  0.03854  1.0000
  H   H7        1.0  0.18742  0.46322  0.53854  1.0000
  H   H8        1.0  0.53678  0.81258  0.96146  1.0000
  H   H9        1.0  0.70488  0.39352  0.52030  1.0000
  H   H10       1.0  0.60649  0.29511  0.97970  1.0000
  H   H11       1.0  0.29512  0.60648  0.47970  1.0000
  H   H12       1.0  0.39352  0.70489  0.02030  1.0000
  H   H13       1.0  0.45174  0.33258  0.30796  1.0000
  H   H14       1.0  0.66742  0.54825  0.19204  1.0000
  H   H15       1.0  0.54826  0.66741  0.69204  1.0000
  H   H16       1.0  0.33258  0.45174  0.80796  1.0000
  H   H17       1.0  0.53538  0.54697  0.39027  1.0000
  H   H18       1.0  0.45303  0.46462  0.10973  1.0000
  H   H19       1.0  0.46462  0.45303  0.60973  1.0000
  H   H20       1.0  0.54697  0.53538  0.89027  1.0000
  H   H21       1.0  0.52860  0.75711  0.26688  1.0000
  H   H22       1.0  0.24288  0.47140  0.23312  1.0000
  H   H23       1.0  0.47139  0.24288  0.73312  1.0000
  H   H24       1.0  0.75712  0.52860  0.76687  1.0000
  H   H25       1.0  0.59777  0.96427  0.29488  1.0000
  H   H26       1.0  0.03573  0.40224  0.20512  1.0000
  H   H27       1.0  0.40223  0.03573  0.70512  1.0000
  H   H28       1.0  0.96427  0.59776  0.79488  1.0000
  H   H29       1.0  0.34847  0.87577  0.37252  1.0000
  H   H30       1.0  0.12423  0.65153  0.12748  1.0000
  H   H31       1.0  0.65154  0.12424  0.62748  1.0000
  H   H32       1.0  0.87576  0.34846  0.87252  1.0000
  H   H33       1.0  0.47851  0.83359  0.51960  1.0000
  H   H34       1.0  0.16641  0.52149  0.98041  1.0000
  H   H35       1.0  0.52149  0.16641  0.48040  1.0000
  H   H36       1.0  0.83359  0.47851  0.01959  1.0000
  C   C1        1.0  0.77236  0.29225  0.33349  1.0000
  C   C2        1.0  0.70775  0.22765  0.16652  1.0000
  C   C3        1.0  0.22765  0.70776  0.66651  1.0000
  C   C4        1.0  0.29226  0.77235  0.83348  1.0000
  C   C5        1.0  0.71453  0.42018  0.41935  1.0000
  C   C6        1.0  0.57982  0.28547  0.08065  1.0000
  C   C7        1.0  0.28547  0.57982  0.58065  1.0000
  C   C8        1.0  0.42017  0.71453  0.91935  1.0000
  C   C9        1.0  0.55572  0.43645  0.32593  1.0000
  C   C10       1.0  0.56356  0.44428  0.17407  1.0000
  C   C11       1.0  0.44428  0.56355  0.67407  1.0000
  C   C12       1.0  0.43645  0.55572  0.82593  1.0000
  C   C13       1.0  0.75322  0.88053  0.44442  1.0000
  C   C14       1.0  0.11946  0.24678  0.05559  1.0000
  C   C15       1.0  0.24679  0.11947  0.55559  1.0000
  C   C16       1.0  0.88053  0.75322  0.94441  1.0000
  C   C17       1.0  0.58416  0.87788  0.35592  1.0000
  C   C18       1.0  0.12212  0.41584  0.14408  1.0000
  C   C19       1.0  0.41584  0.12212  0.64408  1.0000
  C   C20       1.0  0.87788  0.58416  0.85592  1.0000
  C   C21       1.0  0.47488  0.91103  0.44899  1.0000
  C   C22       1.0  0.08897  0.52512  0.05101  1.0000
  C   C23       1.0  0.52512  0.08897  0.55101  1.0000
  C   C24       1.0  0.91103  0.47488  0.94899  1.0000
  N   N1        1.0  0.88063  0.23380  0.39971  1.0000
  N   N2        1.0  0.76620  0.11936  0.10030  1.0000
  N   N3        1.0  0.11938  0.76620  0.60030  1.0000
  N   N4        1.0  0.23380  0.88064  0.89971  1.0000
  O   O1        1.0  0.93992  0.29549  0.55389  1.0000
  O   O2        1.0  0.70452  0.06008  0.94612  1.0000
  O   O3        1.0  0.06008  0.70452  0.44611  1.0000
  O   O4        1.0  0.29548  0.93991  0.05388  1.0000
  O   O5        1.0  0.85201  0.85677  0.37228  1.0000
  O   O6        1.0  0.14323  0.14799  0.12772  1.0000
  O   O7        1.0  0.14799  0.14323  0.62772  1.0000
  O   O8        1.0  0.85677  0.85201  0.87228  1.0000
  O   O9        1.0  0.78591  0.90072  0.58326  1.0000
  O   O10       1.0  0.09927  0.21409  0.91674  1.0000
  O   O11       1.0  0.21409  0.09927  0.41674  1.0000
  O   O12       1.0  0.90072  0.78591  0.08326  1.0000
