data_image0
_chemical_formula_structural       UCuH10C14N2O12
_chemical_formula_sum              "U1 Cu1 H10 C14 N2 O12"
_cell_length_a       5.34018
_cell_length_b       7.7754
_cell_length_c       10.7746
_cell_angle_alpha    103.81
_cell_angle_beta     91.8462
_cell_angle_gamma    99.9409

_space_group_name_H-M_alt    "P 1"
_space_group_IT_number       1

loop_
  _space_group_symop_operation_xyz
  'x, y, z'

loop_
  _atom_site_type_symbol
  _atom_site_label
  _atom_site_symmetry_multiplicity
  _atom_site_fract_x
  _atom_site_fract_y
  _atom_site_fract_z
  _atom_site_occupancy
  U   U1        1.0  0.99999  0.50001  0.49999  1.0000
  Cu  Cu1       1.0  0.00000  0.50000  0.00000  1.0000
  H   H1        1.0  0.76251  0.97869  0.10569  1.0000
  H   H2        1.0  0.23750  0.02130  0.89432  1.0000
  H   H3        1.0  0.94115  0.74657  0.25818  1.0000
  H   H4        1.0  0.05885  0.25343  0.74183  1.0000
  H   H5        1.0  0.22937  0.02242  0.39939  1.0000
  H   H6        1.0  0.77064  0.97758  0.60061  1.0000
  H   H7        1.0  0.47534  0.56398  0.36158  1.0000
  H   H8        1.0  0.52465  0.43602  0.63841  1.0000
  H   H9        1.0  0.29689  0.41592  0.24790  1.0000
  H   H10       1.0  0.70311  0.58407  0.75210  1.0000
  C   C1        1.0  0.69300  0.17806  0.34459  1.0000
  C   C2        1.0  0.30701  0.82194  0.65541  1.0000
  C   C3        1.0  0.51563  0.01917  0.26254  1.0000
  C   C4        1.0  0.48437  0.98083  0.73746  1.0000
  C   C5        1.0  0.58264  0.93186  0.14249  1.0000
  C   C6        1.0  0.41736  0.06814  0.85751  1.0000
  C   C7        1.0  0.41483  0.78146  0.07126  1.0000
  C   C8        1.0  0.58517  0.21854  0.92874  1.0000
  C   C9        1.0  0.12249  0.80512  0.22857  1.0000
  C   C10       1.0  0.87751  0.19488  0.77143  1.0000
  C   C11       1.0  0.28265  0.95555  0.30603  1.0000
  C   C12       1.0  0.71735  0.04445  0.69397  1.0000
  C   C13       1.0  0.46794  0.66824  0.94449  1.0000
  C   C14       1.0  0.53206  0.33175  0.05551  1.0000
  N   N1        1.0  0.18955  0.72126  0.11430  1.0000
  N   N2        1.0  0.81045  0.27874  0.88570  1.0000
  O   O1        1.0  0.19135  0.37236  0.57308  1.0000
  O   O2        1.0  0.80864  0.62766  0.42691  1.0000
  O   O3        1.0  0.64276  0.24233  0.45967  1.0000
  O   O4        1.0  0.35724  0.75768  0.54033  1.0000
  O   O5        1.0  0.89279  0.24923  0.30077  1.0000
  O   O6        1.0  0.10721  0.75077  0.69922  1.0000
  O   O7        1.0  0.67345  0.70989  0.89622  1.0000
  O   O8        1.0  0.32656  0.29011  0.10378  1.0000
  O   O9        1.0  0.29366  0.52925  0.89437  1.0000
  O   O10       1.0  0.70634  0.47074  0.10564  1.0000
  O   O11       1.0  0.29742  0.50475  0.33308  1.0000
  O   O12       1.0  0.70257  0.49525  0.66691  1.0000
