data_image0
_chemical_formula_structural       Cd4H44C32N4Cl8O4
_chemical_formula_sum              "Cd4 H44 C32 N4 Cl8 O4"
_cell_length_a       6.45434
_cell_length_b       11.3183
_cell_length_c       15.0798
_cell_angle_alpha    90
_cell_angle_beta     89.9995
_cell_angle_gamma    105.713

_space_group_name_H-M_alt    "P 1"
_space_group_IT_number       1

loop_
  _space_group_symop_operation_xyz
  'x, y, z'

loop_
  _atom_site_type_symbol
  _atom_site_label
  _atom_site_symmetry_multiplicity
  _atom_site_fract_x
  _atom_site_fract_y
  _atom_site_fract_z
  _atom_site_occupancy
  Cd  Cd1       1.0  0.78120  0.06295  0.54316  1.0000
  Cd  Cd2       1.0  0.21880  0.43705  0.04316  1.0000
  Cd  Cd3       1.0  0.21880  0.93705  0.45685  1.0000
  Cd  Cd4       1.0  0.78120  0.56295  0.95685  1.0000
  H   H1        1.0  0.73142  0.26882  0.42347  1.0000
  H   H2        1.0  0.26858  0.23118  0.92347  1.0000
  H   H3        1.0  0.26859  0.73117  0.57653  1.0000
  H   H4        1.0  0.73142  0.76883  0.07653  1.0000
  H   H5        1.0  0.72064  0.48819  0.41846  1.0000
  H   H6        1.0  0.27936  0.01181  0.91846  1.0000
  H   H7        1.0  0.27936  0.51181  0.58153  1.0000
  H   H8        1.0  0.72064  0.98819  0.08154  1.0000
  H   H9        1.0  0.73356  0.60243  0.56245  1.0000
  H   H10       1.0  0.26644  0.89756  0.06245  1.0000
  H   H11       1.0  0.26644  0.39756  0.43754  1.0000
  H   H12       1.0  0.73356  0.10243  0.93755  1.0000
  H   H13       1.0  0.75290  0.48965  0.70485  1.0000
  H   H14       1.0  0.24709  0.01035  0.20485  1.0000
  H   H15       1.0  0.24709  0.51036  0.29515  1.0000
  H   H16       1.0  0.75290  0.98965  0.79515  1.0000
  H   H17       1.0  0.68280  0.15683  0.71487  1.0000
  H   H18       1.0  0.31720  0.34317  0.21487  1.0000
  H   H19       1.0  0.31720  0.84317  0.28513  1.0000
  H   H20       1.0  0.68280  0.65683  0.78513  1.0000
  H   H21       1.0  0.68974  0.29124  0.77650  1.0000
  H   H22       1.0  0.31026  0.20876  0.27650  1.0000
  H   H23       1.0  0.31025  0.70877  0.22349  1.0000
  H   H24       1.0  0.68975  0.79123  0.72350  1.0000
  H   H25       1.0  0.08505  0.36560  0.76181  1.0000
  H   H26       1.0  0.91495  0.13439  0.26181  1.0000
  H   H27       1.0  0.91495  0.63440  0.23819  1.0000
  H   H28       1.0  0.08505  0.86560  0.73819  1.0000
  H   H29       1.0  0.99909  0.22475  0.81744  1.0000
  H   H30       1.0  0.00091  0.27525  0.31744  1.0000
  H   H31       1.0  0.00090  0.77525  0.18256  1.0000
  H   H32       1.0  0.99909  0.72475  0.68256  1.0000
  H   H33       1.0  0.16515  0.26627  0.62532  1.0000
  H   H34       1.0  0.83485  0.23373  0.12532  1.0000
  H   H35       1.0  0.83486  0.73373  0.37468  1.0000
  H   H36       1.0  0.16514  0.76627  0.87468  1.0000
  H   H37       1.0  0.29448  0.22050  0.71820  1.0000
  H   H38       1.0  0.70552  0.27950  0.21820  1.0000
  H   H39       1.0  0.70552  0.77950  0.28181  1.0000
  H   H40       1.0  0.29448  0.72050  0.78180  1.0000
  H   H41       1.0  0.13508  0.04791  0.64948  1.0000
  H   H42       1.0  0.86491  0.45209  0.14948  1.0000
  H   H43       1.0  0.86492  0.95209  0.35052  1.0000
  H   H44       1.0  0.13509  0.54791  0.85052  1.0000
  C   C1        1.0  0.73695  0.32240  0.48401  1.0000
  C   C2        1.0  0.26305  0.17760  0.98400  1.0000
  C   C3        1.0  0.26305  0.67759  0.51599  1.0000
  C   C4        1.0  0.73695  0.82241  0.01600  1.0000
  C   C5        1.0  0.72963  0.44372  0.48183  1.0000
  C   C6        1.0  0.27037  0.05627  0.98183  1.0000
  C   C7        1.0  0.27038  0.55627  0.51816  1.0000
  C   C8        1.0  0.72963  0.94373  0.01817  1.0000
  C   C9        1.0  0.73588  0.50635  0.56194  1.0000
  C   C10       1.0  0.26412  0.99365  0.06194  1.0000
  C   C11       1.0  0.26412  0.49365  0.43806  1.0000
  C   C12       1.0  0.73588  0.00635  0.93806  1.0000
  C   C13       1.0  0.74633  0.44433  0.64074  1.0000
  C   C14       1.0  0.25367  0.05567  0.14074  1.0000
  C   C15       1.0  0.25366  0.55567  0.35926  1.0000
  C   C16       1.0  0.74633  0.94433  0.85926  1.0000
  C   C17       1.0  0.75289  0.32157  0.63862  1.0000
  C   C18       1.0  0.24712  0.17843  0.13862  1.0000
  C   C19       1.0  0.24712  0.67844  0.36137  1.0000
  C   C20       1.0  0.75289  0.82157  0.86138  1.0000
  C   C21       1.0  0.76920  0.25424  0.72287  1.0000
  C   C22       1.0  0.23080  0.24576  0.22287  1.0000
  C   C23       1.0  0.23080  0.74576  0.27713  1.0000
  C   C24       1.0  0.76920  0.75424  0.77713  1.0000
  C   C25       1.0  0.00301  0.26797  0.75207  1.0000
  C   C26       1.0  0.99699  0.23203  0.25207  1.0000
  C   C27       1.0  0.99699  0.73203  0.24793  1.0000
  C   C28       1.0  0.00300  0.76797  0.74793  1.0000
  C   C29       1.0  0.13657  0.21550  0.68858  1.0000
  C   C30       1.0  0.86343  0.28449  0.18858  1.0000
  C   C31       1.0  0.86343  0.78450  0.31142  1.0000
  C   C32       1.0  0.13656  0.71550  0.81142  1.0000
  N   N1        1.0  0.75018  0.26281  0.56033  1.0000
  N   N2        1.0  0.24982  0.23718  0.06033  1.0000
  N   N3        1.0  0.24983  0.73719  0.43967  1.0000
  N   N4        1.0  0.75018  0.76282  0.93967  1.0000
  Cl  Cl1       1.0  0.59439  0.02915  0.38022  1.0000
  Cl  Cl2       1.0  0.40562  0.47085  0.88021  1.0000
  Cl  Cl3       1.0  0.40562  0.97085  0.61979  1.0000
  Cl  Cl4       1.0  0.59438  0.52915  0.11979  1.0000
  Cl  Cl5       1.0  0.84337  0.84625  0.53977  1.0000
  Cl  Cl6       1.0  0.15664  0.65375  0.03977  1.0000
  Cl  Cl7       1.0  0.15664  0.15375  0.46023  1.0000
  Cl  Cl8       1.0  0.84337  0.34625  0.96023  1.0000
  O   O1        1.0  0.02626  0.08819  0.67090  1.0000
  O   O2        1.0  0.97374  0.41181  0.17090  1.0000
  O   O3        1.0  0.97374  0.91181  0.32910  1.0000
  O   O4        1.0  0.02626  0.58819  0.82910  1.0000
