data_image0
_chemical_formula_structural       U3H36C28N2O20
_chemical_formula_sum              "U3 H36 C28 N2 O20"
_cell_length_a       8.91404
_cell_length_b       9.48112
_cell_length_c       11.9932
_cell_angle_alpha    84.348
_cell_angle_beta     73.9288
_cell_angle_gamma    68.0298

_space_group_name_H-M_alt    "P 1"
_space_group_IT_number       1

loop_
  _space_group_symop_operation_xyz
  'x, y, z'

loop_
  _atom_site_type_symbol
  _atom_site_label
  _atom_site_symmetry_multiplicity
  _atom_site_fract_x
  _atom_site_fract_y
  _atom_site_fract_z
  _atom_site_occupancy
  U   U1        1.0  0.50000  1.00000  0.50000  1.0000
  U   U2        1.0  0.41561  0.29200  0.17915  1.0000
  U   U3        1.0  0.58439  0.70800  0.82085  1.0000
  H   H1        1.0  0.24794  0.05181  0.17376  1.0000
  H   H2        1.0  0.75206  0.94819  0.82624  1.0000
  H   H3        1.0  0.01700  0.93657  0.37010  1.0000
  H   H4        1.0  0.98299  0.06343  0.62990  1.0000
  H   H5        1.0  0.98626  0.12934  0.33964  1.0000
  H   H6        1.0  0.01374  0.87066  0.66036  1.0000
  H   H7        1.0  0.98432  0.08794  0.13479  1.0000
  H   H8        1.0  0.01568  0.91206  0.86521  1.0000
  H   H9        1.0  0.99726  0.77058  0.22368  1.0000
  H   H10       1.0  0.00274  0.22942  0.77632  1.0000
  H   H11       1.0  0.96138  0.84852  0.08820  1.0000
  H   H12       1.0  0.03862  0.15148  0.91180  1.0000
  H   H13       1.0  0.23660  0.87944  0.03039  1.0000
  H   H14       1.0  0.76340  0.12056  0.96961  1.0000
  H   H15       1.0  0.43829  0.78330  0.14929  1.0000
  H   H16       1.0  0.56171  0.21670  0.85071  1.0000
  H   H17       1.0  0.29326  0.72720  0.26109  1.0000
  H   H18       1.0  0.70674  0.27280  0.73891  1.0000
  H   H19       1.0  0.92716  0.37121  0.13421  1.0000
  H   H20       1.0  0.07284  0.62879  0.86578  1.0000
  H   H21       1.0  0.97720  0.53586  0.12844  1.0000
  H   H22       1.0  0.02280  0.46414  0.87156  1.0000
  H   H23       1.0  0.70185  0.68179  0.24383  1.0000
  H   H24       1.0  0.29815  0.31821  0.75617  1.0000
  H   H25       1.0  0.64041  0.54634  0.19352  1.0000
  H   H26       1.0  0.35959  0.45366  0.80648  1.0000
  H   H27       1.0  0.61114  0.58817  0.42987  1.0000
  H   H28       1.0  0.38887  0.41182  0.57013  1.0000
  H   H29       1.0  0.63468  0.41066  0.37406  1.0000
  H   H30       1.0  0.36532  0.58934  0.62594  1.0000
  H   H31       1.0  0.01620  0.32080  0.49180  1.0000
  H   H32       1.0  0.98380  0.67920  0.50820  1.0000
  H   H33       1.0  0.81955  0.29260  0.52901  1.0000
  H   H34       1.0  0.18045  0.70740  0.47099  1.0000
  H   H35       1.0  0.82478  0.47091  0.55973  1.0000
  H   H36       1.0  0.17522  0.52909  0.44027  1.0000
  C   C1        1.0  0.22870  0.97195  0.24434  1.0000
  C   C2        1.0  0.77130  0.02805  0.75566  1.0000
  C   C3        1.0  0.03988  0.01583  0.30000  1.0000
  C   C4        1.0  0.96012  0.98417  0.70000  1.0000
  C   C5        1.0  0.95515  0.01172  0.20634  1.0000
  C   C6        1.0  0.04485  0.98828  0.79366  1.0000
  C   C7        1.0  0.02418  0.85031  0.15491  1.0000
  C   C8        1.0  0.97582  0.14969  0.84509  1.0000
  C   C9        1.0  0.21376  0.80234  0.10218  1.0000
  C   C10       1.0  0.78624  0.19766  0.89782  1.0000
  C   C11       1.0  0.30456  0.81095  0.19209  1.0000
  C   C12       1.0  0.69544  0.18905  0.80791  1.0000
  C   C13       1.0  0.32022  0.98279  0.32960  1.0000
  C   C14       1.0  0.67978  0.01721  0.67040  1.0000
  C   C15       1.0  0.76556  0.06776  0.24714  1.0000
  C   C16       1.0  0.23444  0.93224  0.75286  1.0000
  C   C17       1.0  0.29146  0.64221  0.05265  1.0000
  C   C18       1.0  0.70853  0.35779  0.94735  1.0000
  C   C19       1.0  0.98067  0.41035  0.28770  1.0000
  C   C20       1.0  0.01933  0.58965  0.71230  1.0000
  C   C21       1.0  0.90844  0.46995  0.18521  1.0000
  C   C22       1.0  0.09156  0.53005  0.81479  1.0000
  C   C23       1.0  0.72270  0.56035  0.24086  1.0000
  C   C24       1.0  0.27730  0.43965  0.75914  1.0000
  C   C25       1.0  0.69011  0.49841  0.36517  1.0000
  C   C26       1.0  0.30989  0.50158  0.63483  1.0000
  C   C27       1.0  0.88178  0.37515  0.49829  1.0000
  C   C28       1.0  0.11822  0.62485  0.50171  1.0000
  N   N1        1.0  0.85810  0.42955  0.38474  1.0000
  N   N2        1.0  0.14190  0.57045  0.61526  1.0000
  O   O1        1.0  0.34595  0.18700  0.54361  1.0000
  O   O2        1.0  0.65405  0.81300  0.45639  1.0000
  O   O3        1.0  0.44026  0.38310  0.29490  1.0000
  O   O4        1.0  0.55974  0.61691  0.70510  1.0000
  O   O5        1.0  0.39342  0.20037  0.06234  1.0000
  O   O6        1.0  0.60659  0.79963  0.93766  1.0000
  O   O7        1.0  0.40244  0.07401  0.31087  1.0000
  O   O8        1.0  0.59756  0.92599  0.68913  1.0000
  O   O9        1.0  0.32145  0.90280  0.42042  1.0000
  O   O10       1.0  0.67856  0.09719  0.57958  1.0000
  O   O11       1.0  0.69496  0.07554  0.35489  1.0000
  O   O12       1.0  0.30503  0.92446  0.64511  1.0000
  O   O13       1.0  0.68666  0.10489  0.16831  1.0000
  O   O14       1.0  0.31335  0.89511  0.83169  1.0000
  O   O15       1.0  0.38716  0.61746  0.95004  1.0000
  O   O16       1.0  0.61284  0.38254  0.04996  1.0000
  O   O17       1.0  0.25966  0.53659  0.11728  1.0000
  O   O18       1.0  0.74034  0.46340  0.88272  1.0000
  O   O19       1.0  0.13469  0.34583  0.28447  1.0000
  O   O20       1.0  0.86531  0.65418  0.71553  1.0000
