data_image0
_chemical_formula_structural       Zn2H24C36N4O10
_chemical_formula_sum              "Zn2 H24 C36 N4 O10"
_cell_length_a       8.53007
_cell_length_b       10.0437
_cell_length_c       10.679
_cell_angle_alpha    84.5878
_cell_angle_beta     66.7328
_cell_angle_gamma    68.6291

_space_group_name_H-M_alt    "P 1"
_space_group_IT_number       1

loop_
  _space_group_symop_operation_xyz
  'x, y, z'

loop_
  _atom_site_type_symbol
  _atom_site_label
  _atom_site_symmetry_multiplicity
  _atom_site_fract_x
  _atom_site_fract_y
  _atom_site_fract_z
  _atom_site_occupancy
  Zn  Zn1       1.0  0.14313  0.98923  0.79257  1.0000
  Zn  Zn2       1.0  0.85687  0.01077  0.20743  1.0000
  H   H1        1.0  0.28762  0.22874  0.62371  1.0000
  H   H2        1.0  0.71237  0.77126  0.37629  1.0000
  H   H3        1.0  0.35575  0.30895  0.38283  1.0000
  H   H4        1.0  0.64424  0.69105  0.61717  1.0000
  H   H5        1.0  0.31120  0.17668  0.21896  1.0000
  H   H6        1.0  0.68880  0.82332  0.78104  1.0000
  H   H7        1.0  0.22563  0.96203  0.29402  1.0000
  H   H8        1.0  0.77437  0.03797  0.70598  1.0000
  H   H9        1.0  0.22563  0.75997  0.34915  1.0000
  H   H10       1.0  0.77438  0.24003  0.65085  1.0000
  H   H11       1.0  0.17614  0.53887  0.44355  1.0000
  H   H12       1.0  0.82387  0.46112  0.55645  1.0000
  H   H13       1.0  0.12949  0.49320  0.69279  1.0000
  H   H14       1.0  0.87051  0.50680  0.30721  1.0000
  H   H15       1.0  0.13011  0.68099  0.83183  1.0000
  H   H16       1.0  0.86988  0.31901  0.16817  1.0000
  H   H17       1.0  0.44821  0.60628  0.86637  1.0000
  H   H18       1.0  0.55179  0.39372  0.13363  1.0000
  H   H19       1.0  0.90343  0.38289  0.82228  1.0000
  H   H20       1.0  0.09657  0.61711  0.17772  1.0000
  H   H21       1.0  0.92437  0.54083  0.94900  1.0000
  H   H22       1.0  0.07563  0.45916  0.05100  1.0000
  H   H23       1.0  0.44663  0.91873  0.11798  1.0000
  H   H24       1.0  0.55337  0.08127  0.88202  1.0000
  C   C1        1.0  0.28199  0.17049  0.54549  1.0000
  C   C2        1.0  0.71801  0.82952  0.45451  1.0000
  C   C3        1.0  0.31507  0.21609  0.41318  1.0000
  C   C4        1.0  0.68493  0.78391  0.58682  1.0000
  C   C5        1.0  0.29255  0.14149  0.32173  1.0000
  C   C6        1.0  0.70744  0.85851  0.67827  1.0000
  C   C7        1.0  0.24723  0.02019  0.36311  1.0000
  C   C8        1.0  0.75276  0.97981  0.63689  1.0000
  C   C9        1.0  0.22880  0.97529  0.49430  1.0000
  C   C10       1.0  0.77120  0.02472  0.50570  1.0000
  C   C11       1.0  0.19975  0.83966  0.54172  1.0000
  C   C12       1.0  0.80024  0.16035  0.45828  1.0000
  C   C13       1.0  0.20336  0.74047  0.45587  1.0000
  C   C14       1.0  0.79664  0.25954  0.54413  1.0000
  C   C15       1.0  0.17694  0.61480  0.50958  1.0000
  C   C16       1.0  0.82307  0.38520  0.49042  1.0000
  C   C17       1.0  0.15062  0.58973  0.64589  1.0000
  C   C18       1.0  0.84938  0.41027  0.35410  1.0000
  C   C19       1.0  0.15009  0.69315  0.72469  1.0000
  C   C20       1.0  0.84991  0.30685  0.27531  1.0000
  C   C21       1.0  0.22588  0.84746  0.03032  1.0000
  C   C22       1.0  0.77412  0.15254  0.96968  1.0000
  C   C23       1.0  0.42468  0.76878  0.99884  1.0000
  C   C24       1.0  0.57532  0.23122  0.00116  1.0000
  C   C25       1.0  0.51819  0.64356  0.91356  1.0000
  C   C26       1.0  0.48181  0.35644  0.08644  1.0000
  C   C27       1.0  0.70003  0.56236  0.89378  1.0000
  C   C28       1.0  0.29997  0.43764  0.10622  1.0000
  C   C29       1.0  0.78558  0.60700  0.96128  1.0000
  C   C30       1.0  0.21442  0.39299  0.03873  1.0000
  C   C31       1.0  0.69422  0.73544  0.04164  1.0000
  C   C32       1.0  0.30578  0.26456  0.95836  1.0000
  C   C33       1.0  0.51466  0.81748  0.05861  1.0000
  C   C34       1.0  0.48534  0.18252  0.94139  1.0000
  C   C35       1.0  0.78557  0.78218  0.11515  1.0000
  C   C36       1.0  0.21443  0.21782  0.88485  1.0000
  N   N1        1.0  0.23936  0.05317  0.58515  1.0000
  N   N2        1.0  0.76064  0.94684  0.41485  1.0000
  N   N3        1.0  0.17364  0.81482  0.67375  1.0000
  N   N4        1.0  0.82636  0.18518  0.32625  1.0000
  O   O1        1.0  0.16180  0.84287  0.94276  1.0000
  O   O2        1.0  0.83820  0.15713  0.05724  1.0000
  O   O3        1.0  0.12891  0.91194  0.14925  1.0000
  O   O4        1.0  0.87109  0.08806  0.85074  1.0000
  O   O5        1.0  0.78747  0.44104  0.81008  1.0000
  O   O6        1.0  0.21253  0.55896  0.18991  1.0000
  O   O7        1.0  0.90722  0.68685  0.14651  1.0000
  O   O8        1.0  0.09279  0.31314  0.85349  1.0000
  O   O9        1.0  0.72646  0.91718  0.14488  1.0000
  O   O10       1.0  0.27354  0.08281  0.85513  1.0000
