data_image0
_chemical_formula_structural       Cd2H56C56N20O12
_chemical_formula_sum              "Cd2 H56 C56 N20 O12"
_cell_length_a       8.42233
_cell_length_b       10.37
_cell_length_c       17.4849
_cell_angle_alpha    90
_cell_angle_beta     90
_cell_angle_gamma    94.7534

_space_group_name_H-M_alt    "P 1"
_space_group_IT_number       1

loop_
  _space_group_symop_operation_xyz
  'x, y, z'

loop_
  _atom_site_type_symbol
  _atom_site_label
  _atom_site_symmetry_multiplicity
  _atom_site_fract_x
  _atom_site_fract_y
  _atom_site_fract_z
  _atom_site_occupancy
  Cd  Cd1       1.0  0.00000  0.00000  0.50000  1.0000
  Cd  Cd2       1.0  0.50000  0.50000  0.00000  1.0000
  H   H1        1.0  0.71473  0.12705  0.57833  1.0000
  H   H2        1.0  0.21472  0.62706  0.92167  1.0000
  H   H3        1.0  0.28527  0.87295  0.42167  1.0000
  H   H4        1.0  0.78528  0.37294  0.07833  1.0000
  H   H5        1.0  0.65478  0.32183  0.65392  1.0000
  H   H6        1.0  0.15478  0.82184  0.84608  1.0000
  H   H7        1.0  0.34522  0.67817  0.34609  1.0000
  H   H8        1.0  0.84522  0.17816  0.15392  1.0000
  H   H9        1.0  0.88011  0.47510  0.69831  1.0000
  H   H10       1.0  0.38011  0.97510  0.80169  1.0000
  H   H11       1.0  0.11989  0.52491  0.30169  1.0000
  H   H12       1.0  0.61989  0.02490  0.19831  1.0000
  H   H13       1.0  0.20145  0.23653  0.58425  1.0000
  H   H14       1.0  0.70144  0.73653  0.91575  1.0000
  H   H15       1.0  0.79855  0.76347  0.41576  1.0000
  H   H16       1.0  0.29856  0.26347  0.08425  1.0000
  H   H17       1.0  0.29786  0.56357  0.76014  1.0000
  H   H18       1.0  0.79786  0.06357  0.73986  1.0000
  H   H19       1.0  0.70214  0.43643  0.23986  1.0000
  H   H20       1.0  0.20214  0.93643  0.26014  1.0000
  H   H21       1.0  0.08635  0.52686  0.76849  1.0000
  H   H22       1.0  0.58635  0.02686  0.73151  1.0000
  H   H23       1.0  0.91365  0.47314  0.23151  1.0000
  H   H24       1.0  0.41364  0.97314  0.26849  1.0000
  H   H25       1.0  0.16781  0.65114  0.70594  1.0000
  H   H26       1.0  0.66781  0.15113  0.79406  1.0000
  H   H27       1.0  0.83219  0.34887  0.29406  1.0000
  H   H28       1.0  0.33219  0.84887  0.20594  1.0000
  H   H29       1.0  0.32119  0.58778  0.51938  1.0000
  H   H30       1.0  0.82119  0.08778  0.98062  1.0000
  H   H31       1.0  0.67881  0.41222  0.48062  1.0000
  H   H32       1.0  0.17881  0.91222  0.01938  1.0000
  H   H33       1.0  0.49740  0.67494  0.48344  1.0000
  H   H34       1.0  0.99740  0.17494  0.01656  1.0000
  H   H35       1.0  0.50260  0.32506  0.51656  1.0000
  H   H36       1.0  0.00260  0.82507  0.98344  1.0000
  H   H37       1.0  0.36405  0.75487  0.54147  1.0000
  H   H38       1.0  0.86405  0.25487  0.95853  1.0000
  H   H39       1.0  0.63595  0.24513  0.45853  1.0000
  H   H40       1.0  0.13595  0.74513  0.04147  1.0000
  H   H41       1.0  0.67316  0.81972  0.52266  1.0000
  H   H42       1.0  0.17316  0.31972  0.97734  1.0000
  H   H43       1.0  0.32684  0.18028  0.47734  1.0000
  H   H44       1.0  0.82684  0.68029  0.02266  1.0000
  H   H45       1.0  0.66715  0.61482  0.73771  1.0000
  H   H46       1.0  0.16716  0.11482  0.76229  1.0000
  H   H47       1.0  0.33284  0.38517  0.26229  1.0000
  H   H48       1.0  0.83284  0.88517  0.23771  1.0000
  H   H49       1.0  0.92205  0.74255  0.77093  1.0000
  H   H50       1.0  0.42206  0.24256  0.72908  1.0000
  H   H51       1.0  0.07795  0.25744  0.22907  1.0000
  H   H52       1.0  0.57794  0.75744  0.27093  1.0000
  H   H53       1.0  0.05042  0.89583  0.67267  1.0000
  H   H54       1.0  0.55042  0.39583  0.82733  1.0000
  H   H55       1.0  0.94958  0.10417  0.32733  1.0000
  H   H56       1.0  0.44958  0.60417  0.17267  1.0000
  C   C1        1.0  0.80980  0.19704  0.59779  1.0000
  C   C2        1.0  0.30979  0.69704  0.90221  1.0000
  C   C3        1.0  0.19020  0.80296  0.40221  1.0000
  C   C4        1.0  0.69021  0.30296  0.09779  1.0000
  C   C5        1.0  0.77749  0.30511  0.64022  1.0000
  C   C6        1.0  0.27748  0.80512  0.85978  1.0000
  C   C7        1.0  0.22251  0.69489  0.35978  1.0000
  C   C8        1.0  0.72252  0.19488  0.14023  1.0000
  C   C9        1.0  0.90328  0.39141  0.66394  1.0000
  C   C10       1.0  0.40328  0.89141  0.83606  1.0000
  C   C11       1.0  0.09672  0.60859  0.33606  1.0000
  C   C12       1.0  0.59672  0.10859  0.16394  1.0000
  C   C13       1.0  0.05974  0.36872  0.64395  1.0000
  C   C14       1.0  0.55974  0.86872  0.85605  1.0000
  C   C15       1.0  0.94026  0.63128  0.35605  1.0000
  C   C16       1.0  0.44026  0.13128  0.14395  1.0000
  C   C17       1.0  0.08151  0.25786  0.60055  1.0000
  C   C18       1.0  0.58151  0.75786  0.89945  1.0000
  C   C19       1.0  0.91849  0.74214  0.39945  1.0000
  C   C20       1.0  0.41849  0.24214  0.10055  1.0000
  C   C21       1.0  0.19701  0.45845  0.66574  1.0000
  C   C22       1.0  0.69701  0.95845  0.83426  1.0000
  C   C23       1.0  0.80299  0.54155  0.33426  1.0000
  C   C24       1.0  0.30299  0.04155  0.16574  1.0000
  C   C25       1.0  0.18426  0.55434  0.72894  1.0000
  C   C26       1.0  0.68426  0.05434  0.77106  1.0000
  C   C27       1.0  0.81575  0.44566  0.27106  1.0000
  C   C28       1.0  0.31574  0.94566  0.22894  1.0000
  C   C29       1.0  0.41692  0.66233  0.53279  1.0000
  C   C30       1.0  0.91692  0.16233  0.96722  1.0000
  C   C31       1.0  0.58308  0.33767  0.46721  1.0000
  C   C32       1.0  0.08308  0.83767  0.03279  1.0000
  C   C33       1.0  0.50437  0.62568  0.60296  1.0000
  C   C34       1.0  0.00437  0.12568  0.89704  1.0000
  C   C35       1.0  0.49563  0.37432  0.39704  1.0000
  C   C36       1.0  0.99563  0.87432  0.10296  1.0000
  C   C37       1.0  0.72656  0.79589  0.57717  1.0000
  C   C38       1.0  0.22656  0.29589  0.92283  1.0000
  C   C39       1.0  0.27344  0.20411  0.42283  1.0000
  C   C40       1.0  0.77343  0.70411  0.07717  1.0000
  C   C41       1.0  0.65224  0.70197  0.62602  1.0000
  C   C42       1.0  0.15224  0.20197  0.87398  1.0000
  C   C43       1.0  0.34776  0.29803  0.37398  1.0000
  C   C44       1.0  0.84776  0.79803  0.12602  1.0000
  C   C45       1.0  0.72379  0.68449  0.69745  1.0000
  C   C46       1.0  0.22380  0.18449  0.80255  1.0000
  C   C47       1.0  0.27621  0.31551  0.30254  1.0000
  C   C48       1.0  0.77621  0.81551  0.19745  1.0000
  C   C49       1.0  0.86582  0.75548  0.71566  1.0000
  C   C50       1.0  0.36583  0.25548  0.78435  1.0000
  C   C51       1.0  0.13418  0.24451  0.28434  1.0000
  C   C52       1.0  0.63417  0.74452  0.21565  1.0000
  C   C53       1.0  0.93558  0.84216  0.66191  1.0000
  C   C54       1.0  0.43558  0.34216  0.83809  1.0000
  C   C55       1.0  0.06443  0.15784  0.33809  1.0000
  C   C56       1.0  0.56442  0.65784  0.16191  1.0000
  N   N1        1.0  0.96015  0.17441  0.57829  1.0000
  N   N2        1.0  0.46014  0.67441  0.92171  1.0000
  N   N3        1.0  0.03986  0.82559  0.42172  1.0000
  N   N4        1.0  0.53986  0.32559  0.07829  1.0000
  N   N5        1.0  0.32670  0.45212  0.62633  1.0000
  N   N6        1.0  0.82670  0.95212  0.87367  1.0000
  N   N7        1.0  0.67330  0.54788  0.37367  1.0000
  N   N8        1.0  0.17329  0.04788  0.12633  1.0000
  N   N9        1.0  0.45627  0.52908  0.64668  1.0000
  N   N10       1.0  0.95627  0.02908  0.85332  1.0000
  N   N11       1.0  0.54373  0.47092  0.35332  1.0000
  N   N12       1.0  0.04373  0.97092  0.14668  1.0000
  N   N13       1.0  0.86613  0.86246  0.59410  1.0000
  N   N14       1.0  0.36614  0.36246  0.90591  1.0000
  N   N15       1.0  0.13386  0.13754  0.40590  1.0000
  N   N16       1.0  0.63386  0.63754  0.09409  1.0000
  N   N17       1.0  0.66230  0.98722  0.39117  1.0000
  N   N18       1.0  0.16230  0.48722  0.10883  1.0000
  N   N19       1.0  0.33771  0.01278  0.60883  1.0000
  N   N20       1.0  0.83770  0.51278  0.89117  1.0000
  O   O1        1.0  0.73853  0.03200  0.45086  1.0000
  O   O2        1.0  0.23853  0.53200  0.04914  1.0000
  O   O3        1.0  0.26147  0.96800  0.54914  1.0000
  O   O4        1.0  0.76147  0.46800  0.95086  1.0000
  O   O5        1.0  0.57685  0.88181  0.39599  1.0000
  O   O6        1.0  0.07685  0.38182  0.10401  1.0000
  O   O7        1.0  0.42315  0.11818  0.60401  1.0000
  O   O8        1.0  0.92315  0.61818  0.89599  1.0000
  O   O9        1.0  0.67423  0.05057  0.32976  1.0000
  O   O10       1.0  0.17423  0.55057  0.17025  1.0000
  O   O11       1.0  0.32577  0.94943  0.67024  1.0000
  O   O12       1.0  0.82577  0.44943  0.82976  1.0000
