data_image0
_chemical_formula_structural       Ag4H32C12N28
_chemical_formula_sum              "Ag4 H32 C12 N28"
_cell_length_a       4.49476
_cell_length_b       11.1455
_cell_length_c       14.3558
_cell_angle_alpha    90
_cell_angle_beta     93.6438
_cell_angle_gamma    90

_space_group_name_H-M_alt    "P 1"
_space_group_IT_number       1

loop_
  _space_group_symop_operation_xyz
  'x, y, z'

loop_
  _atom_site_type_symbol
  _atom_site_label
  _atom_site_symmetry_multiplicity
  _atom_site_fract_x
  _atom_site_fract_y
  _atom_site_fract_z
  _atom_site_occupancy
  Ag  Ag1       1.0  0.50304  0.40961  0.31584  1.0000
  Ag  Ag2       1.0  0.49696  0.90962  0.18416  1.0000
  Ag  Ag3       1.0  0.49696  0.59038  0.68416  1.0000
  Ag  Ag4       1.0  0.50304  0.09038  0.81584  1.0000
  H   H1        1.0  0.11574  0.53184  0.05817  1.0000
  H   H2        1.0  0.88426  0.03183  0.44183  1.0000
  H   H3        1.0  0.88426  0.46817  0.94183  1.0000
  H   H4        1.0  0.11574  0.96816  0.55817  1.0000
  H   H5        1.0  0.45086  0.45044  0.08445  1.0000
  H   H6        1.0  0.54914  0.95044  0.41555  1.0000
  H   H7        1.0  0.54914  0.54957  0.91555  1.0000
  H   H8        1.0  0.45086  0.04956  0.58445  1.0000
  H   H9        1.0  0.63339  0.61813  0.19031  1.0000
  H   H10       1.0  0.36661  0.11813  0.30969  1.0000
  H   H11       1.0  0.36661  0.38187  0.80969  1.0000
  H   H12       1.0  0.63339  0.88187  0.69031  1.0000
  H   H13       1.0  0.56746  0.66218  0.07213  1.0000
  H   H14       1.0  0.43254  0.16218  0.42787  1.0000
  H   H15       1.0  0.43254  0.33782  0.92787  1.0000
  H   H16       1.0  0.56746  0.83782  0.57213  1.0000
  H   H17       1.0  0.05295  0.38667  0.17490  1.0000
  H   H18       1.0  0.94705  0.88667  0.32510  1.0000
  H   H19       1.0  0.94705  0.61333  0.82510  1.0000
  H   H20       1.0  0.05295  0.11333  0.67490  1.0000
  H   H21       1.0  0.16682  0.70786  0.22442  1.0000
  H   H22       1.0  0.83318  0.20786  0.27558  1.0000
  H   H23       1.0  0.83318  0.29214  0.77558  1.0000
  H   H24       1.0  0.16682  0.79214  0.72442  1.0000
  H   H25       1.0  0.10217  0.74759  0.11220  1.0000
  H   H26       1.0  0.89783  0.24759  0.38780  1.0000
  H   H27       1.0  0.89783  0.25241  0.88780  1.0000
  H   H28       1.0  0.10217  0.75241  0.61220  1.0000
  H   H29       1.0  0.03201  0.51860  0.22581  1.0000
  H   H30       1.0  0.96799  0.01860  0.27419  1.0000
  H   H31       1.0  0.96799  0.48140  0.77419  1.0000
  H   H32       1.0  0.03201  0.98140  0.72581  1.0000
  C   C1        1.0  0.74830  0.60560  0.46070  1.0000
  C   C2        1.0  0.25170  0.10560  0.03930  1.0000
  C   C3        1.0  0.25170  0.39440  0.53930  1.0000
  C   C4        1.0  0.74830  0.89440  0.96070  1.0000
  C   C5        1.0  0.29550  0.51531  0.11272  1.0000
  C   C6        1.0  0.70450  0.01531  0.38728  1.0000
  C   C7        1.0  0.70450  0.48469  0.88728  1.0000
  C   C8        1.0  0.29550  0.98469  0.61272  1.0000
  C   C9        1.0  0.45828  0.63271  0.13453  1.0000
  C   C10       1.0  0.54172  0.13271  0.36547  1.0000
  C   C11       1.0  0.54172  0.36729  0.86547  1.0000
  C   C12       1.0  0.45828  0.86729  0.63453  1.0000
  N   N1        1.0  0.17538  0.46053  0.19630  1.0000
  N   N2        1.0  0.82462  0.96052  0.30370  1.0000
  N   N3        1.0  0.82462  0.53948  0.80370  1.0000
  N   N4        1.0  0.17538  0.03947  0.69630  1.0000
  N   N5        1.0  0.26610  0.73081  0.16419  1.0000
  N   N6        1.0  0.73390  0.23081  0.33581  1.0000
  N   N7        1.0  0.73390  0.26919  0.83581  1.0000
  N   N8        1.0  0.26610  0.76919  0.66419  1.0000
  N   N9        1.0  0.78791  0.57868  0.37046  1.0000
  N   N10       1.0  0.21209  0.07868  0.12954  1.0000
  N   N11       1.0  0.21209  0.42132  0.62954  1.0000
  N   N12       1.0  0.78791  0.92132  0.87046  1.0000
  N   N13       1.0  0.97512  0.66193  0.34250  1.0000
  N   N14       1.0  0.02488  0.16193  0.15750  1.0000
  N   N15       1.0  0.02488  0.33807  0.65750  1.0000
  N   N16       1.0  0.97512  0.83807  0.84250  1.0000
  N   N17       1.0  0.04672  0.73752  0.41327  1.0000
  N   N18       1.0  0.95328  0.23752  0.08673  1.0000
  N   N19       1.0  0.95328  0.26248  0.58673  1.0000
  N   N20       1.0  0.04672  0.76248  0.91327  1.0000
  N   N21       1.0  0.90751  0.70354  0.48828  1.0000
  N   N22       1.0  0.09249  0.20354  0.01172  1.0000
  N   N23       1.0  0.09249  0.29646  0.51172  1.0000
  N   N24       1.0  0.90751  0.79646  0.98828  1.0000
  N   N25       1.0  0.57852  0.54190  0.52017  1.0000
  N   N26       1.0  0.42148  0.04190  0.97983  1.0000
  N   N27       1.0  0.42148  0.45810  0.47983  1.0000
  N   N28       1.0  0.57852  0.95810  0.02017  1.0000
