data_image0
_chemical_formula_structural       Ag4H8C4N20
_chemical_formula_sum              "Ag4 H8 C4 N20"
_cell_length_a       3.37238
_cell_length_b       15.9027
_cell_length_c       10.3536
_cell_angle_alpha    89.9986
_cell_angle_beta     89.9992
_cell_angle_gamma    134.153

_space_group_name_H-M_alt    "P 1"
_space_group_IT_number       1

loop_
  _space_group_symop_operation_xyz
  'x, y, z'

loop_
  _atom_site_type_symbol
  _atom_site_label
  _atom_site_symmetry_multiplicity
  _atom_site_fract_x
  _atom_site_fract_y
  _atom_site_fract_z
  _atom_site_occupancy
  Ag  Ag1       1.0  0.30247  0.89633  0.15283  1.0000
  Ag  Ag2       1.0  0.69751  0.60367  0.65283  1.0000
  Ag  Ag3       1.0  0.69752  0.10367  0.84717  1.0000
  Ag  Ag4       1.0  0.30247  0.39633  0.34717  1.0000
  H   H1        1.0  0.88127  0.16012  0.47302  1.0000
  H   H2        1.0  0.11869  0.33985  0.97304  1.0000
  H   H3        1.0  0.11876  0.83989  0.52698  1.0000
  H   H4        1.0  0.88126  0.66013  0.02697  1.0000
  H   H5        1.0  0.78631  0.04661  0.41170  1.0000
  H   H6        1.0  0.21374  0.45342  0.91170  1.0000
  H   H7        1.0  0.21368  0.95339  0.58830  1.0000
  H   H8        1.0  0.78631  0.54659  0.08830  1.0000
  C   C1        1.0  0.78430  0.13719  0.27676  1.0000
  C   C2        1.0  0.21561  0.36280  0.77676  1.0000
  C   C3        1.0  0.21579  0.86282  0.72325  1.0000
  C   C4        1.0  0.78424  0.63719  0.22323  1.0000
  N   N1        1.0  0.64521  0.07228  0.17047  1.0000
  N   N2        1.0  0.35485  0.42772  0.67046  1.0000
  N   N3        1.0  0.35478  0.92773  0.82952  1.0000
  N   N4        1.0  0.64519  0.57228  0.32953  1.0000
  N   N5        1.0  0.75488  0.13967  0.06905  1.0000
  N   N6        1.0  0.24516  0.36034  0.56903  1.0000
  N   N7        1.0  0.24513  0.86033  0.93095  1.0000
  N   N8        1.0  0.75481  0.63966  0.43097  1.0000
  N   N9        1.0  0.94398  0.23920  0.11033  1.0000
  N   N10       1.0  0.05608  0.26080  0.61030  1.0000
  N   N11       1.0  0.05604  0.76080  0.88967  1.0000
  N   N12       1.0  0.94390  0.73919  0.38968  1.0000
  N   N13       1.0  0.97078  0.24148  0.24114  1.0000
  N   N14       1.0  0.02929  0.25852  0.74112  1.0000
  N   N15       1.0  0.02922  0.75852  0.75887  1.0000
  N   N16       1.0  0.97073  0.74148  0.25887  1.0000
  N   N17       1.0  0.72009  0.09959  0.39980  1.0000
  N   N18       1.0  0.28004  0.40043  0.89983  1.0000
  N   N19       1.0  0.27991  0.90040  0.60021  1.0000
  N   N20       1.0  0.71999  0.59957  0.10019  1.0000
