data_image0
_chemical_formula_structural       Zn4H24C36N16O8
_chemical_formula_sum              "Zn4 H24 C36 N16 O8"
_cell_length_a       4.82159
_cell_length_b       10.9856
_cell_length_c       18.5163
_cell_angle_alpha    90
_cell_angle_beta     90
_cell_angle_gamma    90

_space_group_name_H-M_alt    "P 1"
_space_group_IT_number       1

loop_
  _space_group_symop_operation_xyz
  'x, y, z'

loop_
  _atom_site_type_symbol
  _atom_site_label
  _atom_site_symmetry_multiplicity
  _atom_site_fract_x
  _atom_site_fract_y
  _atom_site_fract_z
  _atom_site_occupancy
  Zn  Zn1       1.0  0.00647  0.00403  0.17838  1.0000
  Zn  Zn2       1.0  0.99353  0.50403  0.82162  1.0000
  Zn  Zn3       1.0  0.00647  0.50403  0.32162  1.0000
  Zn  Zn4       1.0  0.99353  0.00403  0.67838  1.0000
  H   H1        1.0  0.41421  0.45549  0.21476  1.0000
  H   H2        1.0  0.58579  0.95549  0.78524  1.0000
  H   H3        1.0  0.41421  0.95549  0.28524  1.0000
  H   H4        1.0  0.58579  0.45549  0.71476  1.0000
  H   H5        1.0  0.65941  0.52383  0.10684  1.0000
  H   H6        1.0  0.34059  0.02383  0.89316  1.0000
  H   H7        1.0  0.65940  0.02383  0.39316  1.0000
  H   H8        1.0  0.34059  0.52383  0.60684  1.0000
  H   H9        1.0  0.22823  0.25738  0.97793  1.0000
  H   H10       1.0  0.77177  0.75738  0.02207  1.0000
  H   H11       1.0  0.22823  0.75738  0.52207  1.0000
  H   H12       1.0  0.77177  0.25738  0.47793  1.0000
  H   H13       1.0  0.96472  0.19260  0.08571  1.0000
  H   H14       1.0  0.03528  0.69260  0.91429  1.0000
  H   H15       1.0  0.96472  0.69260  0.41429  1.0000
  H   H16       1.0  0.03528  0.19260  0.58571  1.0000
  H   H17       1.0  0.75230  0.35463  0.94944  1.0000
  H   H18       1.0  0.24770  0.85463  0.05056  1.0000
  H   H19       1.0  0.75230  0.85463  0.55056  1.0000
  H   H20       1.0  0.24770  0.35463  0.44944  1.0000
  H   H21       1.0  0.78794  0.50044  0.98517  1.0000
  H   H22       1.0  0.21206  0.00044  0.01483  1.0000
  H   H23       1.0  0.78794  0.00044  0.51483  1.0000
  H   H24       1.0  0.21206  0.50044  0.48517  1.0000
  C   C1        1.0  0.02695  0.27289  0.22242  1.0000
  C   C2        1.0  0.97305  0.77289  0.77758  1.0000
  C   C3        1.0  0.02695  0.77289  0.27758  1.0000
  C   C4        1.0  0.97305  0.27289  0.72242  1.0000
  C   C5        1.0  0.17288  0.31751  0.15857  1.0000
  C   C6        1.0  0.82711  0.81751  0.84143  1.0000
  C   C7        1.0  0.17289  0.81751  0.34143  1.0000
  C   C8        1.0  0.82711  0.31751  0.65857  1.0000
  C   C9        1.0  0.36606  0.41267  0.16311  1.0000
  C   C10       1.0  0.63394  0.91267  0.83689  1.0000
  C   C11       1.0  0.36606  0.91267  0.33689  1.0000
  C   C12       1.0  0.63394  0.41267  0.66311  1.0000
  C   C13       1.0  0.50777  0.45079  0.10150  1.0000
  C   C14       1.0  0.49223  0.95079  0.89850  1.0000
  C   C15       1.0  0.50777  0.95079  0.39850  1.0000
  C   C16       1.0  0.49223  0.45079  0.60150  1.0000
  C   C17       1.0  0.46395  0.39468  0.03469  1.0000
  C   C18       1.0  0.53605  0.89468  0.96531  1.0000
  C   C19       1.0  0.46395  0.89468  0.46531  1.0000
  C   C20       1.0  0.53605  0.39468  0.53469  1.0000
  C   C21       1.0  0.26804  0.30055  0.03006  1.0000
  C   C22       1.0  0.73197  0.80055  0.96994  1.0000
  C   C23       1.0  0.26804  0.80055  0.46993  1.0000
  C   C24       1.0  0.73196  0.30055  0.53007  1.0000
  C   C25       1.0  0.12247  0.26313  0.09096  1.0000
  C   C26       1.0  0.87753  0.76313  0.90904  1.0000
  C   C27       1.0  0.12247  0.76313  0.40904  1.0000
  C   C28       1.0  0.87753  0.26313  0.59096  1.0000
  C   C29       1.0  0.63140  0.43238  0.97010  1.0000
  C   C30       1.0  0.36860  0.93238  0.02990  1.0000
  C   C31       1.0  0.63140  0.93238  0.52990  1.0000
  C   C32       1.0  0.36860  0.43238  0.47010  1.0000
  C   C33       1.0  0.46878  0.48147  0.90644  1.0000
  C   C34       1.0  0.53122  0.98147  0.09356  1.0000
  C   C35       1.0  0.46878  0.98147  0.59356  1.0000
  C   C36       1.0  0.53122  0.48147  0.40644  1.0000
  N   N1        1.0  0.81250  0.15162  0.29711  1.0000
  N   N2        1.0  0.18750  0.65162  0.70289  1.0000
  N   N3        1.0  0.81250  0.65162  0.20289  1.0000
  N   N4        1.0  0.18751  0.15162  0.79711  1.0000
  N   N5        1.0  0.81397  0.25912  0.32603  1.0000
  N   N6        1.0  0.18603  0.75912  0.67397  1.0000
  N   N7        1.0  0.81398  0.75912  0.17397  1.0000
  N   N8        1.0  0.18603  0.25912  0.82603  1.0000
  N   N9        1.0  0.94680  0.33749  0.28071  1.0000
  N   N10       1.0  0.05320  0.83749  0.71929  1.0000
  N   N11       1.0  0.94680  0.83749  0.21929  1.0000
  N   N12       1.0  0.05320  0.33749  0.78071  1.0000
  N   N13       1.0  0.94440  0.15674  0.23263  1.0000
  N   N14       1.0  0.05560  0.65674  0.76737  1.0000
  N   N15       1.0  0.94440  0.65674  0.26737  1.0000
  N   N16       1.0  0.05560  0.15674  0.73263  1.0000
  O   O1        1.0  0.20811  0.49610  0.91344  1.0000
  O   O2        1.0  0.79189  0.99610  0.08656  1.0000
  O   O3        1.0  0.20811  0.99610  0.58656  1.0000
  O   O4        1.0  0.79189  0.49610  0.41344  1.0000
  O   O5        1.0  0.59235  0.50602  0.84728  1.0000
  O   O6        1.0  0.40765  0.00602  0.15272  1.0000
  O   O7        1.0  0.59235  0.00602  0.65272  1.0000
  O   O8        1.0  0.40765  0.50602  0.34728  1.0000
