data_image0
_chemical_formula_structural       Zn4H24C36N16O8
_chemical_formula_sum              "Zn4 H24 C36 N16 O8"
_cell_length_a       4.81488
_cell_length_b       10.493
_cell_length_c       18.8302
_cell_angle_alpha    90
_cell_angle_beta     90
_cell_angle_gamma    90

_space_group_name_H-M_alt    "P 1"
_space_group_IT_number       1

loop_
  _space_group_symop_operation_xyz
  'x, y, z'

loop_
  _atom_site_type_symbol
  _atom_site_label
  _atom_site_symmetry_multiplicity
  _atom_site_fract_x
  _atom_site_fract_y
  _atom_site_fract_z
  _atom_site_occupancy
  Zn  Zn1       1.0  0.81219  0.60943  0.83096  1.0000
  Zn  Zn2       1.0  0.31219  0.39057  0.16904  1.0000
  Zn  Zn3       1.0  0.31219  0.89057  0.33096  1.0000
  Zn  Zn4       1.0  0.81219  0.10943  0.66904  1.0000
  H   H1        1.0  0.13532  0.83398  0.48126  1.0000
  H   H2        1.0  0.63532  0.16602  0.51874  1.0000
  H   H3        1.0  0.63532  0.66602  0.98126  1.0000
  H   H4        1.0  0.13532  0.33398  0.01874  1.0000
  H   H5        1.0  0.01269  0.69526  0.44072  1.0000
  H   H6        1.0  0.51269  0.30474  0.55928  1.0000
  H   H7        1.0  0.51269  0.80474  0.94072  1.0000
  H   H8        1.0  0.01269  0.19526  0.05928  1.0000
  H   H9        1.0  0.01701  0.88054  0.59832  1.0000
  H   H10       1.0  0.51701  0.11946  0.40168  1.0000
  H   H11       1.0  0.51701  0.61946  0.09832  1.0000
  H   H12       1.0  0.01701  0.38054  0.90168  1.0000
  H   H13       1.0  0.39556  0.65980  0.70937  1.0000
  H   H14       1.0  0.89556  0.34020  0.29063  1.0000
  H   H15       1.0  0.89556  0.84020  0.20937  1.0000
  H   H16       1.0  0.39556  0.15980  0.79063  1.0000
  H   H17       1.0  0.27450  0.55285  0.59740  1.0000
  H   H18       1.0  0.77450  0.44715  0.40260  1.0000
  H   H19       1.0  0.77450  0.94715  0.09740  1.0000
  H   H20       1.0  0.27450  0.05285  0.90260  1.0000
  H   H21       1.0  0.52217  0.60771  0.48476  1.0000
  H   H22       1.0  0.02217  0.39229  0.51524  1.0000
  H   H23       1.0  0.02217  0.89229  0.98476  1.0000
  H   H24       1.0  0.52218  0.10771  0.01524  1.0000
  C   C1        1.0  0.78692  0.85797  0.41241  1.0000
  C   C2        1.0  0.28692  0.14203  0.58759  1.0000
  C   C3        1.0  0.28692  0.64203  0.91241  1.0000
  C   C4        1.0  0.78692  0.35797  0.08759  1.0000
  C   C5        1.0  0.94344  0.78269  0.46816  1.0000
  C   C6        1.0  0.44345  0.21731  0.53184  1.0000
  C   C7        1.0  0.44345  0.71731  0.96816  1.0000
  C   C8        1.0  0.94345  0.28269  0.03184  1.0000
  C   C9        1.0  0.78328  0.74966  0.53411  1.0000
  C   C10       1.0  0.28328  0.25034  0.46589  1.0000
  C   C11       1.0  0.28328  0.75034  0.03411  1.0000
  C   C12       1.0  0.78328  0.24966  0.96589  1.0000
  C   C13       1.0  0.84969  0.81055  0.59769  1.0000
  C   C14       1.0  0.34969  0.18945  0.40231  1.0000
  C   C15       1.0  0.34969  0.68945  0.09769  1.0000
  C   C16       1.0  0.84969  0.31055  0.90231  1.0000
  C   C17       1.0  0.71457  0.77821  0.66130  1.0000
  C   C18       1.0  0.21457  0.22179  0.33870  1.0000
  C   C19       1.0  0.21457  0.72179  0.16130  1.0000
  C   C20       1.0  0.71457  0.27821  0.83870  1.0000
  C   C21       1.0  0.50609  0.68508  0.66085  1.0000
  C   C22       1.0  0.00609  0.31492  0.33915  1.0000
  C   C23       1.0  0.00609  0.81492  0.16085  1.0000
  C   C24       1.0  0.50609  0.18508  0.83915  1.0000
  C   C25       1.0  0.43777  0.62465  0.59717  1.0000
  C   C26       1.0  0.93777  0.37535  0.40283  1.0000
  C   C27       1.0  0.93777  0.87535  0.09717  1.0000
  C   C28       1.0  0.43777  0.12465  0.90283  1.0000
  C   C29       1.0  0.57583  0.65576  0.53434  1.0000
  C   C30       1.0  0.07583  0.34423  0.46566  1.0000
  C   C31       1.0  0.07583  0.84423  0.03434  1.0000
  C   C32       1.0  0.57583  0.15576  0.96566  1.0000
  C   C33       1.0  0.81062  0.83931  0.72664  1.0000
  C   C34       1.0  0.31062  0.16069  0.27336  1.0000
  C   C35       1.0  0.31062  0.66069  0.22664  1.0000
  C   C36       1.0  0.81062  0.33931  0.77336  1.0000
  N   N1        1.0  0.86702  0.78299  0.78919  1.0000
  N   N2        1.0  0.36702  0.21701  0.21081  1.0000
  N   N3        1.0  0.36702  0.71701  0.28919  1.0000
  N   N4        1.0  0.86702  0.28299  0.71081  1.0000
  N   N5        1.0  0.97540  0.87424  0.83263  1.0000
  N   N6        1.0  0.47540  0.12576  0.16737  1.0000
  N   N7        1.0  0.47540  0.62576  0.33263  1.0000
  N   N8        1.0  0.97540  0.37424  0.66737  1.0000
  N   N9        1.0  0.98432  0.98143  0.79843  1.0000
  N   N10       1.0  0.48433  0.01857  0.20157  1.0000
  N   N11       1.0  0.48433  0.51857  0.29844  1.0000
  N   N12       1.0  0.98432  0.48143  0.70157  1.0000
  N   N13       1.0  0.88178  0.96304  0.73223  1.0000
  N   N14       1.0  0.38178  0.03696  0.26777  1.0000
  N   N15       1.0  0.38178  0.53696  0.23223  1.0000
  N   N16       1.0  0.88178  0.46304  0.76777  1.0000
  O   O1        1.0  0.91331  0.89853  0.35720  1.0000
  O   O2        1.0  0.41331  0.10147  0.64280  1.0000
  O   O3        1.0  0.41331  0.60147  0.85720  1.0000
  O   O4        1.0  0.91331  0.39853  0.14280  1.0000
  O   O5        1.0  0.52713  0.87604  0.42067  1.0000
  O   O6        1.0  0.02714  0.12396  0.57933  1.0000
  O   O7        1.0  0.02713  0.62396  0.92067  1.0000
  O   O8        1.0  0.52713  0.37604  0.07933  1.0000
