data_image0
_chemical_formula_structural       H26Pd5C22O16
_chemical_formula_sum              "H26 Pd5 C22 O16"
_cell_length_a       9.25488
_cell_length_b       9.63243
_cell_length_c       10.6509
_cell_angle_alpha    94.3504
_cell_angle_beta     114.013
_cell_angle_gamma    114.221

_space_group_name_H-M_alt    "P 1"
_space_group_IT_number       1

loop_
  _space_group_symop_operation_xyz
  'x, y, z'

loop_
  _atom_site_type_symbol
  _atom_site_label
  _atom_site_symmetry_multiplicity
  _atom_site_fract_x
  _atom_site_fract_y
  _atom_site_fract_z
  _atom_site_occupancy
  H   H1        1.0  0.10786  0.43140  0.83479  1.0000
  H   H2        1.0  0.89214  0.56860  0.16521  1.0000
  H   H3        1.0  0.11101  0.34808  0.68012  1.0000
  H   H4        1.0  0.88899  0.65192  0.31988  1.0000
  H   H5        1.0  0.29641  0.40892  0.85493  1.0000
  H   H6        1.0  0.70359  0.59108  0.14506  1.0000
  H   H7        1.0  0.97949  0.07367  0.59814  1.0000
  H   H8        1.0  0.02051  0.92633  0.40186  1.0000
  H   H9        1.0  0.67384  0.66477  0.55698  1.0000
  H   H10       1.0  0.32616  0.33523  0.44302  1.0000
  H   H11       1.0  0.88179  0.72717  0.55474  1.0000
  H   H12       1.0  0.11821  0.27283  0.44526  1.0000
  H   H13       1.0  0.73907  0.80656  0.46370  1.0000
  H   H14       1.0  0.26093  0.19343  0.53630  1.0000
  H   H15       1.0  0.55776  0.21606  0.53606  1.0000
  H   H16       1.0  0.44224  0.78394  0.46394  1.0000
  H   H17       1.0  0.77772  0.33170  0.55490  1.0000
  H   H18       1.0  0.22228  0.66830  0.44510  1.0000
  H   H19       1.0  0.72831  0.15814  0.61281  1.0000
  H   H20       1.0  0.27169  0.84186  0.38719  1.0000
  H   H21       1.0  0.59794  0.48801  0.71114  1.0000
  H   H22       1.0  0.40206  0.51199  0.28886  1.0000
  H   H23       1.0  0.81462  0.49576  0.77043  1.0000
  H   H24       1.0  0.18538  0.50424  0.22957  1.0000
  H   H25       1.0  0.76686  0.57543  0.89346  1.0000
  H   H26       1.0  0.23314  0.42457  0.10655  1.0000
  Pd  Pd1       1.0  0.00000  0.00000  0.00000  1.0000
  Pd  Pd2       1.0  0.32333  0.94969  0.06647  1.0000
  Pd  Pd3       1.0  0.67667  0.05030  0.93353  1.0000
  Pd  Pd4       1.0  0.33206  0.03846  0.83585  1.0000
  Pd  Pd5       1.0  0.66794  0.96154  0.16415  1.0000
  C   C1        1.0  0.14840  0.35453  0.79282  1.0000
  C   C2        1.0  0.85160  0.64547  0.20718  1.0000
  C   C3        1.0  0.06451  0.19306  0.81192  1.0000
  C   C4        1.0  0.93549  0.80694  0.18808  1.0000
  C   C5        1.0  0.98450  0.05544  0.69906  1.0000
  C   C6        1.0  0.01550  0.94456  0.30094  1.0000
  C   C7        1.0  0.88415  0.89745  0.69604  1.0000
  C   C8        1.0  0.11585  0.10255  0.30396  1.0000
  C   C9        1.0  0.78710  0.76660  0.55861  1.0000
  C   C10       1.0  0.21290  0.23340  0.44139  1.0000
  C   C11       1.0  0.61098  0.11511  0.38386  1.0000
  C   C12       1.0  0.38902  0.88489  0.61613  1.0000
  C   C13       1.0  0.67114  0.21055  0.53126  1.0000
  C   C14       1.0  0.32886  0.78945  0.46874  1.0000
  C   C15       1.0  0.63523  0.32195  0.82776  1.0000
  C   C16       1.0  0.36477  0.67805  0.17224  1.0000
  C   C17       1.0  0.70700  0.47844  0.79666  1.0000
  C   C18       1.0  0.29300  0.52156  0.20334  1.0000
  C   C19       1.0  0.20511  0.82961  0.86246  1.0000
  C   C20       1.0  0.79489  0.17039  0.13754  1.0000
  C   C21       1.0  0.40433  0.16002  0.02929  1.0000
  C   C22       1.0  0.59568  0.83998  0.97071  1.0000
  O   O1        1.0  0.07572  0.19564  0.93676  1.0000
  O   O2        1.0  0.92428  0.80436  0.06324  1.0000
  O   O3        1.0  0.86989  0.85086  0.80235  1.0000
  O   O4        1.0  0.13011  0.14914  0.19766  1.0000
  O   O5        1.0  0.44942  0.07049  0.28826  1.0000
  O   O6        1.0  0.55058  0.92952  0.71174  1.0000
  O   O7        1.0  0.72741  0.08809  0.36744  1.0000
  O   O8        1.0  0.27259  0.91191  0.63255  1.0000
  O   O9        1.0  0.46901  0.25518  0.79804  1.0000
  O   O10       1.0  0.53099  0.74482  0.20196  1.0000
  O   O11       1.0  0.74624  0.26983  0.88292  1.0000
  O   O12       1.0  0.25376  0.73017  0.11708  1.0000
  O   O13       1.0  0.11440  0.69599  0.79107  1.0000
  O   O14       1.0  0.88561  0.30401  0.20893  1.0000
  O   O15       1.0  0.47900  0.29426  0.09581  1.0000
  O   O16       1.0  0.52101  0.70574  0.90419  1.0000
