data_image0
_chemical_formula_structural       H26Pd4PtC22O16
_chemical_formula_sum              "H26 Pd4 Pt1 C22 O16"
_cell_length_a       9.30992
_cell_length_b       9.62127
_cell_length_c       10.6249
_cell_angle_alpha    94.0833
_cell_angle_beta     114.083
_cell_angle_gamma    113.856

_space_group_name_H-M_alt    "P 1"
_space_group_IT_number       1

loop_
  _space_group_symop_operation_xyz
  'x, y, z'

loop_
  _atom_site_type_symbol
  _atom_site_label
  _atom_site_symmetry_multiplicity
  _atom_site_fract_x
  _atom_site_fract_y
  _atom_site_fract_z
  _atom_site_occupancy
  H   H1        1.0  0.10644  0.42974  0.83066  1.0000
  H   H2        1.0  0.89356  0.57026  0.16934  1.0000
  H   H3        1.0  0.11232  0.34615  0.67771  1.0000
  H   H4        1.0  0.88768  0.65385  0.32229  1.0000
  H   H5        1.0  0.29455  0.40714  0.85365  1.0000
  H   H6        1.0  0.70545  0.59286  0.14635  1.0000
  H   H7        1.0  0.96858  0.07303  0.59427  1.0000
  H   H8        1.0  0.03142  0.92697  0.40573  1.0000
  H   H9        1.0  0.66686  0.67034  0.55638  1.0000
  H   H10       1.0  0.33314  0.32966  0.44362  1.0000
  H   H11       1.0  0.87246  0.71980  0.55682  1.0000
  H   H12       1.0  0.12754  0.28020  0.44318  1.0000
  H   H13       1.0  0.74129  0.80841  0.46319  1.0000
  H   H14       1.0  0.25871  0.19159  0.53681  1.0000
  H   H15       1.0  0.55523  0.21538  0.53777  1.0000
  H   H16       1.0  0.44478  0.78462  0.46223  1.0000
  H   H17       1.0  0.76992  0.33133  0.55164  1.0000
  H   H18       1.0  0.23008  0.66867  0.44836  1.0000
  H   H19       1.0  0.72758  0.15954  0.61271  1.0000
  H   H20       1.0  0.27242  0.84047  0.38729  1.0000
  H   H21       1.0  0.61931  0.47971  0.70041  1.0000
  H   H22       1.0  0.38069  0.52028  0.29959  1.0000
  H   H23       1.0  0.84375  0.50752  0.79826  1.0000
  H   H24       1.0  0.15625  0.49247  0.20173  1.0000
  H   H25       1.0  0.74789  0.57218  0.88713  1.0000
  H   H26       1.0  0.25211  0.42782  0.11287  1.0000
  Pd  Pd1       1.0  0.31955  0.95442  0.06543  1.0000
  Pd  Pd2       1.0  0.68045  0.04557  0.93457  1.0000
  Pd  Pd3       1.0  0.34264  0.04262  0.83753  1.0000
  Pd  Pd4       1.0  0.65736  0.95738  0.16247  1.0000
  Pt  Pt1       1.0  1.00000  0.00000  1.00000  1.0000
  C   C1        1.0  0.14817  0.35280  0.79052  1.0000
  C   C2        1.0  0.85183  0.64720  0.20948  1.0000
  C   C3        1.0  0.06492  0.19239  0.81051  1.0000
  C   C4        1.0  0.93508  0.80761  0.18949  1.0000
  C   C5        1.0  0.97774  0.05498  0.69666  1.0000
  C   C6        1.0  0.02226  0.94502  0.30334  1.0000
  C   C7        1.0  0.88164  0.89778  0.69522  1.0000
  C   C8        1.0  0.11836  0.10222  0.30478  1.0000
  C   C9        1.0  0.78329  0.76703  0.55866  1.0000
  C   C10       1.0  0.21671  0.23297  0.44134  1.0000
  C   C11       1.0  0.60513  0.11469  0.38304  1.0000
  C   C12       1.0  0.39487  0.88532  0.61696  1.0000
  C   C13       1.0  0.66704  0.21047  0.53072  1.0000
  C   C14       1.0  0.33296  0.78953  0.46928  1.0000
  C   C15       1.0  0.64544  0.32166  0.83034  1.0000
  C   C16       1.0  0.35456  0.67834  0.16966  1.0000
  C   C17       1.0  0.71898  0.47884  0.80086  1.0000
  C   C18       1.0  0.28102  0.52116  0.19914  1.0000
  C   C19       1.0  0.20970  0.83574  0.86265  1.0000
  C   C20       1.0  0.79030  0.16426  0.13735  1.0000
  C   C21       1.0  0.40917  0.16436  0.02880  1.0000
  C   C22       1.0  0.59083  0.83564  0.97121  1.0000
  O   O1        1.0  0.08339  0.19598  0.93836  1.0000
  O   O2        1.0  0.91661  0.80402  0.06163  1.0000
  O   O3        1.0  0.87197  0.85056  0.80360  1.0000
  O   O4        1.0  0.12803  0.14944  0.19640  1.0000
  O   O5        1.0  0.44587  0.07403  0.28800  1.0000
  O   O6        1.0  0.55413  0.92597  0.71200  1.0000
  O   O7        1.0  0.71837  0.08373  0.36588  1.0000
  O   O8        1.0  0.28164  0.91627  0.63412  1.0000
  O   O9        1.0  0.48069  0.25814  0.80019  1.0000
  O   O10       1.0  0.51931  0.74186  0.19981  1.0000
  O   O11       1.0  0.75287  0.26577  0.88416  1.0000
  O   O12       1.0  0.24713  0.73423  0.11584  1.0000
  O   O13       1.0  0.11981  0.70272  0.79196  1.0000
  O   O14       1.0  0.88018  0.29728  0.20804  1.0000
  O   O15       1.0  0.48364  0.29790  0.09524  1.0000
  O   O16       1.0  0.51636  0.70209  0.90476  1.0000
