data_image0
_chemical_formula_structural       Ba4H32C16O28
_chemical_formula_sum              "Ba4 H32 C16 O28"
_cell_length_a       7.64777
_cell_length_b       10.4936
_cell_length_c       10.2858
_cell_angle_alpha    102.195
_cell_angle_beta     90.0036
_cell_angle_gamma    89.9995

_space_group_name_H-M_alt    "P 1"
_space_group_IT_number       1

loop_
  _space_group_symop_operation_xyz
  'x, y, z'

loop_
  _atom_site_type_symbol
  _atom_site_label
  _atom_site_symmetry_multiplicity
  _atom_site_fract_x
  _atom_site_fract_y
  _atom_site_fract_z
  _atom_site_occupancy
  Ba  Ba1       1.0  0.74642  0.61714  0.79062  1.0000
  Ba  Ba2       1.0  0.24644  0.88286  0.70937  1.0000
  Ba  Ba3       1.0  0.25358  0.38287  0.20938  1.0000
  Ba  Ba4       1.0  0.75357  0.11714  0.29064  1.0000
  H   H1        1.0  0.81265  0.19777  0.81955  1.0000
  H   H2        1.0  0.31264  0.30223  0.68045  1.0000
  H   H3        1.0  0.18736  0.80223  0.18045  1.0000
  H   H4        1.0  0.68737  0.69777  0.31955  1.0000
  H   H5        1.0  0.43915  0.27680  0.90430  1.0000
  H   H6        1.0  0.93915  0.22321  0.59568  1.0000
  H   H7        1.0  0.56086  0.72319  0.09570  1.0000
  H   H8        1.0  0.06085  0.77680  0.40432  1.0000
  H   H9        1.0  0.50012  0.11634  0.81890  1.0000
  H   H10       1.0  0.00011  0.38364  0.68109  1.0000
  H   H11       1.0  0.49988  0.88366  0.18110  1.0000
  H   H12       1.0  0.99990  0.61636  0.31892  1.0000
  H   H13       1.0  0.92239  0.86279  0.98202  1.0000
  H   H14       1.0  0.42241  0.63720  0.51797  1.0000
  H   H15       1.0  0.07761  0.13720  0.01797  1.0000
  H   H16       1.0  0.57760  0.36279  0.48203  1.0000
  H   H17       1.0  0.21483  0.58556  0.79490  1.0000
  H   H18       1.0  0.71487  0.91443  0.70511  1.0000
  H   H19       1.0  0.78517  0.41444  0.20510  1.0000
  H   H20       1.0  0.28513  0.08557  0.29489  1.0000
  H   H21       1.0  0.13782  0.47523  0.86401  1.0000
  H   H22       1.0  0.63785  0.02476  0.63599  1.0000
  H   H23       1.0  0.86218  0.52478  0.13599  1.0000
  H   H24       1.0  0.36216  0.97524  0.36401  1.0000
  H   H25       1.0  0.82397  0.95365  0.91351  1.0000
  H   H26       1.0  0.32401  0.54635  0.58650  1.0000
  H   H27       1.0  0.17602  0.04634  0.08649  1.0000
  H   H28       1.0  0.67600  0.45365  0.41350  1.0000
  H   H29       1.0  0.79794  0.38672  0.98087  1.0000
  H   H30       1.0  0.29793  0.11329  0.51913  1.0000
  H   H31       1.0  0.20206  0.61327  0.01913  1.0000
  H   H32       1.0  0.70207  0.88671  0.48087  1.0000
  C   C1        1.0  0.64781  0.26825  0.68035  1.0000
  C   C2        1.0  0.14779  0.23174  0.81964  1.0000
  C   C3        1.0  0.35218  0.73176  0.31965  1.0000
  C   C4        1.0  0.85219  0.76827  0.18037  1.0000
  C   C5        1.0  0.69849  0.26242  0.82328  1.0000
  C   C6        1.0  0.19849  0.23757  0.67670  1.0000
  C   C7        1.0  0.30151  0.73757  0.17672  1.0000
  C   C8        1.0  0.80151  0.76243  0.32330  1.0000
  C   C9        1.0  0.54485  0.20502  0.88757  1.0000
  C   C10       1.0  0.04485  0.29498  0.61240  1.0000
  C   C11       1.0  0.45516  0.79497  0.11243  1.0000
  C   C12       1.0  0.95515  0.70503  0.38759  1.0000
  C   C13       1.0  0.59498  0.16788  0.01689  1.0000
  C   C14       1.0  0.09496  0.33213  0.48311  1.0000
  C   C15       1.0  0.40501  0.83211  0.98311  1.0000
  C   C16       1.0  0.90503  0.66787  0.51689  1.0000
  O   O1        1.0  0.60734  0.37792  0.65646  1.0000
  O   O2        1.0  0.10735  0.12207  0.84352  1.0000
  O   O3        1.0  0.39266  0.62208  0.34352  1.0000
  O   O4        1.0  0.89265  0.87793  0.15648  1.0000
  O   O5        1.0  0.74065  0.39096  0.89484  1.0000
  O   O6        1.0  0.24065  0.10905  0.60516  1.0000
  O   O7        1.0  0.25936  0.60904  0.10516  1.0000
  O   O8        1.0  0.75934  0.89095  0.39484  1.0000
  O   O9        1.0  0.12094  0.56915  0.85345  1.0000
  O   O10       1.0  0.62097  0.93084  0.64656  1.0000
  O   O11       1.0  0.87906  0.43085  0.14654  1.0000
  O   O12       1.0  0.37903  0.06916  0.35345  1.0000
  O   O13       1.0  0.52888  0.23220  0.12525  1.0000
  O   O14       1.0  0.02887  0.26782  0.37475  1.0000
  O   O15       1.0  0.47111  0.76781  0.87475  1.0000
  O   O16       1.0  0.97114  0.73218  0.62526  1.0000
  O   O17       1.0  0.89429  0.87239  0.88982  1.0000
  O   O18       1.0  0.39432  0.62761  0.61018  1.0000
  O   O19       1.0  0.10571  0.12760  0.11018  1.0000
  O   O20       1.0  0.60569  0.37239  0.38982  1.0000
  O   O21       1.0  0.64814  0.16132  0.59372  1.0000
  O   O22       1.0  0.14815  0.33867  0.90628  1.0000
  O   O23       1.0  0.35188  0.83869  0.40628  1.0000
  O   O24       1.0  0.85187  0.66133  0.09371  1.0000
  O   O25       1.0  0.70392  0.07642  0.01493  1.0000
  O   O26       1.0  0.20392  0.42360  0.48511  1.0000
  O   O27       1.0  0.29606  0.92357  0.98507  1.0000
  O   O28       1.0  0.79608  0.57643  0.51492  1.0000
