data_image0
_chemical_formula_structural       Cu4H48C56S8N16
_chemical_formula_sum              "Cu4 H48 C56 S8 N16"
_cell_length_a       7.71045
_cell_length_b       13.8558
_cell_length_c       14.0606
_cell_angle_alpha    104.648
_cell_angle_beta     90
_cell_angle_gamma    90.0001

_space_group_name_H-M_alt    "P 1"
_space_group_IT_number       1

loop_
  _space_group_symop_operation_xyz
  'x, y, z'

loop_
  _atom_site_type_symbol
  _atom_site_label
  _atom_site_symmetry_multiplicity
  _atom_site_fract_x
  _atom_site_fract_y
  _atom_site_fract_z
  _atom_site_occupancy
  Cu  Cu1       1.0  0.08906  0.40674  0.75178  1.0000
  Cu  Cu2       1.0  0.58906  0.09327  0.74822  1.0000
  Cu  Cu3       1.0  0.91094  0.59327  0.24823  1.0000
  Cu  Cu4       1.0  0.41094  0.90673  0.25178  1.0000
  H   H1        1.0  0.03663  0.55450  0.62992  1.0000
  H   H2        1.0  0.53663  0.94551  0.87008  1.0000
  H   H3        1.0  0.96337  0.44551  0.37009  1.0000
  H   H4        1.0  0.46337  0.05450  0.12992  1.0000
  H   H5        1.0  0.22087  0.67064  0.56555  1.0000
  H   H6        1.0  0.72087  0.82936  0.93445  1.0000
  H   H7        1.0  0.77913  0.32936  0.43445  1.0000
  H   H8        1.0  0.27913  0.17064  0.06555  1.0000
  H   H9        1.0  0.66699  0.53275  0.66376  1.0000
  H   H10       1.0  0.16699  0.96724  0.83624  1.0000
  H   H11       1.0  0.33302  0.46724  0.33624  1.0000
  H   H12       1.0  0.83301  0.03276  0.16376  1.0000
  H   H13       1.0  0.46594  0.42397  0.72420  1.0000
  H   H14       1.0  0.96594  0.07602  0.77580  1.0000
  H   H15       1.0  0.53406  0.57602  0.27580  1.0000
  H   H16       1.0  0.03406  0.92397  0.22420  1.0000
  H   H17       1.0  0.97798  0.79490  0.61649  1.0000
  H   H18       1.0  0.47798  0.70510  0.88351  1.0000
  H   H19       1.0  0.02202  0.20510  0.38351  1.0000
  H   H20       1.0  0.52202  0.29490  0.11649  1.0000
  H   H21       1.0  0.77622  0.68822  0.68787  1.0000
  H   H22       1.0  0.27621  0.81178  0.81213  1.0000
  H   H23       1.0  0.22378  0.31178  0.31213  1.0000
  H   H24       1.0  0.72379  0.18822  0.18787  1.0000
  H   H25       1.0  0.40989  0.70237  0.45854  1.0000
  H   H26       1.0  0.90989  0.79763  0.04146  1.0000
  H   H27       1.0  0.59011  0.29763  0.54146  1.0000
  H   H28       1.0  0.09011  0.20237  0.95854  1.0000
  H   H29       1.0  0.62071  0.81047  0.39880  1.0000
  H   H30       1.0  0.12071  0.68953  0.10120  1.0000
  H   H31       1.0  0.37929  0.18953  0.60120  1.0000
  H   H32       1.0  0.87929  0.31047  0.89880  1.0000
  H   H33       1.0  0.89321  0.85602  0.38720  1.0000
  H   H34       1.0  0.39321  0.64398  0.11280  1.0000
  H   H35       1.0  0.10679  0.14398  0.61280  1.0000
  H   H36       1.0  0.60679  0.35602  0.88720  1.0000
  H   H37       1.0  0.05807  0.82851  0.46438  1.0000
  H   H38       1.0  0.55807  0.67149  0.03562  1.0000
  H   H39       1.0  0.94193  0.17149  0.53562  1.0000
  H   H40       1.0  0.44193  0.32850  0.96438  1.0000
  H   H41       1.0  0.96880  0.97496  0.59922  1.0000
  H   H42       1.0  0.46880  0.52504  0.90078  1.0000
  H   H43       1.0  0.03120  0.02504  0.40078  1.0000
  H   H44       1.0  0.53120  0.47496  0.09922  1.0000
  H   H45       1.0  0.80387  0.00433  0.52262  1.0000
  H   H46       1.0  0.30386  0.49567  0.97738  1.0000
  H   H47       1.0  0.19614  0.99567  0.47739  1.0000
  H   H48       1.0  0.69613  0.50433  0.02261  1.0000
  C   C1        1.0  0.76617  0.26873  0.68637  1.0000
  C   C2        1.0  0.26617  0.23127  0.81363  1.0000
  C   C3        1.0  0.23383  0.73127  0.31363  1.0000
  C   C4        1.0  0.73383  0.76873  0.18637  1.0000
  C   C5        1.0  0.83646  0.59193  0.85439  1.0000
  C   C6        1.0  0.33646  0.90807  0.64561  1.0000
  C   C7        1.0  0.16354  0.40808  0.14561  1.0000
  C   C8        1.0  0.66354  0.09193  0.35439  1.0000
  C   C9        1.0  0.17761  0.55212  0.63563  1.0000
  C   C10       1.0  0.67761  0.94788  0.86437  1.0000
  C   C11       1.0  0.82239  0.44788  0.36437  1.0000
  C   C12       1.0  0.32240  0.05212  0.13563  1.0000
  C   C13       1.0  0.28103  0.61642  0.59909  1.0000
  C   C14       1.0  0.78103  0.88358  0.90091  1.0000
  C   C15       1.0  0.71897  0.38358  0.40091  1.0000
  C   C16       1.0  0.21898  0.11642  0.09909  1.0000
  C   C17       1.0  0.46201  0.61357  0.61007  1.0000
  C   C18       1.0  0.96201  0.88643  0.88993  1.0000
  C   C19       1.0  0.53799  0.38643  0.38993  1.0000
  C   C20       1.0  0.03800  0.11357  0.11006  1.0000
  C   C21       1.0  0.52850  0.54204  0.65518  1.0000
  C   C22       1.0  0.02850  0.95796  0.84482  1.0000
  C   C23       1.0  0.47150  0.45795  0.34482  1.0000
  C   C24       1.0  0.97150  0.04204  0.15518  1.0000
  C   C25       1.0  0.41596  0.48005  0.68912  1.0000
  C   C26       1.0  0.91596  0.01995  0.81088  1.0000
  C   C27       1.0  0.58404  0.51995  0.31088  1.0000
  C   C28       1.0  0.08404  0.98005  0.18912  1.0000
  C   C29       1.0  0.85098  0.77035  0.58438  1.0000
  C   C30       1.0  0.35098  0.72964  0.91562  1.0000
  C   C31       1.0  0.14902  0.22964  0.41562  1.0000
  C   C32       1.0  0.64902  0.27035  0.08438  1.0000
  C   C33       1.0  0.73991  0.71057  0.62141  1.0000
  C   C34       1.0  0.23991  0.78943  0.87859  1.0000
  C   C35       1.0  0.26009  0.28943  0.37859  1.0000
  C   C36       1.0  0.76009  0.21057  0.12141  1.0000
  C   C37       1.0  0.57859  0.68182  0.57561  1.0000
  C   C38       1.0  0.07859  0.81818  0.92439  1.0000
  C   C39       1.0  0.42141  0.31818  0.42439  1.0000
  C   C40       1.0  0.92141  0.18182  0.07561  1.0000
  C   C41       1.0  0.53387  0.72041  0.49586  1.0000
  C   C42       1.0  0.03387  0.77959  0.00414  1.0000
  C   C43       1.0  0.46613  0.27959  0.50414  1.0000
  C   C44       1.0  0.96613  0.22041  0.99586  1.0000
  C   C45       1.0  0.64884  0.78026  0.46146  1.0000
  C   C46       1.0  0.14884  0.71974  0.03854  1.0000
  C   C47       1.0  0.35116  0.21974  0.53854  1.0000
  C   C48       1.0  0.85116  0.28026  0.96146  1.0000
  C   C49       1.0  0.93025  0.86292  0.46396  1.0000
  C   C50       1.0  0.43024  0.63708  0.03604  1.0000
  C   C51       1.0  0.06976  0.13708  0.53604  1.0000
  C   C52       1.0  0.56975  0.36292  0.96396  1.0000
  C   C53       1.0  0.93360  0.97138  0.52255  1.0000
  C   C54       1.0  0.43359  0.52862  0.97745  1.0000
  C   C55       1.0  0.06641  0.02862  0.47745  1.0000
  C   C56       1.0  0.56640  0.47138  0.02255  1.0000
  S   S1        1.0  0.97296  0.51653  0.88879  1.0000
  S   S2        1.0  0.47296  0.98347  0.61120  1.0000
  S   S3        1.0  0.02704  0.48347  0.11121  1.0000
  S   S4        1.0  0.52705  0.01653  0.38879  1.0000
  S   S5        1.0  0.85467  0.35830  0.64639  1.0000
  S   S6        1.0  0.35467  0.14170  0.85360  1.0000
  S   S7        1.0  0.14533  0.64170  0.35360  1.0000
  S   S8        1.0  0.64533  0.85830  0.14640  1.0000
  N   N1        1.0  0.73561  0.64930  0.83580  1.0000
  N   N2        1.0  0.23561  0.85070  0.66420  1.0000
  N   N3        1.0  0.26438  0.35070  0.16420  1.0000
  N   N4        1.0  0.76438  0.14930  0.33580  1.0000
  N   N5        1.0  0.70073  0.20224  0.71236  1.0000
  N   N6        1.0  0.20073  0.29776  0.78764  1.0000
  N   N7        1.0  0.29927  0.79776  0.28764  1.0000
  N   N8        1.0  0.79927  0.70224  0.21236  1.0000
  N   N9        1.0  0.24194  0.48482  0.68125  1.0000
  N   N10       1.0  0.74194  0.01518  0.81875  1.0000
  N   N11       1.0  0.75806  0.51518  0.31876  1.0000
  N   N12       1.0  0.25806  0.98482  0.18125  1.0000
  N   N13       1.0  0.80635  0.80197  0.50386  1.0000
  N   N14       1.0  0.30634  0.69803  0.99615  1.0000
  N   N15       1.0  0.19365  0.19803  0.49614  1.0000
  N   N16       1.0  0.69365  0.30197  0.00386  1.0000
