data_image0
_chemical_formula_structural       Zn2H26C30N14O2
_chemical_formula_sum              "Zn2 H26 C30 N14 O2"
_cell_length_a       7.78952
_cell_length_b       8.73044
_cell_length_c       13.6817
_cell_angle_alpha    89.9977
_cell_angle_beta     90.0005
_cell_angle_gamma    114.467

_space_group_name_H-M_alt    "P 1"
_space_group_IT_number       1

loop_
  _space_group_symop_operation_xyz
  'x, y, z'

loop_
  _atom_site_type_symbol
  _atom_site_label
  _atom_site_symmetry_multiplicity
  _atom_site_fract_x
  _atom_site_fract_y
  _atom_site_fract_z
  _atom_site_occupancy
  Zn  Zn1       1.0  0.86765  0.72711  0.75916  1.0000
  Zn  Zn2       1.0  0.13236  0.27289  0.25915  1.0000
  H   H1        1.0  0.78453  0.25441  0.74213  1.0000
  H   H2        1.0  0.21546  0.74559  0.24212  1.0000
  H   H3        1.0  0.51797  0.23817  0.81269  1.0000
  H   H4        1.0  0.48202  0.76183  0.31269  1.0000
  H   H5        1.0  0.23926  0.18936  0.88119  1.0000
  H   H6        1.0  0.76071  0.81062  0.38120  1.0000
  H   H7        1.0  0.00695  0.27558  0.96184  1.0000
  H   H8        1.0  0.99303  0.72440  0.46184  1.0000
  H   H9        1.0  0.07734  0.58208  0.97248  1.0000
  H   H10       1.0  0.92264  0.41790  0.47248  1.0000
  H   H11       1.0  0.37684  0.79578  0.90433  1.0000
  H   H12       1.0  0.62316  0.20420  0.40434  1.0000
  H   H13       1.0  0.34870  0.26198  0.63771  1.0000
  H   H14       1.0  0.65129  0.73803  0.13771  1.0000
  H   H15       1.0  0.50917  0.43567  0.56733  1.0000
  H   H16       1.0  0.49082  0.56434  0.06734  1.0000
  H   H17       1.0  0.29470  0.29050  0.51531  1.0000
  H   H18       1.0  0.70527  0.70953  0.01531  1.0000
  H   H19       1.0  0.47424  0.70312  0.57558  1.0000
  H   H20       1.0  0.52578  0.29690  0.07558  1.0000
  H   H21       1.0  0.32882  0.95840  0.71772  1.0000
  H   H22       1.0  0.67121  0.04161  0.21770  1.0000
  H   H23       1.0  0.20806  0.94987  0.60768  1.0000
  H   H24       1.0  0.79198  0.05016  0.10766  1.0000
  H   H25       1.0  0.44457  0.96555  0.60338  1.0000
  H   H26       1.0  0.55545  0.03447  0.10336  1.0000
  C   C1        1.0  0.16038  0.03849  0.08957  1.0000
  C   C2        1.0  0.83963  0.96152  0.58958  1.0000
  C   C3        1.0  0.11290  0.90293  0.94268  1.0000
  C   C4        1.0  0.88710  0.09705  0.44267  1.0000
  C   C5        1.0  0.00194  0.46858  0.69176  1.0000
  C   C6        1.0  0.99807  0.53143  0.19175  1.0000
  C   C7        1.0  0.56600  0.37588  0.80992  1.0000
  C   C8        1.0  0.43399  0.62412  0.30992  1.0000
  C   C9        1.0  0.44152  0.44124  0.85065  1.0000
  C   C10       1.0  0.55848  0.55875  0.35065  1.0000
  C   C11       1.0  0.26867  0.32215  0.88881  1.0000
  C   C12       1.0  0.73130  0.67783  0.38882  1.0000
  C   C13       1.0  0.13829  0.36957  0.93253  1.0000
  C   C14       1.0  0.86170  0.63042  0.43254  1.0000
  C   C15       1.0  0.17845  0.54229  0.93799  1.0000
  C   C16       1.0  0.82154  0.45768  0.43799  1.0000
  C   C17       1.0  0.34413  0.66200  0.89993  1.0000
  C   C18       1.0  0.65585  0.33798  0.39993  1.0000
  C   C19       1.0  0.48297  0.61840  0.85517  1.0000
  C   C20       1.0  0.51702  0.38158  0.35516  1.0000
  C   C21       1.0  0.25938  0.45969  0.61821  1.0000
  C   C22       1.0  0.74062  0.54032  0.11821  1.0000
  C   C23       1.0  0.36043  0.35752  0.58292  1.0000
  C   C24       1.0  0.63956  0.64249  0.08292  1.0000
  C   C25       1.0  0.33608  0.63559  0.60849  1.0000
  C   C26       1.0  0.66393  0.36443  0.10848  1.0000
  C   C27       1.0  0.23478  0.72221  0.64514  1.0000
  C   C28       1.0  0.76524  0.27781  0.14512  1.0000
  C   C29       1.0  0.30981  0.90985  0.64239  1.0000
  C   C30       1.0  0.69022  0.09017  0.14237  1.0000
  N   N1        1.0  0.20197  0.95294  0.02408  1.0000
  N   N2        1.0  0.79804  0.04705  0.52407  1.0000
  N   N3        1.0  0.04727  0.85495  0.86517  1.0000
  N   N4        1.0  0.95273  0.14502  0.36516  1.0000
  N   N5        1.0  0.06385  0.63733  0.68707  1.0000
  N   N6        1.0  0.93617  0.36268  0.18705  1.0000
  N   N7        1.0  0.82931  0.38117  0.73356  1.0000
  N   N8        1.0  0.17069  0.61884  0.23355  1.0000
  N   N9        1.0  0.72976  0.46442  0.77000  1.0000
  N   N10       1.0  0.27024  0.53557  0.26999  1.0000
  N   N11       1.0  0.09046  0.37541  0.65994  1.0000
  N   N12       1.0  0.90954  0.62461  0.15993  1.0000
  N   N13       1.0  0.13589  0.11806  0.15282  1.0000
  N   N14       1.0  0.86412  0.88196  0.65283  1.0000
  O   O1        1.0  0.63791  0.73732  0.82310  1.0000
  O   O2        1.0  0.36209  0.26267  0.32310  1.0000
