data_image0
_chemical_formula_structural       Cu2H40C56N8O8
_chemical_formula_sum              "Cu2 H40 C56 N8 O8"
_cell_length_a       10.2651
_cell_length_b       10.3403
_cell_length_c       12.7621
_cell_angle_alpha    104.033
_cell_angle_beta     110.749
_cell_angle_gamma    100.454

_space_group_name_H-M_alt    "P 1"
_space_group_IT_number       1

loop_
  _space_group_symop_operation_xyz
  'x, y, z'

loop_
  _atom_site_type_symbol
  _atom_site_label
  _atom_site_symmetry_multiplicity
  _atom_site_fract_x
  _atom_site_fract_y
  _atom_site_fract_z
  _atom_site_occupancy
  Cu  Cu1       1.0  0.40573  0.17223  0.55484  1.0000
  Cu  Cu2       1.0  0.59426  0.82777  0.44516  1.0000
  H   H1        1.0  0.96188  0.13951  0.56535  1.0000
  H   H2        1.0  0.03811  0.86049  0.43465  1.0000
  H   H3        1.0  0.75677  0.46312  0.61195  1.0000
  H   H4        1.0  0.24322  0.53688  0.38804  1.0000
  H   H5        1.0  0.20630  0.56553  0.66041  1.0000
  H   H6        1.0  0.79370  0.43447  0.33959  1.0000
  H   H7        1.0  0.64130  0.91660  0.82731  1.0000
  H   H8        1.0  0.35869  0.08339  0.17269  1.0000
  H   H9        1.0  0.41798  0.44154  0.27224  1.0000
  H   H10       1.0  0.58203  0.55846  0.72777  1.0000
  H   H11       1.0  0.98671  0.64258  0.66019  1.0000
  H   H12       1.0  0.01329  0.35742  0.33981  1.0000
  H   H13       1.0  0.57178  0.29525  0.99881  1.0000
  H   H14       1.0  0.42823  0.70475  0.00119  1.0000
  H   H15       1.0  0.13172  0.05652  0.33623  1.0000
  H   H16       1.0  0.86829  0.94348  0.66377  1.0000
  H   H17       1.0  0.84408  0.98433  0.32863  1.0000
  H   H18       1.0  0.15592  0.01567  0.67137  1.0000
  H   H19       1.0  0.02253  0.10376  0.14652  1.0000
  H   H20       1.0  0.97746  0.89624  0.85349  1.0000
  H   H21       1.0  0.52976  0.96011  0.63460  1.0000
  H   H22       1.0  0.47023  0.03988  0.36540  1.0000
  H   H23       1.0  0.51020  0.37689  0.45495  1.0000
  H   H24       1.0  0.48980  0.62311  0.54506  1.0000
  H   H25       1.0  0.66289  0.26108  0.15616  1.0000
  H   H26       1.0  0.33711  0.73892  0.84383  1.0000
  H   H27       1.0  0.81877  0.83760  0.13099  1.0000
  H   H28       1.0  0.18123  0.16240  0.86901  1.0000
  H   H29       1.0  0.92507  0.20703  0.03085  1.0000
  H   H30       1.0  0.07493  0.79298  0.96915  1.0000
  H   H31       1.0  0.47096  0.32690  0.80196  1.0000
  H   H32       1.0  0.52904  0.67310  0.19804  1.0000
  H   H33       1.0  0.28415  0.49325  0.94526  1.0000
  H   H34       1.0  0.71587  0.50675  0.05475  1.0000
  H   H35       1.0  0.76957  0.20422  0.34106  1.0000
  H   H36       1.0  0.23042  0.79579  0.65894  1.0000
  H   H37       1.0  0.83727  0.27708  0.85031  1.0000
  H   H38       1.0  0.16274  0.72294  0.14969  1.0000
  H   H39       1.0  0.02221  0.42743  0.80863  1.0000
  H   H40       1.0  0.97780  0.57258  0.19138  1.0000
  C   C1        1.0  0.84573  0.29124  0.58661  1.0000
  C   C2        1.0  0.15427  0.70876  0.41339  1.0000
  C   C3        1.0  0.23231  0.31211  0.61292  1.0000
  C   C4        1.0  0.76769  0.68787  0.38708  1.0000
  C   C5        1.0  0.96816  0.24976  0.58616  1.0000
  C   C6        1.0  0.03183  0.75024  0.41383  1.0000
  C   C7        1.0  0.09770  0.34990  0.61329  1.0000
  C   C8        1.0  0.90229  0.65010  0.38670  1.0000
  C   C9        1.0  0.85286  0.43286  0.61206  1.0000
  C   C10       1.0  0.14713  0.56714  0.38793  1.0000
  C   C11       1.0  0.70824  0.18577  0.56449  1.0000
  C   C12       1.0  0.29175  0.81423  0.43550  1.0000
  C   C13       1.0  0.61930  0.10324  0.93061  1.0000
  C   C14       1.0  0.38071  0.89676  0.06939  1.0000
  C   C15       1.0  0.10392  0.49121  0.64085  1.0000
  C   C16       1.0  0.89607  0.50879  0.35914  1.0000
  C   C17       1.0  0.60497  0.00873  0.82475  1.0000
  C   C18       1.0  0.39503  0.99127  0.17525  1.0000
  C   C19       1.0  0.21003  0.27950  0.19336  1.0000
  C   C20       1.0  0.78997  0.72050  0.80665  1.0000
  C   C21       1.0  0.15207  0.31566  0.08398  1.0000
  C   C22       1.0  0.84794  0.68434  0.91602  1.0000
  C   C23       1.0  0.68483  0.07793  0.04496  1.0000
  C   C24       1.0  0.31518  0.92207  0.95504  1.0000
  C   C25       1.0  0.34980  0.35579  0.28226  1.0000
  C   C26       1.0  0.65020  0.64422  0.71775  1.0000
  C   C27       1.0  0.98195  0.53281  0.63983  1.0000
  C   C28       1.0  0.01805  0.46719  0.36016  1.0000
  C   C29       1.0  0.56823  0.21891  0.92155  1.0000
  C   C30       1.0  0.43177  0.78109  0.07845  1.0000
  C   C31       1.0  0.18948  0.14153  0.31806  1.0000
  C   C32       1.0  0.81052  0.85847  0.68195  1.0000
  C   C33       1.0  0.80167  0.01556  0.25042  1.0000
  C   C34       1.0  0.19833  0.98444  0.74958  1.0000
  C   C35       1.0  0.12991  0.16986  0.21302  1.0000
  C   C36       1.0  0.87009  0.83014  0.78698  1.0000
  C   C37       1.0  0.54259  0.03193  0.71787  1.0000
  C   C38       1.0  0.45741  0.96806  0.28213  1.0000
  C   C39       1.0  0.40185  0.32105  0.38469  1.0000
  C   C40       1.0  0.59815  0.67895  0.61532  1.0000
  C   C41       1.0  0.69905  0.16804  0.15271  1.0000
  C   C42       1.0  0.30096  0.83196  0.84729  1.0000
  C   C43       1.0  0.78542  0.93276  0.13950  1.0000
  C   C44       1.0  0.21458  0.06724  0.86050  1.0000
  C   C45       1.0  0.00235  0.27033  0.00946  1.0000
  C   C46       1.0  0.99765  0.72968  0.99055  1.0000
  C   C47       1.0  0.50889  0.23678  0.81171  1.0000
  C   C48       1.0  0.49111  0.76322  0.18829  1.0000
  C   C49       1.0  0.20169  0.43104  0.96320  1.0000
  C   C50       1.0  0.79832  0.56896  0.03681  1.0000
  C   C51       1.0  0.75822  0.13616  0.25639  1.0000
  C   C52       1.0  0.24178  0.86384  0.74361  1.0000
  C   C53       1.0  0.95313  0.30982  0.90887  1.0000
  C   C54       1.0  0.04688  0.69019  0.09113  1.0000
  C   C55       1.0  0.05486  0.39262  0.88519  1.0000
  C   C56       1.0  0.94515  0.60739  0.11481  1.0000
  N   N1        1.0  0.49542  0.14432  0.71106  1.0000
  N   N2        1.0  0.50457  0.85567  0.28894  1.0000
  N   N3        1.0  0.32355  0.21586  0.40272  1.0000
  N   N4        1.0  0.67645  0.78414  0.59728  1.0000
  N   N5        1.0  0.25081  0.39556  0.06085  1.0000
  N   N6        1.0  0.74920  0.60445  0.93916  1.0000
  N   N7        1.0  0.72957  0.96223  0.03935  1.0000
  N   N8        1.0  0.27043  0.03777  0.96065  1.0000
  O   O1        1.0  0.21873  0.18023  0.57301  1.0000
  O   O2        1.0  0.78126  0.81976  0.42699  1.0000
  O   O3        1.0  0.70840  0.06273  0.55779  1.0000
  O   O4        1.0  0.29159  0.93727  0.44219  1.0000
  O   O5        1.0  0.34892  0.40745  0.64882  1.0000
  O   O6        1.0  0.65108  0.59254  0.35118  1.0000
  O   O7        1.0  0.59988  0.23567  0.55501  1.0000
  O   O8        1.0  0.40012  0.76433  0.44500  1.0000
