data_image0
_chemical_formula_structural       Cd2H32C16S2N4O14
_chemical_formula_sum              "Cd2 H32 C16 S2 N4 O14"
_cell_length_a       6.49208
_cell_length_b       9.15514
_cell_length_c       11.2432
_cell_angle_alpha    84.9769
_cell_angle_beta     86.541
_cell_angle_gamma    74.4246

_space_group_name_H-M_alt    "P 1"
_space_group_IT_number       1

loop_
  _space_group_symop_operation_xyz
  'x, y, z'

loop_
  _atom_site_type_symbol
  _atom_site_label
  _atom_site_symmetry_multiplicity
  _atom_site_fract_x
  _atom_site_fract_y
  _atom_site_fract_z
  _atom_site_occupancy
  Cd  Cd1       1.0  0.49999  0.50000  0.50000  1.0000
  Cd  Cd2       1.0  0.50000  0.50000  0.00000  1.0000
  H   H1        1.0  0.76329  0.65675  0.35671  1.0000
  H   H2        1.0  0.23671  0.34325  0.64330  1.0000
  H   H3        1.0  0.54192  0.78619  0.38526  1.0000
  H   H4        1.0  0.45808  0.21382  0.61475  1.0000
  H   H5        1.0  0.90568  0.34570  0.40077  1.0000
  H   H6        1.0  0.09431  0.65430  0.59923  1.0000
  H   H7        1.0  0.89273  0.33001  0.54506  1.0000
  H   H8        1.0  0.10727  0.66999  0.45495  1.0000
  H   H9        1.0  0.81099  0.36950  0.18872  1.0000
  H   H10       1.0  0.18901  0.63050  0.81128  1.0000
  H   H11       1.0  0.57336  0.36709  0.22445  1.0000
  H   H12       1.0  0.42665  0.63291  0.77556  1.0000
  H   H13       1.0  0.67173  0.22858  0.83160  1.0000
  H   H14       1.0  0.32827  0.77142  0.16840  1.0000
  H   H15       1.0  0.25468  0.93071  0.86252  1.0000
  H   H16       1.0  0.74532  0.06928  0.13747  1.0000
  H   H17       1.0  0.00777  0.11848  0.99645  1.0000
  H   H18       1.0  0.99223  0.88152  0.00354  1.0000
  H   H19       1.0  0.12062  0.34406  0.04623  1.0000
  H   H20       1.0  0.87938  0.65594  0.95377  1.0000
  H   H21       1.0  0.78338  0.98679  0.74422  1.0000
  H   H22       1.0  0.21662  0.01320  0.25578  1.0000
  H   H23       1.0  0.63046  0.85177  0.76070  1.0000
  H   H24       1.0  0.36954  0.14823  0.23930  1.0000
  H   H25       1.0  0.22305  0.02794  0.65823  1.0000
  H   H26       1.0  0.77695  0.97206  0.34177  1.0000
  H   H27       1.0  0.38642  0.85248  0.60875  1.0000
  H   H28       1.0  0.61358  0.14752  0.39125  1.0000
  H   H29       1.0  0.76609  0.84257  0.54047  1.0000
  H   H30       1.0  0.23391  0.15743  0.45953  1.0000
  H   H31       1.0  0.85430  0.00986  0.54788  1.0000
  H   H32       1.0  0.14570  0.99015  0.45212  1.0000
  C   C1        1.0  0.52741  0.19803  0.86705  1.0000
  C   C2        1.0  0.47260  0.80196  0.13295  1.0000
  C   C3        1.0  0.47883  0.06791  0.83387  1.0000
  C   C4        1.0  0.52116  0.93209  0.16613  1.0000
  C   C5        1.0  0.29188  0.03512  0.88319  1.0000
  C   C6        1.0  0.70813  0.96488  0.11680  1.0000
  C   C7        1.0  0.15862  0.13585  0.95891  1.0000
  C   C8        1.0  0.84138  0.86415  0.04108  1.0000
  C   C9        1.0  0.21877  0.26300  0.98693  1.0000
  C   C10       1.0  0.78124  0.73700  0.01307  1.0000
  C   C11       1.0  0.62017  0.97381  0.74219  1.0000
  C   C12       1.0  0.37984  0.02619  0.25780  1.0000
  C   C13       1.0  0.35414  0.97738  0.59550  1.0000
  C   C14       1.0  0.64586  0.02262  0.40450  1.0000
  C   C15       1.0  0.71651  0.96803  0.53076  1.0000
  C   C16       1.0  0.28349  0.03197  0.46924  1.0000
  S   S1        1.0  0.15150  0.50183  0.26096  1.0000
  S   S2        1.0  0.84850  0.49817  0.73904  1.0000
  N   N1        1.0  0.40248  0.29218  0.94320  1.0000
  N   N2        1.0  0.59751  0.70782  0.05680  1.0000
  N   N3        1.0  0.54511  0.02640  0.61978  1.0000
  N   N4        1.0  0.45489  0.97361  0.38022  1.0000
  O   O1        1.0  0.60875  0.67193  0.37833  1.0000
  O   O2        1.0  0.39124  0.32807  0.62168  1.0000
  O   O3        1.0  0.82012  0.31842  0.47188  1.0000
  O   O4        1.0  0.17987  0.68159  0.52812  1.0000
  O   O5        1.0  0.68627  0.34097  0.15980  1.0000
  O   O6        1.0  0.31374  0.65902  0.84021  1.0000
  O   O7        1.0  0.02109  0.38926  0.26657  1.0000
  O   O8        1.0  0.97891  0.61074  0.73343  1.0000
  O   O9        1.0  0.03070  0.63866  0.32342  1.0000
  O   O10       1.0  0.96930  0.36134  0.67659  1.0000
  O   O11       1.0  0.35739  0.42884  0.32200  1.0000
  O   O12       1.0  0.64262  0.57116  0.67801  1.0000
  O   O13       1.0  0.19629  0.54811  0.13433  1.0000
  O   O14       1.0  0.80371  0.45189  0.86567  1.0000
