data_image0
_chemical_formula_structural       Al2Cd2B10H36C10N8O20
_chemical_formula_sum              "Al2 Cd2 B10 H36 C10 N8 O20"
_cell_length_a       8.53829
_cell_length_b       8.70732
_cell_length_c       10.5544
_cell_angle_alpha    90
_cell_angle_beta     91.7489
_cell_angle_gamma    89.9999

_space_group_name_H-M_alt    "P 1"
_space_group_IT_number       1

loop_
  _space_group_symop_operation_xyz
  'x, y, z'

loop_
  _atom_site_type_symbol
  _atom_site_label
  _atom_site_symmetry_multiplicity
  _atom_site_fract_x
  _atom_site_fract_y
  _atom_site_fract_z
  _atom_site_occupancy
  Al  Al1       1.0  0.81064  0.26044  0.07052  1.0000
  Al  Al2       1.0  0.31064  0.73956  0.57052  1.0000
  Cd  Cd1       1.0  0.46406  0.26548  0.82350  1.0000
  Cd  Cd2       1.0  0.96406  0.73452  0.32350  1.0000
  B   B1        1.0  0.69960  0.02326  0.89268  1.0000
  B   B2        1.0  0.19960  0.97674  0.39268  1.0000
  B   B3        1.0  0.55820  0.87472  0.72727  1.0000
  B   B4        1.0  0.05820  0.12528  0.22727  1.0000
  B   B5        1.0  0.81105  0.77150  0.82401  1.0000
  B   B6        1.0  0.31105  0.22850  0.32402  1.0000
  B   B7        1.0  0.91803  0.52557  0.91710  1.0000
  B   B8        1.0  0.41803  0.47443  0.41710  1.0000
  B   B9        1.0  0.06568  0.66086  0.75664  1.0000
  B   B10       1.0  0.56568  0.33914  0.25664  1.0000
  H   H1        1.0  0.03647  0.07141  0.72559  1.0000
  H   H2        1.0  0.53647  0.92859  0.22559  1.0000
  H   H3        1.0  0.06893  0.25241  0.80283  1.0000
  H   H4        1.0  0.56893  0.74759  0.30283  1.0000
  H   H5        1.0  0.24913  0.95665  0.85854  1.0000
  H   H6        1.0  0.74913  0.04335  0.35853  1.0000
  H   H7        1.0  0.08403  0.01915  0.94415  1.0000
  H   H8        1.0  0.58403  0.98085  0.44415  1.0000
  H   H9        1.0  0.76834  0.12733  0.66121  1.0000
  H   H10       1.0  0.26834  0.87267  0.16121  1.0000
  H   H11       1.0  0.83359  0.30401  0.72427  1.0000
  H   H12       1.0  0.33359  0.69599  0.22426  1.0000
  H   H13       1.0  0.97003  0.21137  0.52247  1.0000
  H   H14       1.0  0.47002  0.78863  0.02246  1.0000
  H   H15       1.0  0.79017  0.24143  0.43936  1.0000
  H   H16       1.0  0.29016  0.75856  0.93936  1.0000
  H   H17       1.0  0.79712  0.52020  0.51547  1.0000
  H   H18       1.0  0.29712  0.47980  0.01547  1.0000
  H   H19       1.0  0.99205  0.48722  0.57147  1.0000
  H   H20       1.0  0.49205  0.51278  0.07146  1.0000
  H   H21       1.0  0.22439  0.26308  0.62259  1.0000
  H   H22       1.0  0.72439  0.73692  0.12259  1.0000
  H   H23       1.0  0.29634  0.08881  0.64576  1.0000
  H   H24       1.0  0.79634  0.91119  0.14576  1.0000
  H   H25       1.0  0.36299  0.08915  0.02877  1.0000
  H   H26       1.0  0.86299  0.91085  0.52877  1.0000
  H   H27       1.0  0.23415  0.22569  0.02588  1.0000
  H   H28       1.0  0.73415  0.77431  0.52588  1.0000
  H   H29       1.0  0.54674  0.25449  0.56688  1.0000
  H   H30       1.0  0.04674  0.74551  0.06689  1.0000
  H   H31       1.0  0.60503  0.42298  0.61872  1.0000
  H   H32       1.0  0.10503  0.57702  0.11873  1.0000
  H   H33       1.0  0.88046  0.43412  0.30816  1.0000
  H   H34       1.0  0.38046  0.56588  0.80816  1.0000
  H   H35       1.0  0.06555  0.42871  0.36309  1.0000
  H   H36       1.0  0.56555  0.57129  0.86309  1.0000
  C   C1        1.0  0.12473  0.14495  0.77357  1.0000
  C   C2        1.0  0.62473  0.85505  0.27357  1.0000
  C   C3        1.0  0.18508  0.05803  0.89054  1.0000
  C   C4        1.0  0.68507  0.94197  0.39054  1.0000
  C   C5        1.0  0.77281  0.25118  0.64208  1.0000
  C   C6        1.0  0.27281  0.74881  0.14208  1.0000
  C   C7        1.0  0.86198  0.28064  0.52143  1.0000
  C   C8        1.0  0.36197  0.71936  0.02142  1.0000
  C   C9        1.0  0.90175  0.44931  0.50202  1.0000
  C   C10       1.0  0.40175  0.55069  0.00202  1.0000
  N   N1        1.0  0.25485  0.18438  0.69091  1.0000
  N   N2        1.0  0.75485  0.81562  0.19091  1.0000
  N   N3        1.0  0.29445  0.15345  0.96815  1.0000
  N   N4        1.0  0.79445  0.84655  0.46815  1.0000
  N   N5        1.0  0.60994  0.30774  0.63839  1.0000
  N   N6        1.0  0.10994  0.69225  0.13839  1.0000
  N   N7        1.0  0.95851  0.48070  0.37404  1.0000
  N   N8        1.0  0.45850  0.51930  0.87403  1.0000
  O   O1        1.0  0.56958  0.00294  0.80880  1.0000
  O   O2        1.0  0.06959  0.99706  0.30880  1.0000
  O   O3        1.0  0.67154  0.76410  0.73611  1.0000
  O   O4        1.0  0.17154  0.23590  0.23611  1.0000
  O   O5        1.0  0.81146  0.91344  0.90349  1.0000
  O   O6        1.0  0.31146  0.08655  0.40349  1.0000
  O   O7        1.0  0.80360  0.63711  0.91043  1.0000
  O   O8        1.0  0.30360  0.36289  0.41044  1.0000
  O   O9        1.0  0.04940  0.53756  0.84122  1.0000
  O   O10       1.0  0.54940  0.46244  0.34122  1.0000
  O   O11       1.0  0.95269  0.77215  0.74781  1.0000
  O   O12       1.0  0.45268  0.22785  0.24781  1.0000
  O   O13       1.0  0.69614  0.16075  0.95484  1.0000
  O   O14       1.0  0.19614  0.83925  0.45484  1.0000
  O   O15       1.0  0.43550  0.87334  0.64422  1.0000
  O   O16       1.0  0.93550  0.12667  0.14422  1.0000
  O   O17       1.0  0.91417  0.40510  0.99729  1.0000
  O   O18       1.0  0.41417  0.59490  0.49729  1.0000
  O   O19       1.0  0.19740  0.66029  0.68835  1.0000
  O   O20       1.0  0.69740  0.33972  0.18835  1.0000
