data_image0
_chemical_formula_structural       Zn2H36C44N8O8
_chemical_formula_sum              "Zn2 H36 C44 N8 O8"
_cell_length_a       8.57903
_cell_length_b       11.159
_cell_length_c       11.159
_cell_angle_alpha    107.103
_cell_angle_beta     93.5733
_cell_angle_gamma    93.5737

_space_group_name_H-M_alt    "P 1"
_space_group_IT_number       1

loop_
  _space_group_symop_operation_xyz
  'x, y, z'

loop_
  _atom_site_type_symbol
  _atom_site_label
  _atom_site_symmetry_multiplicity
  _atom_site_fract_x
  _atom_site_fract_y
  _atom_site_fract_z
  _atom_site_occupancy
  Zn  Zn1       1.0  0.59686  0.91426  0.30761  1.0000
  Zn  Zn2       1.0  0.09686  0.30761  0.91426  1.0000
  H   H1        1.0  0.10840  0.94047  0.97314  1.0000
  H   H2        1.0  0.60840  0.97313  0.94047  1.0000
  H   H3        1.0  0.02566  0.78159  0.91673  1.0000
  H   H4        1.0  0.52566  0.91673  0.78159  1.0000
  H   H5        1.0  0.88252  0.26687  0.46073  1.0000
  H   H6        1.0  0.38253  0.46073  0.26687  1.0000
  H   H7        1.0  0.17176  0.02198  0.81330  1.0000
  H   H8        1.0  0.67175  0.81330  0.02197  1.0000
  H   H9        1.0  0.30152  0.00880  0.61625  1.0000
  H   H10       1.0  0.80151  0.61625  0.00880  1.0000
  H   H11       1.0  0.17205  0.61165  0.98683  1.0000
  H   H12       1.0  0.67206  0.98683  0.61165  1.0000
  H   H13       1.0  0.04342  0.46704  0.49250  1.0000
  H   H14       1.0  0.54342  0.49250  0.46704  1.0000
  H   H15       1.0  0.74657  0.65934  0.33765  1.0000
  H   H16       1.0  0.24657  0.33766  0.65934  1.0000
  H   H17       1.0  0.18518  0.82825  0.28851  1.0000
  H   H18       1.0  0.68518  0.28851  0.82825  1.0000
  H   H19       1.0  0.37910  0.62280  0.57501  1.0000
  H   H20       1.0  0.87910  0.57501  0.62280  1.0000
  H   H21       1.0  0.86662  0.47817  0.12559  1.0000
  H   H22       1.0  0.36662  0.12558  0.47817  1.0000
  H   H23       1.0  0.37501  0.98866  0.10177  1.0000
  H   H24       1.0  0.87500  0.10177  0.98866  1.0000
  H   H25       1.0  0.42271  0.63800  0.16680  1.0000
  H   H26       1.0  0.92272  0.16680  0.63800  1.0000
  H   H27       1.0  0.70472  0.27681  0.09586  1.0000
  H   H28       1.0  0.20472  0.09586  0.27681  1.0000
  H   H29       1.0  0.25090  0.63493  0.77171  1.0000
  H   H30       1.0  0.75090  0.77171  0.63493  1.0000
  H   H31       1.0  0.95036  0.98672  0.27385  1.0000
  H   H32       1.0  0.45036  0.27385  0.98672  1.0000
  H   H33       1.0  0.13728  0.63221  0.42138  1.0000
  H   H34       1.0  0.63728  0.42138  0.63221  1.0000
  H   H35       1.0  0.15573  0.58499  0.25708  1.0000
  H   H36       1.0  0.65573  0.25708  0.58499  1.0000
  C   C1        1.0  0.20378  0.83019  0.80599  1.0000
  C   C2        1.0  0.70378  0.80598  0.83019  1.0000
  C   C3        1.0  0.13406  0.84289  0.92964  1.0000
  C   C4        1.0  0.63406  0.92964  0.84289  1.0000
  C   C5        1.0  0.87778  0.31377  0.38791  1.0000
  C   C6        1.0  0.37778  0.38791  0.31377  1.0000
  C   C7        1.0  0.34967  0.81513  0.58397  1.0000
  C   C8        1.0  0.84967  0.58397  0.81513  1.0000
  C   C9        1.0  0.21554  0.93409  0.75997  1.0000
  C   C10       1.0  0.71553  0.75996  0.93409  1.0000
  C   C11       1.0  0.28775  0.92677  0.64984  1.0000
  C   C12       1.0  0.78775  0.64984  0.92677  1.0000
  C   C13       1.0  0.25410  0.69189  0.03530  1.0000
  C   C14       1.0  0.75411  0.03530  0.69189  1.0000
  C   C15       1.0  0.96740  0.42725  0.40582  1.0000
  C   C16       1.0  0.46740  0.40582  0.42725  1.0000
  C   C17       1.0  0.83316  0.72650  0.32134  1.0000
  C   C18       1.0  0.33316  0.32134  0.72650  1.0000
  C   C19       1.0  0.78350  0.25916  0.27579  1.0000
  C   C20       1.0  0.28350  0.27579  0.25916  1.0000
  C   C21       1.0  0.96360  0.48773  0.31248  1.0000
  C   C22       1.0  0.46360  0.31248  0.48773  1.0000
  C   C23       1.0  0.05999  0.81774  0.29531  1.0000
  C   C24       1.0  0.55999  0.29532  0.81774  1.0000
  C   C25       1.0  0.33225  0.70957  0.62750  1.0000
  C   C26       1.0  0.83225  0.62750  0.70957  1.0000
  C   C27       1.0  0.86707  0.43388  0.20070  1.0000
  C   C28       1.0  0.36707  0.20070  0.43388  1.0000
  C   C29       1.0  0.35523  0.89029  0.09645  1.0000
  C   C30       1.0  0.85523  0.09645  0.89029  1.0000
  C   C31       1.0  0.37704  0.70594  0.12463  1.0000
  C   C32       1.0  0.87704  0.12462  0.70594  1.0000
  C   C33       1.0  0.44241  0.80950  0.47277  1.0000
  C   C34       1.0  0.94241  0.47277  0.80951  1.0000
  C   C35       1.0  0.69436  0.13313  0.25027  1.0000
  C   C36       1.0  0.19436  0.25028  0.13313  1.0000
  C   C37       1.0  0.77807  0.32086  0.18292  1.0000
  C   C38       1.0  0.27807  0.18292  0.32086  1.0000
  C   C39       1.0  0.26031  0.71703  0.73754  1.0000
  C   C40       1.0  0.76031  0.73754  0.71703  1.0000
  C   C41       1.0  0.94346  0.89488  0.28868  1.0000
  C   C42       1.0  0.44346  0.28868  0.89488  1.0000
  C   C43       1.0  0.07080  0.60410  0.32882  1.0000
  C   C44       1.0  0.57080  0.32882  0.60410  1.0000
  N   N1        1.0  0.98834  0.71160  0.31526  1.0000
  N   N2        1.0  0.48835  0.31526  0.71160  1.0000
  N   N3        1.0  0.24194  0.80943  0.01938  1.0000
  N   N4        1.0  0.74194  0.01938  0.80943  1.0000
  N   N5        1.0  0.43880  0.83026  0.16229  1.0000
  N   N6        1.0  0.93880  0.16229  0.83026  1.0000
  N   N7        1.0  0.80259  0.83676  0.30479  1.0000
  N   N8        1.0  0.30260  0.30479  0.83677  1.0000
  O   O1        1.0  0.47983  0.70643  0.40451  1.0000
  O   O2        1.0  0.97983  0.40451  0.70643  1.0000
  O   O3        1.0  0.48130  0.91862  0.45776  1.0000
  O   O4        1.0  0.98130  0.45776  0.91862  1.0000
  O   O5        1.0  0.68398  0.09088  0.34638  1.0000
  O   O6        1.0  0.18398  0.34638  0.09088  1.0000
  O   O7        1.0  0.63922  0.07446  0.14032  1.0000
  O   O8        1.0  0.13922  0.14032  0.07446  1.0000
