data_image0
_chemical_formula_structural       Zn2P2H16C14S2N2O6
_chemical_formula_sum              "Zn2 P2 H16 C14 S2 N2 O6"
_cell_length_a       5.11115
_cell_length_b       9.35111
_cell_length_c       11.6834
_cell_angle_alpha    66.9908
_cell_angle_beta     84.0215
_cell_angle_gamma    90.275

_space_group_name_H-M_alt    "P 1"
_space_group_IT_number       1

loop_
  _space_group_symop_operation_xyz
  'x, y, z'

loop_
  _atom_site_type_symbol
  _atom_site_label
  _atom_site_symmetry_multiplicity
  _atom_site_fract_x
  _atom_site_fract_y
  _atom_site_fract_z
  _atom_site_occupancy
  Zn  Zn1       1.0  0.73262  0.82612  0.98967  1.0000
  Zn  Zn2       1.0  0.26738  0.17387  0.01034  1.0000
  P   P1        1.0  0.20598  0.79288  0.14517  1.0000
  P   P2        1.0  0.79402  0.20711  0.85483  1.0000
  H   H1        1.0  0.23080  0.55334  0.32369  1.0000
  H   H2        1.0  0.76921  0.44666  0.67631  1.0000
  H   H3        1.0  0.49179  0.69181  0.29906  1.0000
  H   H4        1.0  0.50821  0.30817  0.70094  1.0000
  H   H5        1.0  0.92336  0.68757  0.41988  1.0000
  H   H6        1.0  0.07661  0.31241  0.58012  1.0000
  H   H7        1.0  0.15434  0.85088  0.37509  1.0000
  H   H8        1.0  0.84567  0.14912  0.62490  1.0000
  H   H9        1.0  0.37339  0.53662  0.79724  1.0000
  H   H10       1.0  0.62662  0.46339  0.20276  1.0000
  H   H11       1.0  0.16679  0.61839  0.96249  1.0000
  H   H12       1.0  0.83323  0.38163  0.03750  1.0000
  H   H13       1.0  0.62458  0.87596  0.73484  1.0000
  H   H14       1.0  0.37543  0.12405  0.26516  1.0000
  H   H15       1.0  0.81959  0.81752  0.55480  1.0000
  H   H16       1.0  0.18042  0.18249  0.44520  1.0000
  C   C1        1.0  0.27678  0.67637  0.30316  1.0000
  C   C2        1.0  0.72321  0.32363  0.69685  1.0000
  C   C3        1.0  0.13329  0.72440  0.40264  1.0000
  C   C4        1.0  0.86670  0.27558  0.59737  1.0000
  C   C5        1.0  0.12019  0.67473  0.65918  1.0000
  C   C6        1.0  0.87985  0.32528  0.34083  1.0000
  C   C7        1.0  0.21037  0.61408  0.77811  1.0000
  C   C8        1.0  0.78964  0.38594  0.22189  1.0000
  C   C9        1.0  0.09069  0.65453  0.87219  1.0000
  C   C10       1.0  0.90930  0.34548  0.12781  1.0000
  C   C11       1.0  0.79220  0.80216  0.74380  1.0000
  C   C12       1.0  0.20779  0.19784  0.25619  1.0000
  C   C13       1.0  0.90315  0.77001  0.64335  1.0000
  C   C14       1.0  0.09685  0.22999  0.35665  1.0000
  S   S1        1.0  0.28893  0.62592  0.54385  1.0000
  S   S2        1.0  0.71107  0.37407  0.45616  1.0000
  N   N1        1.0  0.88390  0.74729  0.85650  1.0000
  N   N2        1.0  0.11609  0.25273  0.14350  1.0000
  O   O1        1.0  0.91059  0.76645  0.13978  1.0000
  O   O2        1.0  0.08942  0.23353  0.86022  1.0000
  O   O3        1.0  0.28705  0.95938  0.12638  1.0000
  O   O4        1.0  0.71294  0.04061  0.87361  1.0000
  O   O5        1.0  0.37670  0.73215  0.05806  1.0000
  O   O6        1.0  0.62330  0.26784  0.94194  1.0000
