data_image0
_chemical_formula_structural       Sr6P4H24C8S4O28
_chemical_formula_sum              "Sr6 P4 H24 C8 S4 O28"
_cell_length_a       7.01643
_cell_length_b       9.94743
_cell_length_c       12.6947
_cell_angle_alpha    108.326
_cell_angle_beta     97.5736
_cell_angle_gamma    92.3542

_space_group_name_H-M_alt    "P 1"
_space_group_IT_number       1

loop_
  _space_group_symop_operation_xyz
  'x, y, z'

loop_
  _atom_site_type_symbol
  _atom_site_label
  _atom_site_symmetry_multiplicity
  _atom_site_fract_x
  _atom_site_fract_y
  _atom_site_fract_z
  _atom_site_occupancy
  Sr  Sr1       1.0  0.33546  0.65712  0.06646  1.0000
  Sr  Sr2       1.0  0.66454  0.34289  0.93354  1.0000
  Sr  Sr3       1.0  0.23259  0.01915  0.40799  1.0000
  Sr  Sr4       1.0  0.76740  0.98085  0.59201  1.0000
  Sr  Sr5       1.0  0.89018  0.66433  0.22059  1.0000
  Sr  Sr6       1.0  0.10982  0.33567  0.77941  1.0000
  P   P1        1.0  0.15106  0.34445  0.04364  1.0000
  P   P2        1.0  0.84895  0.65555  0.95635  1.0000
  P   P3        1.0  0.42131  0.71970  0.33878  1.0000
  P   P4        1.0  0.57869  0.28030  0.66122  1.0000
  H   H1        1.0  0.29909  0.68838  0.82403  1.0000
  H   H2        1.0  0.70091  0.31162  0.17597  1.0000
  H   H3        1.0  0.39678  0.54112  0.80538  1.0000
  H   H4        1.0  0.60322  0.45888  0.19461  1.0000
  H   H5        1.0  0.97772  0.89355  0.15463  1.0000
  H   H6        1.0  0.02228  0.10645  0.84537  1.0000
  H   H7        1.0  0.85940  0.01642  0.22105  1.0000
  H   H8        1.0  0.14060  0.98358  0.77895  1.0000
  H   H9        1.0  0.36505  0.33053  0.20003  1.0000
  H   H10       1.0  0.63495  0.66947  0.79997  1.0000
  H   H11       1.0  0.13325  0.25427  0.19637  1.0000
  H   H12       1.0  0.86675  0.74574  0.80363  1.0000
  H   H13       1.0  0.37333  0.10470  0.01384  1.0000
  H   H14       1.0  0.62667  0.89530  0.98616  1.0000
  H   H15       1.0  0.18754  0.02858  0.06562  1.0000
  H   H16       1.0  0.81246  0.97142  0.93439  1.0000
  H   H17       1.0  0.26764  0.50705  0.35871  1.0000
  H   H18       1.0  0.73235  0.49295  0.64129  1.0000
  H   H19       1.0  0.49416  0.56802  0.44493  1.0000
  H   H20       1.0  0.50584  0.43197  0.55507  1.0000
  H   H21       1.0  0.34003  0.76350  0.57958  1.0000
  H   H22       1.0  0.65997  0.23650  0.42042  1.0000
  H   H23       1.0  0.24499  0.58858  0.56480  1.0000
  H   H24       1.0  0.75501  0.41142  0.43520  1.0000
  C   C1        1.0  0.24459  0.25868  0.14396  1.0000
  C   C2        1.0  0.75541  0.74132  0.85604  1.0000
  C   C3        1.0  0.30782  0.11165  0.08905  1.0000
  C   C4        1.0  0.69218  0.88836  0.91096  1.0000
  C   C5        1.0  0.35519  0.60242  0.41611  1.0000
  C   C6        1.0  0.64480  0.39758  0.58389  1.0000
  C   C7        1.0  0.25956  0.66635  0.52045  1.0000
  C   C8        1.0  0.74043  0.33364  0.47955  1.0000
  S   S1        1.0  0.48630  0.06069  0.17992  1.0000
  S   S2        1.0  0.51370  0.93931  0.82008  1.0000
  S   S3        1.0  0.01570  0.70702  0.49298  1.0000
  S   S4        1.0  0.98430  0.29298  0.50702  1.0000
  O   O1        1.0  0.08542  0.48603  0.11226  1.0000
  O   O2        1.0  0.91457  0.51397  0.88774  1.0000
  O   O3        1.0  0.31353  0.37568  0.97939  1.0000
  O   O4        1.0  0.68647  0.62432  0.02061  1.0000
  O   O5        1.0  0.98705  0.24311  0.95856  1.0000
  O   O6        1.0  0.01296  0.75690  0.04144  1.0000
  O   O7        1.0  0.67512  0.13484  0.18229  1.0000
  O   O8        1.0  0.32489  0.86516  0.81772  1.0000
  O   O9        1.0  0.42623  0.10390  0.29153  1.0000
  O   O10       1.0  0.57378  0.89610  0.70847  1.0000
  O   O11       1.0  0.48949  0.90582  0.13071  1.0000
  O   O12       1.0  0.51051  0.09419  0.86929  1.0000
  O   O13       1.0  0.52980  0.85460  0.42495  1.0000
  O   O14       1.0  0.47021  0.14540  0.57505  1.0000
  O   O15       1.0  0.23895  0.76112  0.27705  1.0000
  O   O16       1.0  0.76105  0.23888  0.72295  1.0000
  O   O17       1.0  0.54004  0.63543  0.24920  1.0000
  O   O18       1.0  0.45996  0.36457  0.75080  1.0000
  O   O19       1.0  0.01896  0.84191  0.46276  1.0000
  O   O20       1.0  0.98104  0.15809  0.53724  1.0000
  O   O21       1.0  0.92768  0.73029  0.59489  1.0000
  O   O22       1.0  0.07232  0.26971  0.40511  1.0000
  O   O23       1.0  0.92020  0.58787  0.39592  1.0000
  O   O24       1.0  0.07980  0.41213  0.60407  1.0000
  O   O25       1.0  0.30695  0.60303  0.84810  1.0000
  O   O26       1.0  0.69305  0.39697  0.15190  1.0000
  O   O27       1.0  0.95168  0.94789  0.23175  1.0000
  O   O28       1.0  0.04832  0.05211  0.76825  1.0000
