data_image0
_chemical_formula_structural       Dy4Ag2H32C44N6O32
_chemical_formula_sum              "Dy4 Ag2 H32 C44 N6 O32"
_cell_length_a       11.2639
_cell_length_b       11.4484
_cell_length_c       12.5163
_cell_angle_alpha    102.799
_cell_angle_beta     114.794
_cell_angle_gamma    102.324

_space_group_name_H-M_alt    "P 1"
_space_group_IT_number       1

loop_
  _space_group_symop_operation_xyz
  'x, y, z'

loop_
  _atom_site_type_symbol
  _atom_site_label
  _atom_site_symmetry_multiplicity
  _atom_site_fract_x
  _atom_site_fract_y
  _atom_site_fract_z
  _atom_site_occupancy
  Dy  Dy1       1.0  0.74721  0.49332  0.88548  1.0000
  Dy  Dy2       1.0  0.25279  0.50668  0.11452  1.0000
  Dy  Dy3       1.0  0.23824  0.47916  0.60444  1.0000
  Dy  Dy4       1.0  0.76176  0.52084  0.39556  1.0000
  Ag  Ag1       1.0  0.91145  0.26879  0.18708  1.0000
  Ag  Ag2       1.0  0.08856  0.73121  0.81292  1.0000
  H   H1        1.0  0.42013  0.07398  0.46850  1.0000
  H   H2        1.0  0.57987  0.92602  0.53151  1.0000
  H   H3        1.0  0.32958  0.84214  0.32943  1.0000
  H   H4        1.0  0.67042  0.15787  0.67057  1.0000
  H   H5        1.0  0.92396  0.87319  0.15083  1.0000
  H   H6        1.0  0.07604  0.12681  0.84917  1.0000
  H   H7        1.0  0.02998  0.10324  0.29716  1.0000
  H   H8        1.0  0.97002  0.89677  0.70284  1.0000
  H   H9        1.0  0.45671  0.99535  0.25501  1.0000
  H   H10       1.0  0.54329  0.00464  0.74499  1.0000
  H   H11       1.0  0.62715  0.21977  0.36593  1.0000
  H   H12       1.0  0.37284  0.78023  0.63406  1.0000
  H   H13       1.0  0.95707  0.06359  0.44929  1.0000
  H   H14       1.0  0.04293  0.93641  0.55071  1.0000
  H   H15       1.0  0.77251  0.84291  0.33701  1.0000
  H   H16       1.0  0.22749  0.15709  0.66300  1.0000
  H   H17       1.0  0.91926  0.06844  0.98184  1.0000
  H   H18       1.0  0.08074  0.93155  0.01816  1.0000
  H   H19       1.0  0.78843  0.83789  0.84178  1.0000
  H   H20       1.0  0.21156  0.16210  0.15821  1.0000
  H   H21       1.0  0.51238  0.83027  0.99825  1.0000
  H   H22       1.0  0.48762  0.16973  0.00175  1.0000
  H   H23       1.0  0.65860  0.05819  0.13764  1.0000
  H   H24       1.0  0.34140  0.94180  0.86236  1.0000
  H   H25       1.0  0.44719  0.35634  0.59373  1.0000
  H   H26       1.0  0.55281  0.64366  0.40628  1.0000
  H   H27       1.0  0.29803  0.24896  0.49293  1.0000
  H   H28       1.0  0.70196  0.75104  0.50707  1.0000
  H   H29       1.0  0.49894  0.24347  0.78691  1.0000
  H   H30       1.0  0.50107  0.75652  0.21309  1.0000
  H   H31       1.0  0.46091  0.36589  0.82183  1.0000
  H   H32       1.0  0.53909  0.63411  0.17817  1.0000
  C   C1        1.0  0.31060  0.02558  0.39683  1.0000
  C   C2        1.0  0.68940  0.97442  0.60318  1.0000
  C   C3        1.0  0.26123  0.89832  0.31991  1.0000
  C   C4        1.0  0.73877  0.10169  0.68010  1.0000
  C   C5        1.0  0.12057  0.84237  0.22775  1.0000
  C   C6        1.0  0.87944  0.15764  0.77225  1.0000
  C   C7        1.0  0.03436  0.91547  0.22031  1.0000
  C   C8        1.0  0.96564  0.08453  0.77970  1.0000
  C   C9        1.0  0.09289  0.04196  0.30142  1.0000
  C   C10       1.0  0.90711  0.95805  0.69859  1.0000
  C   C11       1.0  0.06428  0.70776  0.13517  1.0000
  C   C12       1.0  0.93573  0.29225  0.86483  1.0000
  C   C13       1.0  0.56880  0.01411  0.30026  1.0000
  C   C14       1.0  0.43120  0.98589  0.69974  1.0000
  C   C15       1.0  0.66315  0.13877  0.36120  1.0000
  C   C16       1.0  0.33684  0.86122  0.63880  1.0000
  C   C17       1.0  0.80578  0.15779  0.41526  1.0000
  C   C18       1.0  0.19422  0.84221  0.58474  1.0000
  C   C19       1.0  0.84666  0.05060  0.40759  1.0000
  C   C20       1.0  0.15334  0.94940  0.59241  1.0000
  C   C21       1.0  0.74502  0.92920  0.34535  1.0000
  C   C22       1.0  0.25498  0.07080  0.65465  1.0000
  C   C23       1.0  0.91262  0.29079  0.47538  1.0000
  C   C24       1.0  0.08737  0.70921  0.52462  1.0000
  C   C25       1.0  0.82910  0.01197  0.98312  1.0000
  C   C26       1.0  0.17090  0.98803  0.01688  1.0000
  C   C27       1.0  0.75578  0.88496  0.90486  1.0000
  C   C28       1.0  0.24422  0.11504  0.09514  1.0000
  C   C29       1.0  0.63866  0.81819  0.90813  1.0000
  C   C30       1.0  0.36134  0.18181  0.09187  1.0000
  C   C31       1.0  0.60192  0.88053  0.99240  1.0000
  C   C32       1.0  0.39809  0.11947  0.00760  1.0000
  C   C33       1.0  0.68277  0.00640  0.06979  1.0000
  C   C34       1.0  0.31723  0.99360  0.93021  1.0000
  C   C35       1.0  0.55206  0.68281  0.82168  1.0000
  C   C36       1.0  0.44794  0.31719  0.17831  1.0000
  C   C37       1.0  0.81276  0.55611  0.67448  1.0000
  C   C38       1.0  0.18725  0.44389  0.32551  1.0000
  C   C39       1.0  0.67344  0.44350  0.59165  1.0000
  C   C40       1.0  0.32657  0.55650  0.40835  1.0000
  C   C41       1.0  0.79956  0.47014  0.14898  1.0000
  C   C42       1.0  0.20044  0.52986  0.85102  1.0000
  C   C43       1.0  0.71455  0.56043  0.13288  1.0000
  C   C44       1.0  0.28546  0.43957  0.86713  1.0000
  N   N1        1.0  0.22876  0.09694  0.38748  1.0000
  N   N2        1.0  0.77123  0.90307  0.61252  1.0000
  N   N3        1.0  0.60795  0.91102  0.29206  1.0000
  N   N4        1.0  0.39205  0.08897  0.70794  1.0000
  N   N5        1.0  0.79412  0.07227  0.06502  1.0000
  N   N6        1.0  0.20588  0.92773  0.93498  1.0000
  O   O1        1.0  0.94011  0.66897  0.04679  1.0000
  O   O2        1.0  0.05989  0.33103  0.95321  1.0000
  O   O3        1.0  0.14721  0.64586  0.15356  1.0000
  O   O4        1.0  0.85281  0.35415  0.84645  1.0000
  O   O5        1.0  0.04020  0.30209  0.53523  1.0000
  O   O6        1.0  0.95980  0.69791  0.46477  1.0000
  O   O7        1.0  0.86807  0.38147  0.46024  1.0000
  O   O8        1.0  0.13192  0.61852  0.53975  1.0000
  O   O9        1.0  0.42146  0.65467  0.77389  1.0000
  O   O10       1.0  0.57854  0.34533  0.22611  1.0000
  O   O11       1.0  0.61433  0.60833  0.80109  1.0000
  O   O12       1.0  0.38566  0.39167  0.19890  1.0000
  O   O13       1.0  0.86413  0.59277  0.79248  1.0000
  O   O14       1.0  0.13587  0.40723  0.20753  1.0000
  O   O15       1.0  0.87137  0.60669  0.62036  1.0000
  O   O16       1.0  0.12864  0.39330  0.37964  1.0000
  O   O17       1.0  0.62288  0.39184  0.65046  1.0000
  O   O18       1.0  0.37712  0.60816  0.34954  1.0000
  O   O19       1.0  0.62347  0.41251  0.47443  1.0000
  O   O20       1.0  0.37653  0.58749  0.52557  1.0000
  O   O21       1.0  0.84126  0.44562  0.25014  1.0000
  O   O22       1.0  0.15874  0.55439  0.74986  1.0000
  O   O23       1.0  0.81983  0.42267  0.05976  1.0000
  O   O24       1.0  0.18017  0.57732  0.94024  1.0000
  O   O25       1.0  0.68776  0.59851  0.22127  1.0000
  O   O26       1.0  0.31225  0.40150  0.77873  1.0000
  O   O27       1.0  0.67677  0.58686  0.03423  1.0000
  O   O28       1.0  0.32323  0.41315  0.96577  1.0000
  O   O29       1.0  0.34523  0.33563  0.56182  1.0000
  O   O30       1.0  0.65477  0.66437  0.43818  1.0000
  O   O31       1.0  0.54306  0.33843  0.83620  1.0000
  O   O32       1.0  0.45694  0.66157  0.16380  1.0000
