data_image0
_chemical_formula_structural       Cd2H16C16S4N4Cl4
_chemical_formula_sum              "Cd2 H16 C16 S4 N4 Cl4"
_cell_length_a       6.98968
_cell_length_b       9.30015
_cell_length_c       10.3035
_cell_angle_alpha    111.687
_cell_angle_beta     106.217
_cell_angle_gamma    94.1808

_space_group_name_H-M_alt    "P 1"
_space_group_IT_number       1

loop_
  _space_group_symop_operation_xyz
  'x, y, z'

loop_
  _atom_site_type_symbol
  _atom_site_label
  _atom_site_symmetry_multiplicity
  _atom_site_fract_x
  _atom_site_fract_y
  _atom_site_fract_z
  _atom_site_occupancy
  Cd  Cd1       1.0  0.75095  0.91651  0.52327  1.0000
  Cd  Cd2       1.0  0.24905  0.08349  0.47673  1.0000
  H   H1        1.0  0.90885  0.67364  0.21155  1.0000
  H   H2        1.0  0.09114  0.32635  0.78845  1.0000
  H   H3        1.0  0.64113  0.64328  0.14675  1.0000
  H   H4        1.0  0.35887  0.35671  0.85325  1.0000
  H   H5        1.0  0.76469  0.48264  0.07960  1.0000
  H   H6        1.0  0.23530  0.51736  0.92039  1.0000
  H   H7        1.0  0.74190  0.32481  0.51227  1.0000
  H   H8        1.0  0.25810  0.67519  0.48773  1.0000
  H   H9        1.0  0.76812  0.49068  0.77572  1.0000
  H   H10       1.0  0.23188  0.50932  0.22428  1.0000
  H   H11       1.0  0.54717  0.06168  0.86486  1.0000
  H   H12       1.0  0.45284  0.93833  0.13514  1.0000
  H   H13       1.0  0.81039  0.13427  0.91813  1.0000
  H   H14       1.0  0.18961  0.86574  0.08187  1.0000
  H   H15       1.0  0.71416  0.07515  0.03817  1.0000
  H   H16       1.0  0.28585  0.92486  0.96183  1.0000
  C   C1        1.0  0.76918  0.58676  0.17691  1.0000
  C   C2        1.0  0.23081  0.41323  0.82308  1.0000
  C   C3        1.0  0.76044  0.54316  0.30041  1.0000
  C   C4        1.0  0.23956  0.45684  0.69959  1.0000
  C   C5        1.0  0.74925  0.40983  0.46338  1.0000
  C   C6        1.0  0.25076  0.59017  0.53663  1.0000
  C   C7        1.0  0.74841  0.56897  0.52292  1.0000
  C   C8        1.0  0.25159  0.43103  0.47708  1.0000
  C   C9        1.0  0.74378  0.66113  0.67063  1.0000
  C   C10       1.0  0.25622  0.33888  0.32937  1.0000
  C   C11       1.0  0.75831  0.60884  0.78134  1.0000
  C   C12       1.0  0.24169  0.39116  0.21866  1.0000
  C   C13       1.0  0.72668  0.88513  0.84765  1.0000
  C   C14       1.0  0.27332  0.11487  0.15235  1.0000
  C   C15       1.0  0.69871  0.04852  0.92251  1.0000
  C   C16       1.0  0.30129  0.95148  0.07748  1.0000
  S   S1        1.0  0.75934  0.35386  0.28906  1.0000
  S   S2        1.0  0.24066  0.64614  0.71094  1.0000
  S   S3        1.0  0.75154  0.75865  0.93655  1.0000
  S   S4        1.0  0.24846  0.24135  0.06345  1.0000
  N   N1        1.0  0.75509  0.64253  0.42936  1.0000
  N   N2        1.0  0.24490  0.35747  0.57064  1.0000
  N   N3        1.0  0.72692  0.81764  0.71033  1.0000
  N   N4        1.0  0.27308  0.18236  0.28967  1.0000
  Cl  Cl1       1.0  0.84862  0.00551  0.33048  1.0000
  Cl  Cl2       1.0  0.15138  0.99448  0.66952  1.0000
  Cl  Cl3       1.0  0.64914  0.18263  0.65289  1.0000
  Cl  Cl4       1.0  0.35087  0.81737  0.34711  1.0000
