data_image0
_chemical_formula_structural       K4H16C24S4N4O20
_chemical_formula_sum              "K4 H16 C24 S4 N4 O20"
_cell_length_a       7.21084
_cell_length_b       7.97575
_cell_length_c       15.1242
_cell_angle_alpha    89.9998
_cell_angle_beta     99.9802
_cell_angle_gamma    90.0001

_space_group_name_H-M_alt    "P 1"
_space_group_IT_number       1

loop_
  _space_group_symop_operation_xyz
  'x, y, z'

loop_
  _atom_site_type_symbol
  _atom_site_label
  _atom_site_symmetry_multiplicity
  _atom_site_fract_x
  _atom_site_fract_y
  _atom_site_fract_z
  _atom_site_occupancy
  K   K1        1.0  0.14992  0.34348  0.56252  1.0000
  K   K2        1.0  0.35009  0.84347  0.43748  1.0000
  K   K3        1.0  0.85009  0.65653  0.43748  1.0000
  K   K4        1.0  0.64991  0.15653  0.56252  1.0000
  H   H1        1.0  0.33263  0.02770  0.95715  1.0000
  H   H2        1.0  0.16737  0.52769  0.04285  1.0000
  H   H3        1.0  0.66738  0.97230  0.04285  1.0000
  H   H4        1.0  0.83263  0.47230  0.95715  1.0000
  H   H5        1.0  0.40675  0.72611  0.98819  1.0000
  H   H6        1.0  0.09325  0.22611  0.01181  1.0000
  H   H7        1.0  0.59325  0.27389  0.01181  1.0000
  H   H8        1.0  0.90675  0.77389  0.98820  1.0000
  H   H9        1.0  0.36974  0.52311  0.85932  1.0000
  H   H10       1.0  0.13026  0.02311  0.14068  1.0000
  H   H11       1.0  0.63026  0.47689  0.14068  1.0000
  H   H12       1.0  0.86974  0.97688  0.85932  1.0000
  H   H13       1.0  0.27300  0.62584  0.70398  1.0000
  H   H14       1.0  0.22700  0.12584  0.29601  1.0000
  H   H15       1.0  0.72700  0.37416  0.29601  1.0000
  H   H16       1.0  0.77301  0.87416  0.70399  1.0000
  C   C1        1.0  0.26729  0.99353  0.81449  1.0000
  C   C2        1.0  0.23271  0.49353  0.18551  1.0000
  C   C3        1.0  0.73271  0.00647  0.18551  1.0000
  C   C4        1.0  0.76729  0.50647  0.81449  1.0000
  C   C5        1.0  0.32247  0.93740  0.90262  1.0000
  C   C6        1.0  0.17753  0.43739  0.09738  1.0000
  C   C7        1.0  0.67753  0.06260  0.09738  1.0000
  C   C8        1.0  0.82247  0.56260  0.90262  1.0000
  C   C9        1.0  0.36327  0.76879  0.91932  1.0000
  C   C10       1.0  0.13673  0.26878  0.08068  1.0000
  C   C11       1.0  0.63673  0.23122  0.08068  1.0000
  C   C12       1.0  0.86327  0.73121  0.91932  1.0000
  C   C13       1.0  0.34397  0.65647  0.84758  1.0000
  C   C14       1.0  0.15603  0.15647  0.15242  1.0000
  C   C15       1.0  0.65603  0.34353  0.15241  1.0000
  C   C16       1.0  0.84398  0.84352  0.84759  1.0000
  C   C17       1.0  0.28871  0.71346  0.75980  1.0000
  C   C18       1.0  0.21129  0.21345  0.24020  1.0000
  C   C19       1.0  0.71129  0.28655  0.24020  1.0000
  C   C20       1.0  0.78871  0.78654  0.75980  1.0000
  C   C21       1.0  0.25131  0.88288  0.74104  1.0000
  C   C22       1.0  0.24870  0.38288  0.25896  1.0000
  C   C23       1.0  0.74870  0.11712  0.25896  1.0000
  C   C24       1.0  0.75131  0.61712  0.74104  1.0000
  S   S1        1.0  0.16615  0.93559  0.62472  1.0000
  S   S2        1.0  0.33385  0.43559  0.37528  1.0000
  S   S3        1.0  0.83385  0.06441  0.37529  1.0000
  S   S4        1.0  0.66615  0.56441  0.62471  1.0000
  N   N1        1.0  0.22600  0.17336  0.80514  1.0000
  N   N2        1.0  0.27399  0.67336  0.19486  1.0000
  N   N3        1.0  0.77400  0.82664  0.19486  1.0000
  N   N4        1.0  0.72600  0.32664  0.80514  1.0000
  O   O1        1.0  0.15363  0.24090  0.86526  1.0000
  O   O2        1.0  0.34637  0.74090  0.13474  1.0000
  O   O3        1.0  0.84637  0.75910  0.13474  1.0000
  O   O4        1.0  0.65363  0.25910  0.86526  1.0000
  O   O5        1.0  0.26904  0.25002  0.74068  1.0000
  O   O6        1.0  0.23095  0.75002  0.25932  1.0000
  O   O7        1.0  0.73095  0.74998  0.25932  1.0000
  O   O8        1.0  0.76904  0.24998  0.74068  1.0000
  O   O9        1.0  0.99988  0.04075  0.62595  1.0000
  O   O10       1.0  0.50012  0.54075  0.37405  1.0000
  O   O11       1.0  0.00012  0.95925  0.37405  1.0000
  O   O12       1.0  0.49988  0.45925  0.62595  1.0000
  O   O13       1.0  0.31918  0.02615  0.59230  1.0000
  O   O14       1.0  0.18082  0.52615  0.40769  1.0000
  O   O15       1.0  0.68082  0.97385  0.40770  1.0000
  O   O16       1.0  0.81918  0.47385  0.59231  1.0000
  O   O17       1.0  0.12488  0.77432  0.57945  1.0000
  O   O18       1.0  0.37512  0.27431  0.42055  1.0000
  O   O19       1.0  0.87512  0.22569  0.42055  1.0000
  O   O20       1.0  0.62488  0.72569  0.57945  1.0000
