data_image0
_chemical_formula_structural       Zn6P4H40C44O28
_chemical_formula_sum              "Zn6 P4 H40 C44 O28"
_cell_length_a       8.91218
_cell_length_b       11.2107
_cell_length_c       14.7456
_cell_angle_alpha    112.325
_cell_angle_beta     105.189
_cell_angle_gamma    90.0037

_space_group_name_H-M_alt    "P 1"
_space_group_IT_number       1

loop_
  _space_group_symop_operation_xyz
  'x, y, z'

loop_
  _atom_site_type_symbol
  _atom_site_label
  _atom_site_symmetry_multiplicity
  _atom_site_fract_x
  _atom_site_fract_y
  _atom_site_fract_z
  _atom_site_occupancy
  Zn  Zn1       1.0  0.75002  0.68036  0.00000  1.0000
  Zn  Zn2       1.0  0.24998  0.31964  1.00000  1.0000
  Zn  Zn3       1.0  0.57331  0.90148  0.09707  1.0000
  Zn  Zn4       1.0  0.92666  0.80449  0.90293  1.0000
  Zn  Zn5       1.0  0.42669  0.09851  0.90293  1.0000
  Zn  Zn6       1.0  0.07334  0.19551  0.09707  1.0000
  P   P1        1.0  0.57049  0.82039  0.86071  1.0000
  P   P2        1.0  0.92953  0.95960  0.13934  1.0000
  P   P3        1.0  0.42951  0.17961  0.13929  1.0000
  P   P4        1.0  0.07047  0.04040  0.86066  1.0000
  H   H1        1.0  0.29743  0.74169  0.79308  1.0000
  H   H2        1.0  0.20261  0.94865  0.20704  1.0000
  H   H3        1.0  0.70257  0.25831  0.20692  1.0000
  H   H4        1.0  0.79739  0.05136  0.79296  1.0000
  H   H5        1.0  0.38128  0.73842  0.69475  1.0000
  H   H6        1.0  0.11867  0.04353  0.30534  1.0000
  H   H7        1.0  0.61872  0.26157  0.30524  1.0000
  H   H8        1.0  0.88133  0.95647  0.69465  1.0000
  H   H9        1.0  0.34132  0.56441  0.86123  1.0000
  H   H10       1.0  0.15885  0.70316  0.13883  1.0000
  H   H11       1.0  0.65868  0.43559  0.13876  1.0000
  H   H12       1.0  0.84115  0.29684  0.86117  1.0000
  H   H13       1.0  0.54054  0.22812  0.69932  1.0000
  H   H14       1.0  0.95954  0.52848  0.30061  1.0000
  H   H15       1.0  0.45946  0.77187  0.30067  1.0000
  H   H16       1.0  0.04046  0.47152  0.69938  1.0000
  H   H17       1.0  0.52205  0.55678  0.61498  1.0000
  H   H18       1.0  0.97790  0.94140  0.38504  1.0000
  H   H19       1.0  0.47795  0.44322  0.38501  1.0000
  H   H20       1.0  0.02211  0.05860  0.61496  1.0000
  H   H21       1.0  0.72964  0.03574  0.48160  1.0000
  H   H22       1.0  0.77034  0.55381  0.51849  1.0000
  H   H23       1.0  0.27036  0.96426  0.51840  1.0000
  H   H24       1.0  0.22966  0.44619  0.48151  1.0000
  H   H25       1.0  0.74824  0.16789  0.44391  1.0000
  H   H26       1.0  0.75154  0.72355  0.55592  1.0000
  H   H27       1.0  0.25177  0.83210  0.55609  1.0000
  H   H28       1.0  0.24846  0.27646  0.44408  1.0000
  H   H29       1.0  0.55453  0.98367  0.30397  1.0000
  H   H30       1.0  0.94512  0.67968  0.69611  1.0000
  H   H31       1.0  0.44547  0.01632  0.69602  1.0000
  H   H32       1.0  0.05488  0.32032  0.30389  1.0000
  H   H33       1.0  0.45964  0.12495  0.35009  1.0000
  H   H34       1.0  0.03994  0.77481  0.64991  1.0000
  H   H35       1.0  0.54036  0.87505  0.64991  1.0000
  H   H36       1.0  0.96006  0.22519  0.35009  1.0000
  H   H37       1.0  0.44179  0.99491  0.38955  1.0000
  H   H38       1.0  0.05817  0.60541  0.61073  1.0000
  H   H39       1.0  0.55821  0.00509  0.61045  1.0000
  H   H40       1.0  0.94183  0.39459  0.38927  1.0000
  C   C1        1.0  0.39942  0.71726  0.76349  1.0000
  C   C2        1.0  0.10061  0.95368  0.23661  1.0000
  C   C3        1.0  0.60058  0.28273  0.23650  1.0000
  C   C4        1.0  0.89939  0.04632  0.76339  1.0000
  C   C5        1.0  0.42909  0.57771  0.74121  1.0000
  C   C6        1.0  0.07100  0.83635  0.25885  1.0000
  C   C7        1.0  0.57090  0.42228  0.25879  1.0000
  C   C8        1.0  0.92900  0.16365  0.74114  1.0000
  C   C9        1.0  0.39757  0.51569  0.80162  1.0000
  C   C10       1.0  0.10255  0.71399  0.19842  1.0000
  C   C11       1.0  0.60243  0.48431  0.19838  1.0000
  C   C12       1.0  0.89746  0.28602  0.80158  1.0000
  C   C13       1.0  0.44042  0.39096  0.78757  1.0000
  C   C14       1.0  0.05970  0.60327  0.21246  1.0000
  C   C15       1.0  0.55957  0.60903  0.21242  1.0000
  C   C16       1.0  0.94030  0.39673  0.78754  1.0000
  C   C17       1.0  0.50951  0.32528  0.71035  1.0000
  C   C18       1.0  0.99058  0.61466  0.28965  1.0000
  C   C19       1.0  0.49049  0.67472  0.28964  1.0000
  C   C20       1.0  0.00943  0.38534  0.71035  1.0000
  C   C21       1.0  0.53656  0.38472  0.64736  1.0000
  C   C22       1.0  0.96346  0.73701  0.35262  1.0000
  C   C23       1.0  0.46343  0.61528  0.35263  1.0000
  C   C24       1.0  0.03655  0.26299  0.64738  1.0000
  C   C25       1.0  0.49905  0.51128  0.66414  1.0000
  C   C26       1.0  0.00099  0.84682  0.33588  1.0000
  C   C27       1.0  0.50094  0.48871  0.33585  1.0000
  C   C28       1.0  0.99901  0.15318  0.66412  1.0000
  C   C29       1.0  0.60109  0.31494  0.56028  1.0000
  C   C30       1.0  0.89891  0.75429  0.43969  1.0000
  C   C31       1.0  0.39890  0.68505  0.43971  1.0000
  C   C32       1.0  0.10109  0.24571  0.56030  1.0000
  C   C33       1.0  0.41229  0.32667  0.85410  1.0000
  C   C34       1.0  0.08778  0.47251  0.14592  1.0000
  C   C35       1.0  0.58770  0.67333  0.14589  1.0000
  C   C36       1.0  0.91221  0.52749  0.85408  1.0000
  C   C37       1.0  0.66755  0.10951  0.45985  1.0000
  C   C38       1.0  0.83235  0.64933  0.54014  1.0000
  C   C39       1.0  0.33245  0.89048  0.54015  1.0000
  C   C40       1.0  0.16765  0.35068  0.45986  1.0000
  C   C41       1.0  0.52187  0.05032  0.37081  1.0000
  C   C42       1.0  0.97791  0.67943  0.62929  1.0000
  C   C43       1.0  0.47814  0.94968  0.62919  1.0000
  C   C44       1.0  0.02209  0.32057  0.37071  1.0000
  O   O1        1.0  0.58109  0.78412  0.95597  1.0000
  O   O2        1.0  0.91898  0.82814  0.04407  1.0000
  O   O3        1.0  0.41891  0.21588  0.04402  1.0000
  O   O4        1.0  0.08102  0.17186  0.95592  1.0000
  O   O5        1.0  0.55867  0.96529  0.89168  1.0000
  O   O6        1.0  0.94131  0.07359  0.10839  1.0000
  O   O7        1.0  0.44132  0.03471  0.10832  1.0000
  O   O8        1.0  0.05870  0.92641  0.89161  1.0000
  O   O9        1.0  0.71085  0.77934  0.81919  1.0000
  O   O10       1.0  0.78913  0.95999  0.18080  1.0000
  O   O11       1.0  0.28915  0.22066  0.18081  1.0000
  O   O12       1.0  0.21088  0.04001  0.81919  1.0000
  O   O13       1.0  0.62406  0.19210  0.55058  1.0000
  O   O14       1.0  0.87593  0.64115  0.44942  1.0000
  O   O15       1.0  0.37594  0.80790  0.44942  1.0000
  O   O16       1.0  0.12407  0.35885  0.55058  1.0000
  O   O17       1.0  0.62767  0.36205  0.50239  1.0000
  O   O18       1.0  0.87236  0.85928  0.49757  1.0000
  O   O19       1.0  0.37232  0.63794  0.49760  1.0000
  O   O20       1.0  0.12763  0.14071  0.50242  1.0000
  O   O21       1.0  0.31707  0.37552  0.90671  1.0000
  O   O22       1.0  0.18292  0.46880  0.09325  1.0000
  O   O23       1.0  0.68293  0.62448  0.09329  1.0000
  O   O24       1.0  0.81708  0.53120  0.90674  1.0000
  O   O25       1.0  0.48477  0.22856  0.85401  1.0000
  O   O26       1.0  0.01536  0.37448  0.14604  1.0000
  O   O27       1.0  0.51523  0.77144  0.14599  1.0000
  O   O28       1.0  0.98464  0.62552  0.85396  1.0000
