data_image0
_chemical_formula_structural       Zn6P4H32C40O28
_chemical_formula_sum              "Zn6 P4 H32 C40 O28"
_cell_length_a       8.9226
_cell_length_b       11.348
_cell_length_c       14.2412
_cell_angle_alpha    113.485
_cell_angle_beta     107.996
_cell_angle_gamma    90.0145

_space_group_name_H-M_alt    "P 1"
_space_group_IT_number       1

loop_
  _space_group_symop_operation_xyz
  'x, y, z'

loop_
  _atom_site_type_symbol
  _atom_site_label
  _atom_site_symmetry_multiplicity
  _atom_site_fract_x
  _atom_site_fract_y
  _atom_site_fract_z
  _atom_site_occupancy
  Zn  Zn1       1.0  0.91612  0.80514  0.89524  1.0000
  Zn  Zn2       1.0  0.58382  0.90996  0.10479  1.0000
  Zn  Zn3       1.0  0.08388  0.19486  0.10476  1.0000
  Zn  Zn4       1.0  0.41618  0.09004  0.89521  1.0000
  Zn  Zn5       1.0  0.75005  0.68648  0.00003  1.0000
  Zn  Zn6       1.0  0.24995  0.31352  0.99997  1.0000
  P   P1        1.0  0.05265  0.03900  0.84768  1.0000
  P   P2        1.0  0.44730  0.19128  0.15218  1.0000
  P   P3        1.0  0.94735  0.96100  0.15232  1.0000
  P   P4        1.0  0.55270  0.80872  0.84782  1.0000
  H   H1        1.0  0.83497  0.30392  0.85463  1.0000
  H   H2        1.0  0.66465  0.44930  0.14510  1.0000
  H   H3        1.0  0.16503  0.69608  0.14537  1.0000
  H   H4        1.0  0.33535  0.55070  0.85489  1.0000
  H   H5        1.0  0.99884  0.06205  0.59514  1.0000
  H   H6        1.0  0.50132  0.46682  0.40479  1.0000
  H   H7        1.0  0.00116  0.93795  0.40486  1.0000
  H   H8        1.0  0.49868  0.53318  0.59521  1.0000
  H   H9        1.0  0.02566  0.47419  0.68772  1.0000
  H   H10       1.0  0.47415  0.78641  0.31227  1.0000
  H   H11       1.0  0.97434  0.52581  0.31229  1.0000
  H   H12       1.0  0.52585  0.21359  0.68773  1.0000
  H   H13       1.0  0.85092  0.96227  0.67199  1.0000
  H   H14       1.0  0.64910  0.29031  0.32784  1.0000
  H   H15       1.0  0.14908  0.03772  0.32801  1.0000
  H   H16       1.0  0.35090  0.70970  0.67216  1.0000
  H   H17       1.0  0.77811  0.06075  0.77811  1.0000
  H   H18       1.0  0.72189  0.28270  0.22172  1.0000
  H   H19       1.0  0.22189  0.93924  0.22189  1.0000
  H   H20       1.0  0.27811  0.71730  0.77828  1.0000
  H   H21       1.0  0.12759  0.44246  0.43189  1.0000
  H   H22       1.0  0.37257  0.01045  0.56833  1.0000
  H   H23       1.0  0.87240  0.55754  0.56811  1.0000
  H   H24       1.0  0.62743  0.98955  0.43167  1.0000
  H   H25       1.0  0.03554  0.27535  0.35238  1.0000
  H   H26       1.0  0.46465  0.92274  0.64770  1.0000
  H   H27       1.0  0.96446  0.72465  0.64762  1.0000
  H   H28       1.0  0.53535  0.07726  0.35230  1.0000
  H   H29       1.0  0.24038  0.31277  0.43726  1.0000
  H   H30       1.0  0.25976  0.87534  0.56294  1.0000
  H   H31       1.0  0.75962  0.68723  0.56274  1.0000
  H   H32       1.0  0.74024  0.12467  0.43706  1.0000
  C   C1        1.0  0.90695  0.53271  0.84880  1.0000
  C   C2        1.0  0.59273  0.68390  0.15108  1.0000
  C   C3        1.0  0.09305  0.46729  0.15120  1.0000
  C   C4        1.0  0.40727  0.31610  0.84892  1.0000
  C   C5        1.0  0.93109  0.40141  0.77902  1.0000
  C   C6        1.0  0.56862  0.62237  0.22085  1.0000
  C   C7        1.0  0.06891  0.59859  0.22099  1.0000
  C   C8        1.0  0.43137  0.37763  0.77915  1.0000
  C   C9        1.0  0.88783  0.29184  0.79237  1.0000
  C   C10       1.0  0.61192  0.49946  0.20745  1.0000
  C   C11       1.0  0.11217  0.70816  0.20763  1.0000
  C   C12       1.0  0.38808  0.50054  0.79255  1.0000
  C   C13       1.0  0.91316  0.16885  0.72720  1.0000
  C   C14       1.0  0.58678  0.44164  0.27266  1.0000
  C   C15       1.0  0.08684  0.83115  0.27280  1.0000
  C   C16       1.0  0.41322  0.55836  0.72734  1.0000
  C   C17       1.0  0.97944  0.15722  0.64703  1.0000
  C   C18       1.0  0.52062  0.51013  0.35290  1.0000
  C   C19       1.0  0.02056  0.84278  0.35297  1.0000
  C   C20       1.0  0.47938  0.48987  0.64710  1.0000
  C   C21       1.0  0.01674  0.26604  0.63070  1.0000
  C   C22       1.0  0.48324  0.63527  0.36927  1.0000
  C   C23       1.0  0.98326  0.73396  0.36930  1.0000
  C   C24       1.0  0.51676  0.36473  0.63073  1.0000
  C   C25       1.0  0.99454  0.38864  0.69798  1.0000
  C   C26       1.0  0.50531  0.69061  0.30197  1.0000
  C   C27       1.0  0.00546  0.61136  0.30202  1.0000
  C   C28       1.0  0.49468  0.30939  0.69803  1.0000
  C   C29       1.0  0.87782  0.05201  0.74679  1.0000
  C   C30       1.0  0.62218  0.30523  0.25305  1.0000
  C   C31       1.0  0.12218  0.94798  0.25321  1.0000
  C   C32       1.0  0.37782  0.69477  0.74695  1.0000
  C   C33       1.0  0.07757  0.24858  0.54044  1.0000
  C   C34       1.0  0.42239  0.70800  0.45954  1.0000
  C   C35       1.0  0.92243  0.75142  0.45955  1.0000
  C   C36       1.0  0.57761  0.29200  0.54046  1.0000
  C   C37       1.0  0.12296  0.34471  0.42887  1.0000
  C   C38       1.0  0.37716  0.91566  0.57125  1.0000
  C   C39       1.0  0.87704  0.65530  0.57113  1.0000
  C   C40       1.0  0.62284  0.08434  0.42875  1.0000
  O   O1        1.0  0.07562  0.16707  0.95433  1.0000
  O   O2        1.0  0.42424  0.21274  0.04556  1.0000
  O   O3        1.0  0.92438  0.83293  0.04567  1.0000
  O   O4        1.0  0.57576  0.78726  0.95444  1.0000
  O   O5        1.0  0.03449  0.92045  0.87039  1.0000
  O   O6        1.0  0.46532  0.04999  0.12933  1.0000
  O   O7        1.0  0.96551  0.07955  0.12961  1.0000
  O   O8        1.0  0.53468  0.95002  0.87067  1.0000
  O   O9        1.0  0.19188  0.03947  0.80667  1.0000
  O   O10       1.0  0.30817  0.23276  0.19328  1.0000
  O   O11       1.0  0.80812  0.96053  0.19333  1.0000
  O   O12       1.0  0.69183  0.76724  0.80672  1.0000
  O   O13       1.0  0.81498  0.53750  0.90347  1.0000
  O   O14       1.0  0.68482  0.63409  0.09649  1.0000
  O   O15       1.0  0.18502  0.46250  0.09653  1.0000
  O   O16       1.0  0.31518  0.36591  0.90351  1.0000
  O   O17       1.0  0.97870  0.62956  0.84830  1.0000
  O   O18       1.0  0.52094  0.78118  0.15153  1.0000
  O   O19       1.0  0.02130  0.37044  0.15170  1.0000
  O   O20       1.0  0.47906  0.21882  0.84848  1.0000
  O   O21       1.0  0.07414  0.35496  0.51950  1.0000
  O   O22       1.0  0.42583  0.83535  0.48055  1.0000
  O   O23       1.0  0.92586  0.64504  0.48050  1.0000
  O   O24       1.0  0.57417  0.16465  0.51945  1.0000
  O   O25       1.0  0.12326  0.14875  0.48907  1.0000
  O   O26       1.0  0.37667  0.65949  0.51086  1.0000
  O   O27       1.0  0.87674  0.85125  0.51093  1.0000
  O   O28       1.0  0.62333  0.34051  0.48914  1.0000
