data_image0
_chemical_formula_structural       Ag4H18C34N6O8F12
_chemical_formula_sum              "Ag4 H18 C34 N6 O8 F12"
_cell_length_a       8.32111
_cell_length_b       10.5321
_cell_length_c       12.4042
_cell_angle_alpha    65.0301
_cell_angle_beta     87.2287
_cell_angle_gamma    70.0688

_space_group_name_H-M_alt    "P 1"
_space_group_IT_number       1

loop_
  _space_group_symop_operation_xyz
  'x, y, z'

loop_
  _atom_site_type_symbol
  _atom_site_label
  _atom_site_symmetry_multiplicity
  _atom_site_fract_x
  _atom_site_fract_y
  _atom_site_fract_z
  _atom_site_occupancy
  Ag  Ag1       1.0  0.75969  0.80791  0.48011  1.0000
  Ag  Ag2       1.0  0.24031  0.19209  0.51989  1.0000
  Ag  Ag3       1.0  0.74326  0.07935  0.49575  1.0000
  Ag  Ag4       1.0  0.25673  0.92065  0.50424  1.0000
  H   H1        1.0  0.01576  0.70892  0.70788  1.0000
  H   H2        1.0  0.98424  0.29109  0.29212  1.0000
  H   H3        1.0  0.15753  0.48564  0.89865  1.0000
  H   H4        1.0  0.84248  0.51436  0.10136  1.0000
  H   H5        1.0  0.13611  0.23845  0.93363  1.0000
  H   H6        1.0  0.86388  0.76155  0.06637  1.0000
  H   H7        1.0  0.96939  0.22826  0.77950  1.0000
  H   H8        1.0  0.03061  0.77174  0.22050  1.0000
  H   H9        1.0  0.86309  0.22182  0.64235  1.0000
  H   H10       1.0  0.13691  0.77818  0.35765  1.0000
  H   H11       1.0  0.53747  0.35849  0.29373  1.0000
  H   H12       1.0  0.46252  0.64151  0.70627  1.0000
  H   H13       1.0  0.39234  0.60169  0.11743  1.0000
  H   H14       1.0  0.60766  0.39831  0.88257  1.0000
  H   H15       1.0  0.40117  0.83908  0.11015  1.0000
  H   H16       1.0  0.59883  0.16092  0.88985  1.0000
  H   H17       1.0  0.55843  0.83548  0.27759  1.0000
  H   H18       1.0  0.44157  0.16452  0.72241  1.0000
  C   C1        1.0  0.00757  0.60056  0.72649  1.0000
  C   C2        1.0  0.99243  0.39944  0.27352  1.0000
  C   C3        1.0  0.08701  0.47527  0.83315  1.0000
  C   C4        1.0  0.91299  0.52473  0.16685  1.0000
  C   C5        1.0  0.07457  0.33922  0.85205  1.0000
  C   C6        1.0  0.92543  0.66078  0.14795  1.0000
  C   C7        1.0  0.98119  0.33357  0.76495  1.0000
  C   C8        1.0  0.01881  0.66643  0.23505  1.0000
  C   C9        1.0  0.90512  0.46362  0.65976  1.0000
  C   C10       1.0  0.09487  0.53638  0.34024  1.0000
  C   C11       1.0  0.80666  0.46419  0.56287  1.0000
  C   C12       1.0  0.19334  0.53581  0.43713  1.0000
  C   C13       1.0  0.79924  0.32898  0.56653  1.0000
  C   C14       1.0  0.20076  0.67102  0.43347  1.0000
  C   C15       1.0  0.63283  0.45896  0.38405  1.0000
  C   C16       1.0  0.36717  0.54105  0.61595  1.0000
  C   C17       1.0  0.54268  0.46296  0.28835  1.0000
  C   C18       1.0  0.45732  0.53705  0.71165  1.0000
  C   C19       1.0  0.46134  0.59845  0.19164  1.0000
  C   C20       1.0  0.53865  0.40155  0.80836  1.0000
  C   C21       1.0  0.46629  0.73359  0.18731  1.0000
  C   C22       1.0  0.53371  0.26641  0.81269  1.0000
  C   C23       1.0  0.55332  0.73271  0.27958  1.0000
  C   C24       1.0  0.44668  0.26729  0.72042  1.0000
  C   C25       1.0  0.63852  0.59566  0.37964  1.0000
  C   C26       1.0  0.36148  0.40434  0.62035  1.0000
  C   C27       1.0  0.85377  0.05078  0.26691  1.0000
  C   C28       1.0  0.14623  0.94921  0.73309  1.0000
  C   C29       1.0  0.91659  0.10654  0.14070  1.0000
  C   C30       1.0  0.08340  0.89346  0.85930  1.0000
  C   C31       1.0  0.61035  0.87428  0.70485  1.0000
  C   C32       1.0  0.38966  0.12572  0.29515  1.0000
  C   C33       1.0  0.59520  0.79512  0.84126  1.0000
  C   C34       1.0  0.40480  0.20487  0.15874  1.0000
  N   N1        1.0  0.91992  0.59502  0.64174  1.0000
  N   N2        1.0  0.08008  0.40498  0.35826  1.0000
  N   N3        1.0  0.72527  0.59436  0.47052  1.0000
  N   N4        1.0  0.27473  0.40564  0.52948  1.0000
  N   N5        1.0  0.71483  0.32588  0.48076  1.0000
  N   N6        1.0  0.28517  0.67412  0.51924  1.0000
  O   O1        1.0  0.87936  0.10922  0.33146  1.0000
  O   O2        1.0  0.12064  0.89078  0.66854  1.0000
  O   O3        1.0  0.79089  0.95007  0.29028  1.0000
  O   O4        1.0  0.20912  0.04992  0.70972  1.0000
  O   O5        1.0  0.67964  0.97167  0.67944  1.0000
  O   O6        1.0  0.32037  0.02832  0.32056  1.0000
  O   O7        1.0  0.56312  0.82664  0.63944  1.0000
  O   O8        1.0  0.43688  0.17337  0.36055  1.0000
  F   F1        1.0  0.90571  0.25157  0.09657  1.0000
  F   F2        1.0  0.09428  0.74843  0.90343  1.0000
  F   F3        1.0  0.08574  0.02102  0.14747  1.0000
  F   F4        1.0  0.91427  0.97899  0.85252  1.0000
  F   F5        1.0  0.82770  0.09469  0.05836  1.0000
  F   F6        1.0  0.17230  0.90530  0.94164  1.0000
  F   F7        1.0  0.75054  0.68489  0.89700  1.0000
  F   F8        1.0  0.24947  0.31510  0.10300  1.0000
  F   F9        1.0  0.47696  0.72609  0.86533  1.0000
  F   F10       1.0  0.52306  0.27389  0.13467  1.0000
  F   F11       1.0  0.55561  0.88833  0.89569  1.0000
  F   F12       1.0  0.44439  0.11165  0.10432  1.0000
