data_image0
_chemical_formula_structural       Cd4H32C24Br8N16
_chemical_formula_sum              "Cd4 H32 C24 Br8 N16"
_cell_length_a       8.34779
_cell_length_b       9.05971
_cell_length_c       13.7597
_cell_angle_alpha    89.9995
_cell_angle_beta     90.0001
_cell_angle_gamma    93.1742

_space_group_name_H-M_alt    "P 1"
_space_group_IT_number       1

loop_
  _space_group_symop_operation_xyz
  'x, y, z'

loop_
  _atom_site_type_symbol
  _atom_site_label
  _atom_site_symmetry_multiplicity
  _atom_site_fract_x
  _atom_site_fract_y
  _atom_site_fract_z
  _atom_site_occupancy
  Cd  Cd1       1.0  0.74939  0.49761  0.00203  1.0000
  Cd  Cd2       1.0  0.75062  0.00238  0.50203  1.0000
  Cd  Cd3       1.0  0.25062  0.50238  0.99797  1.0000
  Cd  Cd4       1.0  0.24938  0.99762  0.49797  1.0000
  H   H1        1.0  0.86974  0.72655  0.81361  1.0000
  H   H2        1.0  0.63024  0.77344  0.31360  1.0000
  H   H3        1.0  0.13025  0.27345  0.18639  1.0000
  H   H4        1.0  0.36975  0.22655  0.68639  1.0000
  H   H5        1.0  0.71685  0.39705  0.60923  1.0000
  H   H6        1.0  0.78315  0.10295  0.10923  1.0000
  H   H7        1.0  0.28315  0.60295  0.39077  1.0000
  H   H8        1.0  0.21686  0.89706  0.89077  1.0000
  H   H9        1.0  0.64993  0.29693  0.79738  1.0000
  H   H10       1.0  0.85007  0.20307  0.29738  1.0000
  H   H11       1.0  0.35007  0.70308  0.20263  1.0000
  H   H12       1.0  0.14994  0.79693  0.70263  1.0000
  H   H13       1.0  0.95569  0.61151  0.20648  1.0000
  H   H14       1.0  0.54431  0.88850  0.70648  1.0000
  H   H15       1.0  0.04430  0.38849  0.79351  1.0000
  H   H16       1.0  0.45570  0.11150  0.29351  1.0000
  H   H17       1.0  0.85144  0.54428  0.39488  1.0000
  H   H18       1.0  0.64856  0.95573  0.89488  1.0000
  H   H19       1.0  0.14856  0.45573  0.60512  1.0000
  H   H20       1.0  0.35143  0.04427  0.10512  1.0000
  H   H21       1.0  0.52076  0.35291  0.19008  1.0000
  H   H22       1.0  0.97924  0.14709  0.69008  1.0000
  H   H23       1.0  0.47924  0.64708  0.80992  1.0000
  H   H24       1.0  0.02076  0.85291  0.30992  1.0000
  H   H25       1.0  0.85086  0.65682  0.63312  1.0000
  H   H26       1.0  0.64914  0.84318  0.13312  1.0000
  H   H27       1.0  0.14914  0.34319  0.36688  1.0000
  H   H28       1.0  0.35086  0.15682  0.86688  1.0000
  H   H29       1.0  0.59291  0.38154  0.37091  1.0000
  H   H30       1.0  0.90709  0.11846  0.87091  1.0000
  H   H31       1.0  0.40709  0.61846  0.62909  1.0000
  H   H32       1.0  0.09291  0.88154  0.12910  1.0000
  C   C1        1.0  0.81715  0.62382  0.78457  1.0000
  C   C2        1.0  0.68283  0.87618  0.28456  1.0000
  C   C3        1.0  0.18284  0.37619  0.21543  1.0000
  C   C4        1.0  0.31716  0.12382  0.71544  1.0000
  C   C5        1.0  0.73795  0.44944  0.67927  1.0000
  C   C6        1.0  0.76205  0.05056  0.17927  1.0000
  C   C7        1.0  0.26205  0.55056  0.32073  1.0000
  C   C8        1.0  0.23796  0.94944  0.82073  1.0000
  C   C9        1.0  0.70617  0.40063  0.77228  1.0000
  C   C10       1.0  0.79382  0.09936  0.27228  1.0000
  C   C11       1.0  0.29383  0.59937  0.22772  1.0000
  C   C12       1.0  0.20618  0.90064  0.72772  1.0000
  C   C13       1.0  0.84995  0.54790  0.23162  1.0000
  C   C14       1.0  0.65005  0.95211  0.73162  1.0000
  C   C15       1.0  0.15004  0.45210  0.76837  1.0000
  C   C16       1.0  0.34995  0.04789  0.26838  1.0000
  C   C17       1.0  0.79996  0.51484  0.32470  1.0000
  C   C18       1.0  0.70004  0.98517  0.82470  1.0000
  C   C19       1.0  0.20004  0.48516  0.67530  1.0000
  C   C20       1.0  0.29996  0.01483  0.17531  1.0000
  C   C21       1.0  0.62427  0.41531  0.21940  1.0000
  C   C22       1.0  0.87573  0.08469  0.71940  1.0000
  C   C23       1.0  0.37573  0.58469  0.78060  1.0000
  C   C24       1.0  0.12426  0.91530  0.28060  1.0000
  Br  Br1       1.0  0.51024  0.72134  0.00772  1.0000
  Br  Br2       1.0  0.98976  0.77866  0.50772  1.0000
  Br  Br3       1.0  0.48976  0.27866  0.99228  1.0000
  Br  Br4       1.0  0.01024  0.22134  0.49228  1.0000
  Br  Br5       1.0  0.99480  0.27934  0.99394  1.0000
  Br  Br6       1.0  0.50519  0.22065  0.49393  1.0000
  Br  Br7       1.0  0.00519  0.72065  0.00607  1.0000
  Br  Br8       1.0  0.49481  0.77935  0.50606  1.0000
  N   N1        1.0  0.75648  0.51027  0.83713  1.0000
  N   N2        1.0  0.74350  0.98972  0.33713  1.0000
  N   N3        1.0  0.24352  0.48974  0.16287  1.0000
  N   N4        1.0  0.25649  0.01027  0.66287  1.0000
  N   N5        1.0  0.80594  0.59081  0.68892  1.0000
  N   N6        1.0  0.69405  0.90919  0.18891  1.0000
  N   N7        1.0  0.19406  0.40920  0.31109  1.0000
  N   N8        1.0  0.30595  0.09081  0.81109  1.0000
  N   N9        1.0  0.73941  0.48505  0.16676  1.0000
  N   N10       1.0  0.76060  0.01495  0.66676  1.0000
  N   N11       1.0  0.26059  0.51495  0.83324  1.0000
  N   N12       1.0  0.23941  0.98504  0.33324  1.0000
  N   N13       1.0  0.65706  0.43234  0.31503  1.0000
  N   N14       1.0  0.84294  0.06767  0.81502  1.0000
  N   N15       1.0  0.34294  0.56767  0.68498  1.0000
  N   N16       1.0  0.15706  0.93233  0.18498  1.0000
