data_image0
_chemical_formula_structural       H12Pb4C18O16
_chemical_formula_sum              "H12 Pb4 C18 O16"
_cell_length_a       7.74244
_cell_length_b       7.64548
_cell_length_c       10.9092
_cell_angle_alpha    69.0855
_cell_angle_beta     69.6747
_cell_angle_gamma    88.0804

_space_group_name_H-M_alt    "P 1"
_space_group_IT_number       1

loop_
  _space_group_symop_operation_xyz
  'x, y, z'

loop_
  _atom_site_type_symbol
  _atom_site_label
  _atom_site_symmetry_multiplicity
  _atom_site_fract_x
  _atom_site_fract_y
  _atom_site_fract_z
  _atom_site_occupancy
  H   H1        1.0  0.27129  0.93747  0.43243  1.0000
  H   H2        1.0  0.72864  0.06256  0.56757  1.0000
  H   H3        1.0  0.35835  0.35248  0.59378  1.0000
  H   H4        1.0  0.64168  0.64750  0.40622  1.0000
  H   H5        1.0  0.92778  0.89309  0.85063  1.0000
  H   H6        1.0  0.07221  0.10692  0.14938  1.0000
  H   H7        1.0  0.50862  0.20856  0.01862  1.0000
  H   H8        1.0  0.49142  0.79141  0.98137  1.0000
  H   H9        1.0  0.52269  0.96201  0.78160  1.0000
  H   H10       1.0  0.47728  0.03798  0.21840  1.0000
  H   H11       1.0  0.41273  0.07892  0.87208  1.0000
  H   H12       1.0  0.58727  0.92106  0.12793  1.0000
  Pb  Pb1       1.0  0.71952  0.49187  0.04853  1.0000
  Pb  Pb2       1.0  0.28050  0.50809  0.95148  1.0000
  Pb  Pb3       1.0  0.76586  0.34955  0.72501  1.0000
  Pb  Pb4       1.0  0.23415  0.65045  0.27498  1.0000
  C   C1        1.0  0.09051  0.89491  0.64309  1.0000
  C   C2        1.0  0.90947  0.10511  0.35691  1.0000
  C   C3        1.0  0.23457  0.99173  0.51677  1.0000
  C   C4        1.0  0.76539  0.00829  0.48323  1.0000
  C   C5        1.0  0.32652  0.15922  0.49715  1.0000
  C   C6        1.0  0.67347  0.84078  0.50285  1.0000
  C   C7        1.0  0.28365  0.22398  0.60809  1.0000
  C   C8        1.0  0.71636  0.77602  0.39191  1.0000
  C   C9        1.0  0.14308  0.12459  0.73624  1.0000
  C   C10       1.0  0.85693  0.87541  0.26376  1.0000
  C   C11       1.0  0.04176  0.96453  0.75202  1.0000
  C   C12       1.0  0.95824  0.03548  0.24799  1.0000
  C   C13       1.0  0.99051  0.71823  0.65978  1.0000
  C   C14       1.0  0.00947  0.28178  0.34022  1.0000
  C   C15       1.0  0.46569  0.27364  0.35693  1.0000
  C   C16       1.0  0.53431  0.72636  0.64307  1.0000
  C   C17       1.0  0.10010  0.19449  0.85524  1.0000
  C   C18       1.0  0.89992  0.80552  0.14476  1.0000
  O   O1        1.0  0.54678  0.34298  0.95484  1.0000
  O   O2        1.0  0.45325  0.65700  0.04517  1.0000
  O   O3        1.0  0.83808  0.65066  0.76601  1.0000
  O   O4        1.0  0.16191  0.34935  0.23399  1.0000
  O   O5        1.0  0.53471  0.02575  0.84424  1.0000
  O   O6        1.0  0.46529  0.97423  0.15575  1.0000
  O   O7        1.0  0.05630  0.64171  0.57009  1.0000
  O   O8        1.0  0.94368  0.35832  0.42990  1.0000
  O   O9        1.0  0.54305  0.19523  0.26910  1.0000
  O   O10       1.0  0.45693  0.80475  0.73090  1.0000
  O   O11       1.0  0.50153  0.44940  0.32754  1.0000
  O   O12       1.0  0.49850  0.55058  0.67247  1.0000
  O   O13       1.0  0.21965  0.18313  0.91262  1.0000
  O   O14       1.0  0.78037  0.81687  0.08738  1.0000
  O   O15       1.0  0.94740  0.26489  0.89104  1.0000
  O   O16       1.0  0.05263  0.73512  0.10896  1.0000
