data_image0
_chemical_formula_structural       Zn4H32C32N24O16
_chemical_formula_sum              "Zn4 H32 C32 N24 O16"
_cell_length_a       8.66725
_cell_length_b       9.89068
_cell_length_c       13.6296
_cell_angle_alpha    89.9999
_cell_angle_beta     90
_cell_angle_gamma    99.215

_space_group_name_H-M_alt    "P 1"
_space_group_IT_number       1

loop_
  _space_group_symop_operation_xyz
  'x, y, z'

loop_
  _atom_site_type_symbol
  _atom_site_label
  _atom_site_symmetry_multiplicity
  _atom_site_fract_x
  _atom_site_fract_y
  _atom_site_fract_z
  _atom_site_occupancy
  Zn  Zn1       1.0  0.29624  0.85532  0.95059  1.0000
  Zn  Zn2       1.0  0.70376  0.64468  0.45059  1.0000
  Zn  Zn3       1.0  0.70376  0.14468  0.04941  1.0000
  Zn  Zn4       1.0  0.29624  0.35532  0.54941  1.0000
  H   H1        1.0  0.94577  0.67370  0.99366  1.0000
  H   H2        1.0  0.05423  0.82630  0.49366  1.0000
  H   H3        1.0  0.05423  0.32630  0.00634  1.0000
  H   H4        1.0  0.94577  0.17370  0.50634  1.0000
  H   H5        1.0  0.22831  0.68680  0.74026  1.0000
  H   H6        1.0  0.77169  0.81320  0.24026  1.0000
  H   H7        1.0  0.77169  0.31320  0.25974  1.0000
  H   H8        1.0  0.22831  0.18680  0.75974  1.0000
  H   H9        1.0  0.86898  0.41277  0.70627  1.0000
  H   H10       1.0  0.13102  0.08723  0.20627  1.0000
  H   H11       1.0  0.13102  0.58724  0.29373  1.0000
  H   H12       1.0  0.86898  0.91276  0.79373  1.0000
  H   H13       1.0  0.05281  0.47584  0.65098  1.0000
  H   H14       1.0  0.94719  0.02416  0.15098  1.0000
  H   H15       1.0  0.94719  0.52416  0.34902  1.0000
  H   H16       1.0  0.05281  0.97584  0.84902  1.0000
  H   H17       1.0  0.67410  0.82141  0.96637  1.0000
  H   H18       1.0  0.32590  0.67859  0.46637  1.0000
  H   H19       1.0  0.32590  0.17859  0.03363  1.0000
  H   H20       1.0  0.67410  0.32141  0.53363  1.0000
  H   H21       1.0  0.27107  0.61038  0.10536  1.0000
  H   H22       1.0  0.72893  0.88962  0.60536  1.0000
  H   H23       1.0  0.72893  0.38962  0.89464  1.0000
  H   H24       1.0  0.27107  0.11038  0.39464  1.0000
  H   H25       1.0  0.60378  0.42218  0.16593  1.0000
  H   H26       1.0  0.39622  0.07782  0.66593  1.0000
  H   H27       1.0  0.39622  0.57782  0.83407  1.0000
  H   H28       1.0  0.60378  0.92218  0.33407  1.0000
  H   H29       1.0  0.40402  0.42344  0.19163  1.0000
  H   H30       1.0  0.59598  0.07656  0.69163  1.0000
  H   H31       1.0  0.59598  0.57656  0.80837  1.0000
  H   H32       1.0  0.40402  0.92344  0.30837  1.0000
  C   C1        1.0  0.98663  0.65591  0.92019  1.0000
  C   C2        1.0  0.01336  0.84409  0.42019  1.0000
  C   C3        1.0  0.01336  0.34409  0.07981  1.0000
  C   C4        1.0  0.98664  0.15591  0.57981  1.0000
  C   C5        1.0  0.13378  0.66454  0.79303  1.0000
  C   C6        1.0  0.86622  0.83546  0.29303  1.0000
  C   C7        1.0  0.86622  0.33546  0.20697  1.0000
  C   C8        1.0  0.13378  0.16454  0.70697  1.0000
  C   C9        1.0  0.95048  0.50570  0.68745  1.0000
  C   C10       1.0  0.04952  0.99430  0.18745  1.0000
  C   C11       1.0  0.04952  0.49430  0.31255  1.0000
  C   C12       1.0  0.95048  0.00570  0.81255  1.0000
  C   C13       1.0  0.87591  0.59781  0.61680  1.0000
  C   C14       1.0  0.12409  0.90219  0.11681  1.0000
  C   C15       1.0  0.12409  0.40218  0.38320  1.0000
  C   C16       1.0  0.87591  0.09782  0.88319  1.0000
  C   C17       1.0  0.59768  0.74813  0.01086  1.0000
  C   C18       1.0  0.40232  0.75187  0.51086  1.0000
  C   C19       1.0  0.40232  0.25187  0.98914  1.0000
  C   C20       1.0  0.59768  0.24813  0.48914  1.0000
  C   C21       1.0  0.39009  0.64448  0.08093  1.0000
  C   C22       1.0  0.60991  0.85552  0.58093  1.0000
  C   C23       1.0  0.60991  0.35551  0.91907  1.0000
  C   C24       1.0  0.39009  0.14449  0.41907  1.0000
  C   C25       1.0  0.51900  0.48814  0.18548  1.0000
  C   C26       1.0  0.48101  0.01186  0.68548  1.0000
  C   C27       1.0  0.48101  0.51186  0.81452  1.0000
  C   C28       1.0  0.51899  0.98814  0.31452  1.0000
  C   C29       1.0  0.55984  0.56373  0.28266  1.0000
  C   C30       1.0  0.44016  0.93627  0.78266  1.0000
  C   C31       1.0  0.44016  0.43627  0.71734  1.0000
  C   C32       1.0  0.55984  0.06373  0.21734  1.0000
  N   N1        1.0  0.00204  0.57636  0.77740  1.0000
  N   N2        1.0  0.99796  0.92364  0.27740  1.0000
  N   N3        1.0  0.99796  0.42364  0.22260  1.0000
  N   N4        1.0  0.00204  0.07636  0.72260  1.0000
  N   N5        1.0  0.90572  0.57120  0.85668  1.0000
  N   N6        1.0  0.09428  0.92880  0.35668  1.0000
  N   N7        1.0  0.09428  0.42880  0.14332  1.0000
  N   N8        1.0  0.90572  0.07120  0.64332  1.0000
  N   N9        1.0  0.12847  0.71621  0.88381  1.0000
  N   N10       1.0  0.87153  0.78379  0.38381  1.0000
  N   N11       1.0  0.87153  0.28379  0.11619  1.0000
  N   N12       1.0  0.12847  0.21621  0.61619  1.0000
  N   N13       1.0  0.51279  0.58689  0.10786  1.0000
  N   N14       1.0  0.48721  0.91311  0.60786  1.0000
  N   N15       1.0  0.48721  0.41311  0.89214  1.0000
  N   N16       1.0  0.51279  0.08689  0.39214  1.0000
  N   N17       1.0  0.64722  0.65287  0.06531  1.0000
  N   N18       1.0  0.35278  0.84713  0.56531  1.0000
  N   N19       1.0  0.35278  0.34713  0.93469  1.0000
  N   N20       1.0  0.64722  0.15287  0.43469  1.0000
  N   N21       1.0  0.43974  0.74666  0.01837  1.0000
  N   N22       1.0  0.56026  0.75334  0.51837  1.0000
  N   N23       1.0  0.56026  0.25334  0.98163  1.0000
  N   N24       1.0  0.43974  0.24666  0.48163  1.0000
  O   O1        1.0  0.80476  0.53063  0.54390  1.0000
  O   O2        1.0  0.19524  0.96937  0.04390  1.0000
  O   O3        1.0  0.19524  0.46937  0.45610  1.0000
  O   O4        1.0  0.80476  0.03063  0.95610  1.0000
  O   O5        1.0  0.89089  0.72332  0.63101  1.0000
  O   O6        1.0  0.10911  0.77668  0.13101  1.0000
  O   O7        1.0  0.10911  0.27668  0.36899  1.0000
  O   O8        1.0  0.89088  0.22332  0.86899  1.0000
  O   O9        1.0  0.64221  0.50552  0.34421  1.0000
  O   O10       1.0  0.35779  0.99448  0.84421  1.0000
  O   O11       1.0  0.35779  0.49448  0.65579  1.0000
  O   O12       1.0  0.64221  0.00552  0.15579  1.0000
  O   O13       1.0  0.51490  0.67583  0.29669  1.0000
  O   O14       1.0  0.48510  0.82417  0.79669  1.0000
  O   O15       1.0  0.48510  0.32417  0.70331  1.0000
  O   O16       1.0  0.51490  0.17583  0.20331  1.0000
