data_image0
_chemical_formula_structural       Zn8P8H32C40N8O24F8
_chemical_formula_sum              "Zn8 P8 H32 C40 N8 O24 F8"
_cell_length_a       8.24478
_cell_length_b       9.81199
_cell_length_c       17.8029
_cell_angle_alpha    90
_cell_angle_beta     101.518
_cell_angle_gamma    90

_space_group_name_H-M_alt    "P 1"
_space_group_IT_number       1

loop_
  _space_group_symop_operation_xyz
  'x, y, z'

loop_
  _atom_site_type_symbol
  _atom_site_label
  _atom_site_symmetry_multiplicity
  _atom_site_fract_x
  _atom_site_fract_y
  _atom_site_fract_z
  _atom_site_occupancy
  Zn  Zn1       1.0  0.26072  0.42443  0.04601  1.0000
  Zn  Zn2       1.0  0.23928  0.92443  0.95399  1.0000
  Zn  Zn3       1.0  0.73928  0.57557  0.95399  1.0000
  Zn  Zn4       1.0  0.76072  0.07557  0.04601  1.0000
  Zn  Zn5       1.0  0.75413  0.56591  0.54422  1.0000
  Zn  Zn6       1.0  0.74587  0.06591  0.45579  1.0000
  Zn  Zn7       1.0  0.24586  0.43409  0.45578  1.0000
  Zn  Zn8       1.0  0.25413  0.93409  0.54421  1.0000
  P   P1        1.0  0.34107  0.62014  0.91851  1.0000
  P   P2        1.0  0.15893  0.12014  0.08149  1.0000
  P   P3        1.0  0.65893  0.37986  0.08149  1.0000
  P   P4        1.0  0.84107  0.87986  0.91851  1.0000
  P   P5        1.0  0.64785  0.86553  0.57894  1.0000
  P   P6        1.0  0.85215  0.36553  0.42107  1.0000
  P   P7        1.0  0.35215  0.13447  0.42106  1.0000
  P   P8        1.0  0.14784  0.63447  0.57893  1.0000
  H   H1        1.0  0.33142  0.21307  0.94547  1.0000
  H   H2        1.0  0.16858  0.71308  0.05453  1.0000
  H   H3        1.0  0.66858  0.78693  0.05453  1.0000
  H   H4        1.0  0.83142  0.28693  0.94547  1.0000
  H   H5        1.0  0.45008  0.36255  0.85910  1.0000
  H   H6        1.0  0.04991  0.86255  0.14090  1.0000
  H   H7        1.0  0.54992  0.63745  0.14090  1.0000
  H   H8        1.0  0.95008  0.13744  0.85910  1.0000
  H   H9        1.0  0.49011  0.00491  0.71986  1.0000
  H   H10       1.0  0.00989  0.50490  0.28014  1.0000
  H   H11       1.0  0.50990  0.99510  0.28014  1.0000
  H   H12       1.0  0.99010  0.49510  0.71986  1.0000
  H   H13       1.0  0.37891  0.87047  0.81479  1.0000
  H   H14       1.0  0.12109  0.37047  0.18521  1.0000
  H   H15       1.0  0.62110  0.12952  0.18521  1.0000
  H   H16       1.0  0.87891  0.62952  0.81479  1.0000
  H   H17       1.0  0.73271  0.27102  0.57132  1.0000
  H   H18       1.0  0.76729  0.77102  0.42869  1.0000
  H   H19       1.0  0.26728  0.72898  0.42868  1.0000
  H   H20       1.0  0.23271  0.22897  0.57132  1.0000
  H   H21       1.0  0.63568  0.11951  0.66324  1.0000
  H   H22       1.0  0.86431  0.61951  0.33676  1.0000
  H   H23       1.0  0.36431  0.88049  0.33676  1.0000
  H   H24       1.0  0.13568  0.38049  0.66324  1.0000
  H   H25       1.0  0.45991  0.47941  0.76420  1.0000
  H   H26       1.0  0.04009  0.97941  0.23580  1.0000
  H   H27       1.0  0.54009  0.52059  0.23580  1.0000
  H   H28       1.0  0.95991  0.02059  0.76420  1.0000
  H   H29       1.0  0.56138  0.61504  0.66696  1.0000
  H   H30       1.0  0.93862  0.11504  0.33304  1.0000
  H   H31       1.0  0.43862  0.38496  0.33304  1.0000
  H   H32       1.0  0.06138  0.88496  0.66696  1.0000
  C   C1        1.0  0.37039  0.17153  0.89526  1.0000
  C   C2        1.0  0.12961  0.67153  0.10474  1.0000
  C   C3        1.0  0.62961  0.82847  0.10474  1.0000
  C   C4        1.0  0.87039  0.32847  0.89526  1.0000
  C   C5        1.0  0.43511  0.25451  0.84558  1.0000
  C   C6        1.0  0.06489  0.75452  0.15442  1.0000
  C   C7        1.0  0.56489  0.74548  0.15442  1.0000
  C   C8        1.0  0.93511  0.24548  0.84558  1.0000
  C   C9        1.0  0.47926  0.19802  0.78012  1.0000
  C   C10       1.0  0.02074  0.69802  0.21988  1.0000
  C   C11       1.0  0.52075  0.80198  0.21988  1.0000
  C   C12       1.0  0.97926  0.30198  0.78012  1.0000
  C   C13       1.0  0.46025  0.05667  0.76952  1.0000
  C   C14       1.0  0.03975  0.55667  0.23048  1.0000
  C   C15       1.0  0.53975  0.94333  0.23048  1.0000
  C   C16       1.0  0.96025  0.44333  0.76952  1.0000
  C   C17       1.0  0.39593  0.98008  0.82213  1.0000
  C   C18       1.0  0.10407  0.48008  0.17787  1.0000
  C   C19       1.0  0.60408  0.01992  0.17787  1.0000
  C   C20       1.0  0.89593  0.51992  0.82213  1.0000
  C   C21       1.0  0.67015  0.31247  0.61468  1.0000
  C   C22       1.0  0.82985  0.81247  0.38532  1.0000
  C   C23       1.0  0.32984  0.68753  0.38532  1.0000
  C   C24       1.0  0.17016  0.18753  0.61468  1.0000
  C   C25       1.0  0.61579  0.22850  0.66711  1.0000
  C   C26       1.0  0.88421  0.72850  0.33289  1.0000
  C   C27       1.0  0.38421  0.77150  0.33289  1.0000
  C   C28       1.0  0.11579  0.27150  0.66711  1.0000
  C   C29       1.0  0.53925  0.28499  0.72353  1.0000
  C   C30       1.0  0.96075  0.78499  0.27647  1.0000
  C   C31       1.0  0.46075  0.71501  0.27647  1.0000
  C   C32       1.0  0.03925  0.21501  0.72353  1.0000
  C   C33       1.0  0.51918  0.42715  0.72296  1.0000
  C   C34       1.0  0.98082  0.92715  0.27704  1.0000
  C   C35       1.0  0.48081  0.57285  0.27704  1.0000
  C   C36       1.0  0.01918  0.07285  0.72296  1.0000
  C   C37       1.0  0.57611  0.50482  0.66848  1.0000
  C   C38       1.0  0.92389  0.00482  0.33152  1.0000
  C   C39       1.0  0.42389  0.49519  0.33152  1.0000
  C   C40       1.0  0.07611  0.99518  0.66848  1.0000
  N   N1        1.0  0.34950  0.03639  0.88364  1.0000
  N   N2        1.0  0.15050  0.53639  0.11636  1.0000
  N   N3        1.0  0.65051  0.96361  0.11636  1.0000
  N   N4        1.0  0.84950  0.46361  0.88364  1.0000
  N   N5        1.0  0.65192  0.44903  0.61546  1.0000
  N   N6        1.0  0.84808  0.94902  0.38454  1.0000
  N   N7        1.0  0.34808  0.55098  0.38454  1.0000
  N   N8        1.0  0.15192  0.05098  0.61546  1.0000
  O   O1        1.0  0.24738  0.50027  0.94391  1.0000
  O   O2        1.0  0.25262  0.00028  0.05609  1.0000
  O   O3        1.0  0.75262  0.49973  0.05609  1.0000
  O   O4        1.0  0.74738  0.99972  0.94391  1.0000
  O   O5        1.0  0.50738  0.58159  0.89961  1.0000
  O   O6        1.0  0.99262  0.08159  0.10039  1.0000
  O   O7        1.0  0.49262  0.41841  0.10039  1.0000
  O   O8        1.0  0.00738  0.91841  0.89961  1.0000
  O   O9        1.0  0.34587  0.74640  0.96876  1.0000
  O   O10       1.0  0.15414  0.24640  0.03124  1.0000
  O   O11       1.0  0.65414  0.25360  0.03124  1.0000
  O   O12       1.0  0.84587  0.75360  0.96876  1.0000
  O   O13       1.0  0.75031  0.48131  0.44518  1.0000
  O   O14       1.0  0.74970  0.98131  0.55482  1.0000
  O   O15       1.0  0.24969  0.51869  0.55482  1.0000
  O   O16       1.0  0.25030  0.01869  0.44518  1.0000
  O   O17       1.0  0.98445  0.58900  0.59811  1.0000
  O   O18       1.0  0.51555  0.08900  0.40189  1.0000
  O   O19       1.0  0.01555  0.41100  0.40189  1.0000
  O   O20       1.0  0.48445  0.91100  0.59811  1.0000
  O   O21       1.0  0.63485  0.73894  0.52827  1.0000
  O   O22       1.0  0.86515  0.23894  0.47173  1.0000
  O   O23       1.0  0.36515  0.26106  0.47173  1.0000
  O   O24       1.0  0.13485  0.76106  0.52827  1.0000
  F   F1        1.0  0.23283  0.66133  0.83664  1.0000
  F   F2        1.0  0.26717  0.16133  0.16336  1.0000
  F   F3        1.0  0.76717  0.33867  0.16336  1.0000
  F   F4        1.0  0.73283  0.83867  0.83664  1.0000
  F   F5        1.0  0.75374  0.82003  0.66066  1.0000
  F   F6        1.0  0.74625  0.32003  0.33934  1.0000
  F   F7        1.0  0.24626  0.17997  0.33934  1.0000
  F   F8        1.0  0.25374  0.67997  0.66066  1.0000
