data_image0
_chemical_formula_structural       Ca2H12C18O14
_chemical_formula_sum              "Ca2 H12 C18 O14"
_cell_length_a       7.01986
_cell_length_b       8.34068
_cell_length_c       9.91372
_cell_angle_alpha    98.2414
_cell_angle_beta     103.333
_cell_angle_gamma    108.74

_space_group_name_H-M_alt    "P 1"
_space_group_IT_number       1

loop_
  _space_group_symop_operation_xyz
  'x, y, z'

loop_
  _atom_site_type_symbol
  _atom_site_label
  _atom_site_symmetry_multiplicity
  _atom_site_fract_x
  _atom_site_fract_y
  _atom_site_fract_z
  _atom_site_occupancy
  Ca  Ca1       1.0  0.30809  0.56991  0.10359  1.0000
  Ca  Ca2       1.0  0.69191  0.43009  0.89641  1.0000
  H   H1        1.0  0.44939  0.70143  0.44726  1.0000
  H   H2        1.0  0.55061  0.29857  0.55274  1.0000
  H   H3        1.0  0.82513  0.08311  0.24548  1.0000
  H   H4        1.0  0.17487  0.91689  0.75452  1.0000
  H   H5        1.0  0.81184  0.09074  0.67768  1.0000
  H   H6        1.0  0.18816  0.90926  0.32232  1.0000
  H   H7        1.0  0.29824  0.49391  0.59083  1.0000
  H   H8        1.0  0.70175  0.50609  0.40918  1.0000
  H   H9        1.0  0.15452  0.78821  0.93034  1.0000
  H   H10       1.0  0.84549  0.21179  0.06966  1.0000
  H   H11       1.0  0.35761  0.91724  0.05450  1.0000
  H   H12       1.0  0.64240  0.08276  0.94550  1.0000
  C   C1        1.0  0.07027  0.29945  0.40604  1.0000
  C   C2        1.0  0.92972  0.70055  0.59395  1.0000
  C   C3        1.0  0.06157  0.30317  0.64990  1.0000
  C   C4        1.0  0.93842  0.69682  0.35010  1.0000
  C   C5        1.0  0.89193  0.14669  0.35840  1.0000
  C   C6        1.0  0.10807  0.85332  0.64160  1.0000
  C   C7        1.0  0.61640  0.90454  0.39893  1.0000
  C   C8        1.0  0.38360  0.09545  0.60107  1.0000
  C   C9        1.0  0.88334  0.14940  0.60151  1.0000
  C   C10       1.0  0.11666  0.85060  0.39850  1.0000
  C   C11       1.0  0.17297  0.37413  0.30112  1.0000
  C   C12       1.0  0.82703  0.62587  0.69889  1.0000
  C   C13       1.0  0.14901  0.38742  0.80617  1.0000
  C   C14       1.0  0.85099  0.61258  0.19383  1.0000
  C   C15       1.0  0.15567  0.37719  0.55241  1.0000
  C   C16       1.0  0.84432  0.62281  0.44759  1.0000
  C   C17       1.0  0.79943  0.07097  0.45567  1.0000
  C   C18       1.0  0.20057  0.92903  0.54433  1.0000
  O   O1        1.0  0.32992  0.51934  0.34445  1.0000
  O   O2        1.0  0.67008  0.48066  0.65556  1.0000
  O   O3        1.0  0.02031  0.39535  0.87661  1.0000
  O   O4        1.0  0.97969  0.60464  0.12339  1.0000
  O   O5        1.0  0.55799  0.82396  0.49692  1.0000
  O   O6        1.0  0.44201  0.17604  0.50308  1.0000
  O   O7        1.0  0.34758  0.44954  0.86507  1.0000
  O   O8        1.0  0.65242  0.55046  0.13493  1.0000
  O   O9        1.0  0.52790  0.84646  0.26866  1.0000
  O   O10       1.0  0.47209  0.15354  0.73134  1.0000
  O   O11       1.0  0.10516  0.29411  0.17009  1.0000
  O   O12       1.0  0.89485  0.70590  0.82991  1.0000
  O   O13       1.0  0.30183  0.80671  0.98412  1.0000
  O   O14       1.0  0.69818  0.19329  0.01588  1.0000
