data_image0
_chemical_formula_structural       Sn4H64C44O24
_chemical_formula_sum              "Sn4 H64 C44 O24"
_cell_length_a       8.21363
_cell_length_b       10.2178
_cell_length_c       15.9864
_cell_angle_alpha    90.0002
_cell_angle_beta     90
_cell_angle_gamma    102.785

_space_group_name_H-M_alt    "P 1"
_space_group_IT_number       1

loop_
  _space_group_symop_operation_xyz
  'x, y, z'

loop_
  _atom_site_type_symbol
  _atom_site_label
  _atom_site_symmetry_multiplicity
  _atom_site_fract_x
  _atom_site_fract_y
  _atom_site_fract_z
  _atom_site_occupancy
  Sn  Sn1       1.0  0.17888  0.14810  0.00392  1.0000
  Sn  Sn2       1.0  0.82112  0.85189  0.50392  1.0000
  Sn  Sn3       1.0  0.95902  0.41995  0.14678  1.0000
  Sn  Sn4       1.0  0.04099  0.58005  0.64678  1.0000
  H   H1        1.0  0.95297  0.78611  0.98701  1.0000
  H   H2        1.0  0.04702  0.21389  0.48701  1.0000
  H   H3        1.0  0.30072  0.53805  0.85073  1.0000
  H   H4        1.0  0.69927  0.46194  0.35074  1.0000
  H   H5        1.0  0.11418  0.63148  0.94513  1.0000
  H   H6        1.0  0.88581  0.36851  0.44513  1.0000
  H   H7        1.0  0.26815  0.66103  0.02412  1.0000
  H   H8        1.0  0.73185  0.33896  0.52412  1.0000
  H   H9        1.0  0.29565  0.79132  0.85050  1.0000
  H   H10       1.0  0.70434  0.20867  0.35050  1.0000
  H   H11       1.0  0.54913  0.84095  0.99434  1.0000
  H   H12       1.0  0.45087  0.15905  0.49434  1.0000
  H   H13       1.0  0.56786  0.92835  0.89766  1.0000
  H   H14       1.0  0.43213  0.07165  0.39766  1.0000
  H   H15       1.0  0.57148  0.71718  0.82113  1.0000
  H   H16       1.0  0.42851  0.28281  0.32113  1.0000
  H   H17       1.0  0.55270  0.58824  0.99515  1.0000
  H   H18       1.0  0.44730  0.41175  0.49515  1.0000
  H   H19       1.0  0.57457  0.50562  0.89971  1.0000
  H   H20       1.0  0.42542  0.49438  0.39971  1.0000
  H   H21       1.0  0.85061  0.05860  0.98479  1.0000
  H   H22       1.0  0.14939  0.94140  0.48479  1.0000
  H   H23       1.0  0.95450  0.03783  0.88875  1.0000
  H   H24       1.0  0.04551  0.96217  0.38875  1.0000
  H   H25       1.0  0.91933  0.19989  0.91639  1.0000
  H   H26       1.0  0.08067  0.80011  0.41639  1.0000
  H   H27       1.0  0.35612  0.26664  0.13479  1.0000
  H   H28       1.0  0.64390  0.73336  0.63479  1.0000
  H   H29       1.0  0.46389  0.15306  0.08379  1.0000
  H   H30       1.0  0.53611  0.84694  0.58379  1.0000
  H   H31       1.0  0.29274  0.08916  0.15349  1.0000
  H   H32       1.0  0.70728  0.91084  0.65349  1.0000
  H   H33       1.0  0.18129  0.77814  0.14770  1.0000
  H   H34       1.0  0.81871  0.22186  0.64771  1.0000
  H   H35       1.0  0.82659  0.77218  0.29536  1.0000
  H   H36       1.0  0.17341  0.22782  0.79536  1.0000
  H   H37       1.0  0.02228  0.93305  0.20447  1.0000
  H   H38       1.0  0.97772  0.06695  0.70447  1.0000
  H   H39       1.0  0.87730  0.90254  0.12117  1.0000
  H   H40       1.0  0.12270  0.09746  0.62117  1.0000
  H   H41       1.0  0.82424  0.02361  0.29233  1.0000
  H   H42       1.0  0.17576  0.97639  0.79233  1.0000
  H   H43       1.0  0.55756  0.05808  0.23537  1.0000
  H   H44       1.0  0.44244  0.94192  0.73537  1.0000
  H   H45       1.0  0.58958  0.97606  0.14116  1.0000
  H   H46       1.0  0.41042  0.02394  0.64117  1.0000
  H   H47       1.0  0.55562  0.84807  0.31566  1.0000
  H   H48       1.0  0.44438  0.15194  0.81566  1.0000
  H   H49       1.0  0.59294  0.72269  0.14429  1.0000
  H   H50       1.0  0.40706  0.27731  0.64429  1.0000
  H   H51       1.0  0.56461  0.63655  0.24187  1.0000
  H   H52       1.0  0.43539  0.36345  0.74187  1.0000
  H   H53       1.0  0.18451  0.52902  0.26099  1.0000
  H   H54       1.0  0.81549  0.47098  0.76099  1.0000
  H   H55       1.0  0.28974  0.50126  0.16622  1.0000
  H   H56       1.0  0.71026  0.49874  0.66622  1.0000
  H   H57       1.0  0.20801  0.36179  0.23541  1.0000
  H   H58       1.0  0.79198  0.63821  0.73541  1.0000
  H   H59       1.0  0.85179  0.47349  0.99422  1.0000
  H   H60       1.0  0.14821  0.52650  0.49422  1.0000
  H   H61       1.0  0.67904  0.42416  0.06471  1.0000
  H   H62       1.0  0.32096  0.57584  0.56471  1.0000
  H   H63       1.0  0.77396  0.29889  0.01816  1.0000
  H   H64       1.0  0.22604  0.70111  0.51816  1.0000
  C   C1        1.0  0.32966  0.54880  0.91817  1.0000
  C   C2        1.0  0.67033  0.45120  0.41818  1.0000
  C   C3        1.0  0.24964  0.65708  0.95594  1.0000
  C   C4        1.0  0.75036  0.34291  0.45594  1.0000
  C   C5        1.0  0.32574  0.79462  0.91797  1.0000
  C   C6        1.0  0.67426  0.20538  0.41797  1.0000
  C   C7        1.0  0.51697  0.83096  0.92733  1.0000
  C   C8        1.0  0.48303  0.16904  0.42733  1.0000
  C   C9        1.0  0.59560  0.72127  0.88898  1.0000
  C   C10       1.0  0.40440  0.27873  0.38898  1.0000
  C   C11       1.0  0.52089  0.58443  0.92814  1.0000
  C   C12       1.0  0.47911  0.41556  0.42815  1.0000
  C   C13       1.0  0.26403  0.41170  0.95575  1.0000
  C   C14       1.0  0.73597  0.58829  0.45575  1.0000
  C   C15       1.0  0.25354  0.90674  0.95369  1.0000
  C   C16       1.0  0.74646  0.09326  0.45369  1.0000
  C   C17       1.0  0.78334  0.76192  0.89993  1.0000
  C   C18       1.0  0.21665  0.23808  0.39993  1.0000
  C   C19       1.0  0.94653  0.10671  0.94028  1.0000
  C   C20       1.0  0.05348  0.89329  0.44028  1.0000
  C   C21       1.0  0.34387  0.16675  0.10762  1.0000
  C   C22       1.0  0.65614  0.83325  0.60762  1.0000
  C   C23       1.0  0.80762  0.77009  0.22704  1.0000
  C   C24       1.0  0.19238  0.22992  0.72704  1.0000
  C   C25       1.0  0.88829  0.90715  0.18976  1.0000
  C   C26       1.0  0.11171  0.09285  0.68976  1.0000
  C   C27       1.0  0.80390  0.01508  0.22427  1.0000
  C   C28       1.0  0.19610  0.98492  0.72428  1.0000
  C   C29       1.0  0.61407  0.97932  0.20897  1.0000
  C   C30       1.0  0.38593  0.02068  0.70897  1.0000
  C   C31       1.0  0.53568  0.84289  0.24776  1.0000
  C   C32       1.0  0.46432  0.15712  0.74776  1.0000
  C   C33       1.0  0.61738  0.73336  0.21205  1.0000
  C   C34       1.0  0.38262  0.26664  0.71205  1.0000
  C   C35       1.0  0.88164  0.65694  0.19490  1.0000
  C   C36       1.0  0.11837  0.34306  0.69490  1.0000
  C   C37       1.0  0.34858  0.80501  0.23495  1.0000
  C   C38       1.0  0.65142  0.19499  0.73496  1.0000
  C   C39       1.0  0.87382  0.15352  0.18975  1.0000
  C   C40       1.0  0.12618  0.84648  0.68975  1.0000
  C   C41       1.0  0.19126  0.45777  0.21061  1.0000
  C   C42       1.0  0.80874  0.54223  0.71061  1.0000
  C   C43       1.0  0.79569  0.40145  0.04227  1.0000
  C   C44       1.0  0.20431  0.59855  0.54227  1.0000
  O   O1        1.0  0.31458  0.31109  0.92366  1.0000
  O   O2        1.0  0.68542  0.68890  0.42366  1.0000
  O   O3        1.0  0.16518  0.39170  0.01773  1.0000
  O   O4        1.0  0.83483  0.60830  0.51773  1.0000
  O   O5        1.0  0.32111  0.02801  0.93069  1.0000
  O   O6        1.0  0.67889  0.97199  0.43069  1.0000
  O   O7        1.0  0.13256  0.88641  0.00484  1.0000
  O   O8        1.0  0.86743  0.11358  0.50483  1.0000
  O   O9        1.0  0.83012  0.74455  0.97877  1.0000
  O   O10       1.0  0.16988  0.25545  0.47877  1.0000
  O   O11       1.0  0.88097  0.80933  0.84369  1.0000
  O   O12       1.0  0.11903  0.19067  0.34368  1.0000
  O   O13       1.0  0.82178  0.53779  0.22417  1.0000
  O   O14       1.0  0.17822  0.46222  0.72417  1.0000
  O   O15       1.0  0.99396  0.67330  0.13894  1.0000
  O   O16       1.0  0.00605  0.32670  0.63894  1.0000
  O   O17       1.0  0.81900  0.25245  0.22143  1.0000
  O   O18       1.0  0.18100  0.74756  0.72143  1.0000
  O   O19       1.0  0.97850  0.17611  0.13041  1.0000
  O   O20       1.0  0.02150  0.82390  0.63041  1.0000
  O   O21       1.0  0.30477  0.81574  0.15450  1.0000
  O   O22       1.0  0.69523  0.18426  0.65450  1.0000
  O   O23       1.0  0.24719  0.76639  0.29114  1.0000
  O   O24       1.0  0.75282  0.23362  0.79114  1.0000
