data_image0
_chemical_formula_structural       Sn2H32C20O8
_chemical_formula_sum              "Sn2 H32 C20 O8"
_cell_length_a       5.09866
_cell_length_b       6.16488
_cell_length_c       20.4206
_cell_angle_alpha    83.5588
_cell_angle_beta     82.79
_cell_angle_gamma    65.4628

_space_group_name_H-M_alt    "P 1"
_space_group_IT_number       1

loop_
  _space_group_symop_operation_xyz
  'x, y, z'

loop_
  _atom_site_type_symbol
  _atom_site_label
  _atom_site_symmetry_multiplicity
  _atom_site_fract_x
  _atom_site_fract_y
  _atom_site_fract_z
  _atom_site_occupancy
  Sn  Sn1       1.0  0.41695  0.74999  0.25004  1.0000
  Sn  Sn2       1.0  0.58304  0.25002  0.74996  1.0000
  H   H1        1.0  0.88814  0.48511  0.41076  1.0000
  H   H2        1.0  0.78468  0.01433  0.08922  1.0000
  H   H3        1.0  0.11194  0.51482  0.58922  1.0000
  H   H4        1.0  0.21530  0.98572  0.91078  1.0000
  H   H5        1.0  0.11276  0.77916  0.48070  1.0000
  H   H6        1.0  0.37356  0.72044  0.01867  1.0000
  H   H7        1.0  0.88722  0.22082  0.51928  1.0000
  H   H8        1.0  0.62643  0.27963  0.98133  1.0000
  H   H9        1.0  0.80425  0.89268  0.43516  1.0000
  H   H10       1.0  0.13431  0.60654  0.06440  1.0000
  H   H11       1.0  0.19577  0.10722  0.56484  1.0000
  H   H12       1.0  0.86565  0.39353  0.93560  1.0000
  H   H13       1.0  0.43478  0.31910  0.48480  1.0000
  H   H14       1.0  0.24022  0.17863  0.01487  1.0000
  H   H15       1.0  0.56525  0.68081  0.51519  1.0000
  H   H16       1.0  0.75975  0.82143  0.98514  1.0000
  H   H17       1.0  0.33289  0.13383  0.44311  1.0000
  H   H18       1.0  0.91203  0.36477  0.05707  1.0000
  H   H19       1.0  0.66715  0.86610  0.55689  1.0000
  H   H20       1.0  0.08795  0.63529  0.94293  1.0000
  H   H21       1.0  0.36680  0.19908  0.25460  1.0000
  H   H22       1.0  0.82064  0.30025  0.24542  1.0000
  H   H23       1.0  0.63308  0.80096  0.74536  1.0000
  H   H24       1.0  0.17921  0.69974  0.75464  1.0000
  H   H25       1.0  0.59102  0.00540  0.31704  1.0000
  H   H26       1.0  0.91382  0.49391  0.18307  1.0000
  H   H27       1.0  0.40894  0.99477  0.68294  1.0000
  H   H28       1.0  0.08627  0.50595  0.81699  1.0000
  H   H29       1.0  0.20229  0.11161  0.32995  1.0000
  H   H30       1.0  0.64402  0.38866  0.17007  1.0000
  H   H31       1.0  0.79767  0.88847  0.67003  1.0000
  H   H32       1.0  0.35605  0.61126  0.82995  1.0000
  C   C1        1.0  0.23967  0.56278  0.36651  1.0000
  C   C2        1.0  0.17016  0.93567  0.13344  1.0000
  C   C3        1.0  0.76040  0.43716  0.63348  1.0000
  C   C4        1.0  0.82980  0.06435  0.86655  1.0000
  C   C5        1.0  0.06833  0.51253  0.42743  1.0000
  C   C6        1.0  0.00933  0.98648  0.07255  1.0000
  C   C7        1.0  0.93172  0.48743  0.57257  1.0000
  C   C8        1.0  0.99066  0.01357  0.92746  1.0000
  C   C9        1.0  0.93614  0.73920  0.46679  1.0000
  C   C10       1.0  0.14304  0.76052  0.03292  1.0000
  C   C11       1.0  0.06388  0.26074  0.53320  1.0000
  C   C12       1.0  0.85695  0.23956  0.96709  1.0000
  C   C13       1.0  0.24691  0.29521  0.47104  1.0000
  C   C14       1.0  0.01426  0.20372  0.02898  1.0000
  C   C15       1.0  0.75312  0.70473  0.52895  1.0000
  C   C16       1.0  0.98571  0.79636  0.97102  1.0000
  C   C17       1.0  0.39059  0.05673  0.29342  1.0000
  C   C18       1.0  0.74096  0.44285  0.20666  1.0000
  C   C19       1.0  0.60937  0.94334  0.70656  1.0000
  C   C20       1.0  0.25903  0.55709  0.79338  1.0000
  O   O1        1.0  0.09789  0.66459  0.31451  1.0000
  O   O2        1.0  0.07657  0.83604  0.18564  1.0000
  O   O3        1.0  0.90217  0.33537  0.68549  1.0000
  O   O4        1.0  0.92348  0.16399  0.81435  1.0000
  O   O5        1.0  0.50304  0.52365  0.36497  1.0000
  O   O6        1.0  0.39418  0.97277  0.13484  1.0000
  O   O7        1.0  0.49694  0.47640  0.63504  1.0000
  O   O8        1.0  0.60585  0.02720  0.86515  1.0000
