data_image0
_chemical_formula_structural       Zn2H48C72N12O16
_chemical_formula_sum              "Zn2 H48 C72 N12 O16"
_cell_length_a       7.9175
_cell_length_b       14.6438
_cell_length_c       15.1417
_cell_angle_alpha    90.0001
_cell_angle_beta     90.0001
_cell_angle_gamma    104.344

_space_group_name_H-M_alt    "P 1"
_space_group_IT_number       1

loop_
  _space_group_symop_operation_xyz
  'x, y, z'

loop_
  _atom_site_type_symbol
  _atom_site_label
  _atom_site_symmetry_multiplicity
  _atom_site_fract_x
  _atom_site_fract_y
  _atom_site_fract_z
  _atom_site_occupancy
  Zn  Zn1       1.0  0.94943  0.52673  0.69560  1.0000
  Zn  Zn2       1.0  0.05057  0.47327  0.19560  1.0000
  H   H1        1.0  0.02390  0.58142  0.36491  1.0000
  H   H2        1.0  0.97610  0.41858  0.86491  1.0000
  H   H3        1.0  0.34400  0.49689  0.81019  1.0000
  H   H4        1.0  0.65600  0.50310  0.31019  1.0000
  H   H5        1.0  0.99465  0.65691  0.51916  1.0000
  H   H6        1.0  0.00534  0.34309  0.01916  1.0000
  H   H7        1.0  0.01440  0.40781  0.38116  1.0000
  H   H8        1.0  0.98560  0.59219  0.88116  1.0000
  H   H9        1.0  0.96228  0.28888  0.51955  1.0000
  H   H10       1.0  0.03772  0.71112  0.01955  1.0000
  H   H11       1.0  0.84573  0.32320  0.60865  1.0000
  H   H12       1.0  0.15427  0.67680  0.10865  1.0000
  H   H13       1.0  0.23554  0.39861  0.61379  1.0000
  H   H14       1.0  0.76446  0.60139  0.11379  1.0000
  H   H15       1.0  0.85670  0.99656  0.67539  1.0000
  H   H16       1.0  0.14330  0.00345  0.17539  1.0000
  H   H17       1.0  0.93891  0.84532  0.64982  1.0000
  H   H18       1.0  0.06108  0.15468  0.14982  1.0000
  H   H19       1.0  0.22967  0.84451  0.59430  1.0000
  H   H20       1.0  0.77032  0.15549  0.09430  1.0000
  H   H21       1.0  0.52770  0.93371  0.54481  1.0000
  H   H22       1.0  0.47230  0.06629  0.04481  1.0000
  H   H23       1.0  0.73984  0.08647  0.51654  1.0000
  H   H24       1.0  0.26016  0.91352  0.01654  1.0000
  H   H25       1.0  0.65067  0.23742  0.53613  1.0000
  H   H26       1.0  0.34932  0.76258  0.03613  1.0000
  H   H27       1.0  0.55779  0.41427  0.74269  1.0000
  H   H28       1.0  0.44221  0.58572  0.24269  1.0000
  H   H29       1.0  0.82202  0.70052  0.77724  1.0000
  H   H30       1.0  0.17798  0.29948  0.27724  1.0000
  H   H31       1.0  0.55477  0.75039  0.87971  1.0000
  H   H32       1.0  0.44523  0.24961  0.37971  1.0000
  H   H33       1.0  0.35876  0.66213  0.89509  1.0000
  H   H34       1.0  0.64124  0.33787  0.39509  1.0000
  H   H35       1.0  0.46852  0.75883  0.71803  1.0000
  H   H36       1.0  0.53148  0.24117  0.21803  1.0000
  H   H37       1.0  0.70231  0.08389  0.75583  1.0000
  H   H38       1.0  0.29769  0.91611  0.25583  1.0000
  H   H39       1.0  0.64657  0.24000  0.78176  1.0000
  H   H40       1.0  0.35343  0.76000  0.28176  1.0000
  H   H41       1.0  0.35295  0.25266  0.83473  1.0000
  H   H42       1.0  0.64706  0.74734  0.33474  1.0000
  H   H43       1.0  0.05263  0.17484  0.88143  1.0000
  H   H44       1.0  0.94737  0.82516  0.38144  1.0000
  H   H45       1.0  0.82503  0.02788  0.91370  1.0000
  H   H46       1.0  0.17497  0.97213  0.41370  1.0000
  H   H47       1.0  0.89239  0.87090  0.89695  1.0000
  H   H48       1.0  0.10762  0.12910  0.39694  1.0000
  C   C1        1.0  0.99318  0.58401  0.50601  1.0000
  C   C2        1.0  0.00682  0.41600  0.00601  1.0000
  C   C3        1.0  0.00639  0.45361  0.43598  1.0000
  C   C4        1.0  0.99361  0.54639  0.93598  1.0000
  C   C5        1.0  0.98221  0.43379  0.52433  1.0000
  C   C6        1.0  0.01779  0.56621  0.02434  1.0000
  C   C7        1.0  0.96731  0.34265  0.57064  1.0000
  C   C8        1.0  0.03270  0.65735  0.07064  1.0000
  C   C9        1.0  0.12088  0.34288  0.63367  1.0000
  C   C10       1.0  0.87912  0.65712  0.13367  1.0000
  C   C11       1.0  0.08671  0.36302  0.73136  1.0000
  C   C12       1.0  0.91329  0.63698  0.23136  1.0000
  C   C13       1.0  0.05733  0.17210  0.64895  1.0000
  C   C14       1.0  0.94267  0.82790  0.14895  1.0000
  C   C15       1.0  0.10371  0.08264  0.63134  1.0000
  C   C16       1.0  0.89629  0.91736  0.13134  1.0000
  C   C17       1.0  0.98480  0.99736  0.64874  1.0000
  C   C18       1.0  0.01520  0.00264  0.14874  1.0000
  C   C19       1.0  0.03124  0.91188  0.63426  1.0000
  C   C20       1.0  0.96876  0.08813  0.13426  1.0000
  C   C21       1.0  0.19493  0.91152  0.60264  1.0000
  C   C22       1.0  0.80506  0.08848  0.10264  1.0000
  C   C23       1.0  0.31910  0.99713  0.58390  1.0000
  C   C24       1.0  0.68089  0.00287  0.08390  1.0000
  C   C25       1.0  0.48997  0.99990  0.55392  1.0000
  C   C26       1.0  0.51003  0.00010  0.05392  1.0000
  C   C27       1.0  0.60798  0.08504  0.53782  1.0000
  C   C28       1.0  0.39202  0.91496  0.03782  1.0000
  C   C29       1.0  0.55925  0.17023  0.54958  1.0000
  C   C30       1.0  0.44075  0.82977  0.04958  1.0000
  C   C31       1.0  0.39407  0.17048  0.58001  1.0000
  C   C32       1.0  0.60593  0.82952  0.08001  1.0000
  C   C33       1.0  0.34874  0.26118  0.59446  1.0000
  C   C34       1.0  0.65126  0.73882  0.09446  1.0000
  C   C35       1.0  0.27157  0.08409  0.59803  1.0000
  C   C36       1.0  0.72843  0.91591  0.09803  1.0000
  C   C37       1.0  0.58700  0.48798  0.76126  1.0000
  C   C38       1.0  0.41300  0.51202  0.26126  1.0000
  C   C39       1.0  0.71596  0.63738  0.77879  1.0000
  C   C40       1.0  0.28404  0.36262  0.27879  1.0000
  C   C41       1.0  0.54852  0.62478  0.81036  1.0000
  C   C42       1.0  0.45148  0.37522  0.31036  1.0000
  C   C43       1.0  0.45739  0.69475  0.84607  1.0000
  C   C44       1.0  0.54261  0.30525  0.34607  1.0000
  C   C45       1.0  0.20585  0.67898  0.73262  1.0000
  C   C46       1.0  0.79415  0.32102  0.23262  1.0000
  C   C47       1.0  0.37348  0.74183  0.77232  1.0000
  C   C48       1.0  0.62652  0.25817  0.27232  1.0000
  C   C49       1.0  0.48159  0.91372  0.77955  1.0000
  C   C50       1.0  0.51842  0.08628  0.27955  1.0000
  C   C51       1.0  0.44915  0.00613  0.80009  1.0000
  C   C52       1.0  0.55085  0.99386  0.30009  1.0000
  C   C53       1.0  0.57714  0.08803  0.78284  1.0000
  C   C54       1.0  0.42287  0.91196  0.28284  1.0000
  C   C55       1.0  0.54408  0.17703  0.79699  1.0000
  C   C56       1.0  0.45592  0.82297  0.29699  1.0000
  C   C57       1.0  0.38288  0.18426  0.82720  1.0000
  C   C58       1.0  0.61713  0.81574  0.32720  1.0000
  C   C59       1.0  0.24938  0.10198  0.84581  1.0000
  C   C60       1.0  0.75063  0.89802  0.34581  1.0000
  C   C61       1.0  0.08096  0.10592  0.87482  1.0000
  C   C62       1.0  0.91905  0.89408  0.37482  1.0000
  C   C63       1.0  0.95442  0.02413  0.89241  1.0000
  C   C64       1.0  0.04558  0.97587  0.39241  1.0000
  C   C65       1.0  0.99126  0.93554  0.88279  1.0000
  C   C66       1.0  0.00875  0.06447  0.38279  1.0000
  C   C67       1.0  0.15392  0.92898  0.85304  1.0000
  C   C68       1.0  0.84609  0.07102  0.35304  1.0000
  C   C69       1.0  0.19084  0.83602  0.84209  1.0000
  C   C70       1.0  0.80916  0.16398  0.34209  1.0000
  C   C71       1.0  0.28445  0.01169  0.83306  1.0000
  C   C72       1.0  0.71556  0.98831  0.33306  1.0000
  N   N1        1.0  0.97457  0.51635  0.56728  1.0000
  N   N2        1.0  0.02543  0.48365  0.06729  1.0000
  N   N3        1.0  0.01239  0.54777  0.42595  1.0000
  N   N4        1.0  0.98762  0.45223  0.92595  1.0000
  N   N5        1.0  0.17879  0.25552  0.62507  1.0000
  N   N6        1.0  0.82121  0.74448  0.12507  1.0000
  N   N7        1.0  0.73787  0.55182  0.74841  1.0000
  N   N8        1.0  0.26213  0.44818  0.24841  1.0000
  N   N9        1.0  0.47149  0.52985  0.79873  1.0000
  N   N10       1.0  0.52850  0.47015  0.29873  1.0000
  N   N11       1.0  0.34592  0.83364  0.79872  1.0000
  N   N12       1.0  0.65408  0.16636  0.29872  1.0000
  O   O1        1.0  0.95455  0.39833  0.74798  1.0000
  O   O2        1.0  0.04544  0.60167  0.24798  1.0000
  O   O3        1.0  0.19068  0.34960  0.78888  1.0000
  O   O4        1.0  0.80932  0.65040  0.28888  1.0000
  O   O5        1.0  0.91763  0.17737  0.68254  1.0000
  O   O6        1.0  0.08237  0.82264  0.18255  1.0000
  O   O7        1.0  0.45146  0.33848  0.58069  1.0000
  O   O8        1.0  0.54854  0.66151  0.08069  1.0000
  O   O9        1.0  0.17146  0.59118  0.75537  1.0000
  O   O10       1.0  0.82854  0.40882  0.25536  1.0000
  O   O11       1.0  0.11684  0.71208  0.67903  1.0000
  O   O12       1.0  0.88316  0.28791  0.17903  1.0000
  O   O13       1.0  0.61857  0.90358  0.74632  1.0000
  O   O14       1.0  0.38143  0.09641  0.24632  1.0000
  O   O15       1.0  0.09154  0.76182  0.86853  1.0000
  O   O16       1.0  0.90846  0.23817  0.36853  1.0000
