data_image0
_chemical_formula_structural       GdH9C5N2O8
_chemical_formula_sum              "Gd1 H9 C5 N2 O8"
_cell_length_a       6.58574
_cell_length_b       6.74352
_cell_length_c       6.74363
_cell_angle_alpha    64.0886
_cell_angle_beta     73.0822
_cell_angle_gamma    73.0833

_space_group_name_H-M_alt    "P 1"
_space_group_IT_number       1

loop_
  _space_group_symop_operation_xyz
  'x, y, z'

loop_
  _atom_site_type_symbol
  _atom_site_label
  _atom_site_symmetry_multiplicity
  _atom_site_fract_x
  _atom_site_fract_y
  _atom_site_fract_z
  _atom_site_occupancy
  Gd  Gd1       1.0  0.99999  0.94473  0.05527  1.0000
  H   H1        1.0  0.49999  0.02473  0.97528  1.0000
  H   H2        1.0  0.87722  0.41478  0.20637  1.0000
  H   H3        1.0  0.12277  0.79363  0.58521  1.0000
  H   H4        1.0  0.60160  0.15313  0.41271  1.0000
  H   H5        1.0  0.39839  0.58729  0.84689  1.0000
  H   H6        1.0  0.47192  0.44274  0.31345  1.0000
  H   H7        1.0  0.52810  0.68658  0.55722  1.0000
  H   H8        1.0  0.17802  0.39373  0.58379  1.0000
  H   H9        1.0  0.82202  0.41623  0.60626  1.0000
  C   C1        1.0  0.49999  0.87120  0.12880  1.0000
  C   C2        1.0  0.04270  0.41447  0.10319  1.0000
  C   C3        1.0  0.95728  0.89681  0.58553  1.0000
  C   C4        1.0  0.29861  0.24112  0.58250  1.0000
  C   C5        1.0  0.70142  0.41749  0.75890  1.0000
  N   N1        1.0  0.47096  0.27974  0.42249  1.0000
  N   N2        1.0  0.52905  0.57751  0.72026  1.0000
  O   O1        1.0  0.33306  0.78169  0.20669  1.0000
  O   O2        1.0  0.66692  0.79332  0.21831  1.0000
  O   O3        1.0  0.26741  0.04979  0.72494  1.0000
  O   O4        1.0  0.73260  0.27505  0.95024  1.0000
  O   O5        1.0  0.12912  0.57956  0.05916  1.0000
  O   O6        1.0  0.87088  0.94082  0.42045  1.0000
  O   O7        1.0  0.13232  0.25613  0.03760  1.0000
  O   O8        1.0  0.86768  0.96239  0.74387  1.0000
