data_image0
_chemical_formula_structural       HoH9C5N2O8
_chemical_formula_sum              "Ho1 H9 C5 N2 O8"
_cell_length_a       6.54178
_cell_length_b       6.67944
_cell_length_c       6.67924
_cell_angle_alpha    64.3777
_cell_angle_beta     73.175
_cell_angle_gamma    73.1758

_space_group_name_H-M_alt    "P 1"
_space_group_IT_number       1

loop_
  _space_group_symop_operation_xyz
  'x, y, z'

loop_
  _atom_site_type_symbol
  _atom_site_label
  _atom_site_symmetry_multiplicity
  _atom_site_fract_x
  _atom_site_fract_y
  _atom_site_fract_z
  _atom_site_occupancy
  Ho  Ho1       1.0  0.99999  0.90276  0.09723  1.0000
  H   H1        1.0  0.59936  0.10913  0.45330  1.0000
  H   H2        1.0  0.40064  0.54670  0.89089  1.0000
  H   H3        1.0  0.46943  0.40068  0.35539  1.0000
  H   H4        1.0  0.53056  0.64466  0.59930  1.0000
  H   H5        1.0  0.17560  0.35231  0.62990  1.0000
  H   H6        1.0  0.82441  0.37012  0.64767  1.0000
  H   H7        1.0  0.87527  0.37049  0.25703  1.0000
  H   H8        1.0  0.12474  0.74299  0.62949  1.0000
  H   H9        1.0  0.50001  0.98586  0.01415  1.0000
  C   C1        1.0  0.29601  0.19828  0.62761  1.0000
  C   C2        1.0  0.70396  0.37236  0.80169  1.0000
  C   C3        1.0  0.03989  0.37243  0.14938  1.0000
  C   C4        1.0  0.96012  0.85063  0.62755  1.0000
  C   C5        1.0  0.50002  0.83158  0.16842  1.0000
  N   N1        1.0  0.46866  0.23667  0.46534  1.0000
  N   N2        1.0  0.53136  0.53468  0.76333  1.0000
  O   O1        1.0  0.26438  0.00581  0.77067  1.0000
  O   O2        1.0  0.73559  0.22937  0.99420  1.0000
  O   O3        1.0  0.66802  0.75339  0.25857  1.0000
  O   O4        1.0  0.33201  0.74140  0.24659  1.0000
  O   O5        1.0  0.12553  0.54053  0.10301  1.0000
  O   O6        1.0  0.87447  0.89700  0.45946  1.0000
  O   O7        1.0  0.12979  0.21381  0.08123  1.0000
  O   O8        1.0  0.87022  0.91876  0.78620  1.0000
