data_image0
_chemical_formula_structural       TbH9C5N2O8
_chemical_formula_sum              "Tb1 H9 C5 N2 O8"
_cell_length_a       6.56862
_cell_length_b       6.72213
_cell_length_c       6.72226
_cell_angle_alpha    64.1845
_cell_angle_beta     73.1339
_cell_angle_gamma    73.1327

_space_group_name_H-M_alt    "P 1"
_space_group_IT_number       1

loop_
  _space_group_symop_operation_xyz
  'x, y, z'

loop_
  _atom_site_type_symbol
  _atom_site_label
  _atom_site_symmetry_multiplicity
  _atom_site_fract_x
  _atom_site_fract_y
  _atom_site_fract_z
  _atom_site_occupancy
  Tb  Tb1       1.0  1.00000  0.48918  0.51082  1.0000
  H   H1        1.0  0.60138  0.84664  0.71803  1.0000
  H   H2        1.0  0.39862  0.28199  0.15333  1.0000
  H   H3        1.0  0.47224  0.74732  0.00843  1.0000
  H   H4        1.0  0.52777  0.99158  0.25269  1.0000
  H   H5        1.0  0.17804  0.01885  0.96051  1.0000
  H   H6        1.0  0.82197  0.03948  0.98116  1.0000
  H   H7        1.0  0.87649  0.64362  0.98001  1.0000
  H   H8        1.0  0.12351  0.01996  0.35642  1.0000
  H   H9        1.0  0.49999  0.40835  0.59166  1.0000
  C   C1        1.0  0.29807  0.01738  0.80717  1.0000
  C   C2        1.0  0.70194  0.19281  0.98262  1.0000
  C   C3        1.0  0.04184  0.53920  0.98027  1.0000
  C   C4        1.0  0.95815  0.01972  0.46082  1.0000
  C   C5        1.0  0.49999  0.56215  0.43785  1.0000
  N   N1        1.0  0.47068  0.85663  0.84518  1.0000
  N   N2        1.0  0.52935  0.15483  0.14334  1.0000
  O   O1        1.0  0.26622  0.16011  0.61567  1.0000
  O   O2        1.0  0.73379  0.38433  0.83987  1.0000
  O   O3        1.0  0.12800  0.49436  0.14645  1.0000
  O   O4        1.0  0.87199  0.85355  0.50564  1.0000
  O   O5        1.0  0.33262  0.64019  0.34815  1.0000
  O   O6        1.0  0.66737  0.65184  0.35981  1.0000
  O   O7        1.0  0.13148  0.47316  0.82155  1.0000
  O   O8        1.0  0.86851  0.17845  0.52685  1.0000
