data_image0
_chemical_formula_structural       TmH9C5N2O8
_chemical_formula_sum              "Tm1 H9 C5 N2 O8"
_cell_length_a       6.51461
_cell_length_b       6.63898
_cell_length_c       6.63907
_cell_angle_alpha    64.511
_cell_angle_beta     73.2649
_cell_angle_gamma    73.2651

_space_group_name_H-M_alt    "P 1"
_space_group_IT_number       1

loop_
  _space_group_symop_operation_xyz
  'x, y, z'

loop_
  _atom_site_type_symbol
  _atom_site_label
  _atom_site_symmetry_multiplicity
  _atom_site_fract_x
  _atom_site_fract_y
  _atom_site_fract_z
  _atom_site_occupancy
  Tm  Tm1       1.0  0.00001  0.45636  0.54363  1.0000
  H   H1        1.0  0.40218  0.25173  0.18749  1.0000
  H   H2        1.0  0.59780  0.81250  0.74830  1.0000
  H   H3        1.0  0.53115  0.95857  0.28586  1.0000
  H   H4        1.0  0.46882  0.71415  0.04145  1.0000
  H   H5        1.0  0.82534  0.00466  0.00962  1.0000
  H   H6        1.0  0.17465  0.99036  0.99534  1.0000
  H   H7        1.0  0.86955  0.61148  0.01625  1.0000
  H   H8        1.0  0.13043  0.98377  0.38848  1.0000
  H   H9        1.0  0.49999  0.37124  0.62877  1.0000
  C   C1        1.0  0.70586  0.16019  0.01204  1.0000
  C   C2        1.0  0.29415  0.98795  0.83984  1.0000
  C   C3        1.0  0.03703  0.50851  0.01493  1.0000
  C   C4        1.0  0.96295  0.98506  0.49149  1.0000
  C   C5        1.0  0.50001  0.52608  0.47392  1.0000
  N   N1        1.0  0.53285  0.12314  0.17552  1.0000
  N   N2        1.0  0.46713  0.82446  0.87691  1.0000
  O   O1        1.0  0.33137  0.60423  0.38331  1.0000
  O   O2        1.0  0.66866  0.61667  0.39577  1.0000
  O   O3        1.0  0.12422  0.46446  0.18254  1.0000
  O   O4        1.0  0.87579  0.81744  0.53555  1.0000
  O   O5        1.0  0.73850  0.35312  0.86801  1.0000
  O   O6        1.0  0.26155  0.13202  0.64688  1.0000
  O   O7        1.0  0.12848  0.44281  0.85363  1.0000
  O   O8        1.0  0.87151  0.14637  0.55717  1.0000
