data_image0
_chemical_formula_structural       LuH9C5N2O8
_chemical_formula_sum              "Lu1 H9 C5 N2 O8"
_cell_length_a       6.48804
_cell_length_b       6.60155
_cell_length_c       6.60132
_cell_angle_alpha    64.6531
_cell_angle_beta     73.2317
_cell_angle_gamma    73.2285

_space_group_name_H-M_alt    "P 1"
_space_group_IT_number       1

loop_
  _space_group_symop_operation_xyz
  'x, y, z'

loop_
  _atom_site_type_symbol
  _atom_site_label
  _atom_site_symmetry_multiplicity
  _atom_site_fract_x
  _atom_site_fract_y
  _atom_site_fract_z
  _atom_site_occupancy
  Lu  Lu1       1.0  0.00003  0.18507  0.81496  1.0000
  H   H1        1.0  0.59761  0.54001  0.01852  1.0000
  H   H2        1.0  0.40239  0.98151  0.45997  1.0000
  H   H3        1.0  0.46773  0.44199  0.31295  1.0000
  H   H4        1.0  0.53226  0.68696  0.55808  1.0000
  H   H5        1.0  0.17323  0.72127  0.26718  1.0000
  H   H6        1.0  0.82680  0.73280  0.27870  1.0000
  H   H7        1.0  0.13140  0.71268  0.65693  1.0000
  H   H8        1.0  0.86856  0.34304  0.28737  1.0000
  H   H9        1.0  0.50000  0.09736  0.90273  1.0000
  C   C1        1.0  0.29299  0.71771  0.11095  1.0000
  C   C2        1.0  0.70704  0.88912  0.28221  1.0000
  C   C3        1.0  0.96350  0.71334  0.76092  1.0000
  C   C4        1.0  0.03647  0.23904  0.28667  1.0000
  C   C5        1.0  0.50001  0.25267  0.74734  1.0000
  N   N1        1.0  0.46621  0.55269  0.14763  1.0000
  N   N2        1.0  0.53381  0.85233  0.44732  1.0000
  O   O1        1.0  0.26005  0.86239  0.91735  1.0000
  O   O2        1.0  0.73990  0.08277  0.13754  1.0000
  O   O3        1.0  0.66943  0.34359  0.66865  1.0000
  O   O4        1.0  0.33059  0.33136  0.65635  1.0000
  O   O5        1.0  0.87678  0.54404  0.80601  1.0000
  O   O6        1.0  0.12323  0.19396  0.45598  1.0000
  O   O7        1.0  0.87106  0.87583  0.82668  1.0000
  O   O8        1.0  0.12892  0.17325  0.12421  1.0000
