data_image0
_chemical_formula_structural       YH9C5N2O8
_chemical_formula_sum              "Y1 H9 C5 N2 O8"
_cell_length_a       6.55504
_cell_length_b       6.70202
_cell_length_c       6.7019
_cell_angle_alpha    64.3219
_cell_angle_beta     73.2861
_cell_angle_gamma    73.2869

_space_group_name_H-M_alt    "P 1"
_space_group_IT_number       1

loop_
  _space_group_symop_operation_xyz
  'x, y, z'

loop_
  _atom_site_type_symbol
  _atom_site_label
  _atom_site_symmetry_multiplicity
  _atom_site_fract_x
  _atom_site_fract_y
  _atom_site_fract_z
  _atom_site_occupancy
  Y   Y1        1.0  0.00000  0.94370  0.05630  1.0000
  H   H1        1.0  0.59870  0.14932  0.41483  1.0000
  H   H2        1.0  0.40131  0.58515  0.85068  1.0000
  H   H3        1.0  0.47038  0.44045  0.31541  1.0000
  H   H4        1.0  0.52964  0.68453  0.55956  1.0000
  H   H5        1.0  0.86928  0.42332  0.19437  1.0000
  H   H6        1.0  0.13070  0.80564  0.57666  1.0000
  H   H7        1.0  0.17697  0.39315  0.58877  1.0000
  H   H8        1.0  0.82306  0.41118  0.60688  1.0000
  H   H9        1.0  0.50000  0.02518  0.97482  1.0000
  C   C1        1.0  0.03892  0.41758  0.10028  1.0000
  C   C2        1.0  0.96108  0.89972  0.58240  1.0000
  C   C3        1.0  0.29664  0.23953  0.58683  1.0000
  C   C4        1.0  0.70340  0.41314  0.76050  1.0000
  C   C5        1.0  0.49999  0.87123  0.12878  1.0000
  N   N1        1.0  0.46865  0.27706  0.42502  1.0000
  N   N2        1.0  0.53136  0.57496  0.72294  1.0000
  O   O1        1.0  0.66800  0.79267  0.21825  1.0000
  O   O2        1.0  0.33197  0.78176  0.20733  1.0000
  O   O3        1.0  0.12735  0.58136  0.06042  1.0000
  O   O4        1.0  0.87264  0.93959  0.41866  1.0000
  O   O5        1.0  0.26506  0.04782  0.73011  1.0000
  O   O6        1.0  0.73493  0.26990  0.95220  1.0000
  O   O7        1.0  0.13133  0.25524  0.03975  1.0000
  O   O8        1.0  0.86864  0.96027  0.74479  1.0000
