data_image0
_chemical_formula_structural       Cd4H44C56S4N12O4
_chemical_formula_sum              "Cd4 H44 C56 S4 N12 O4"
_cell_length_a       11.2615
_cell_length_b       11.118
_cell_length_c       12.8934
_cell_angle_alpha    115.503
_cell_angle_beta     108.007
_cell_angle_gamma    90.0415

_space_group_name_H-M_alt    "P 1"
_space_group_IT_number       1

loop_
  _space_group_symop_operation_xyz
  'x, y, z'

loop_
  _atom_site_type_symbol
  _atom_site_label
  _atom_site_symmetry_multiplicity
  _atom_site_fract_x
  _atom_site_fract_y
  _atom_site_fract_z
  _atom_site_occupancy
  Cd  Cd1       1.0  0.48929  0.33338  0.38719  1.0000
  Cd  Cd2       1.0  0.01043  0.94601  0.61265  1.0000
  Cd  Cd3       1.0  0.51071  0.66662  0.61281  1.0000
  Cd  Cd4       1.0  0.98956  0.05399  0.38735  1.0000
  H   H1        1.0  0.62119  0.51198  0.81880  1.0000
  H   H2        1.0  0.87872  0.69333  0.18105  1.0000
  H   H3        1.0  0.37881  0.48801  0.18119  1.0000
  H   H4        1.0  0.12128  0.30668  0.81895  1.0000
  H   H5        1.0  0.82681  0.50526  0.95984  1.0000
  H   H6        1.0  0.67305  0.54579  0.03981  1.0000
  H   H7        1.0  0.17319  0.49473  0.04015  1.0000
  H   H8        1.0  0.32695  0.45422  0.96020  1.0000
  H   H9        1.0  0.00958  0.44648  0.88679  1.0000
  H   H10       1.0  0.49014  0.55986  0.11273  1.0000
  H   H11       1.0  0.99042  0.55351  0.11321  1.0000
  H   H12       1.0  0.50986  0.44014  0.88727  1.0000
  H   H13       1.0  0.98478  0.39805  0.67347  1.0000
  H   H14       1.0  0.51494  0.72419  0.32609  1.0000
  H   H15       1.0  0.01522  0.60195  0.32653  1.0000
  H   H16       1.0  0.48506  0.27581  0.67391  1.0000
  H   H17       1.0  0.88559  0.40311  0.49822  1.0000
  H   H18       1.0  0.61406  0.90433  0.50139  1.0000
  H   H19       1.0  0.11442  0.59690  0.50178  1.0000
  H   H20       1.0  0.38594  0.09567  0.49861  1.0000
  H   H21       1.0  0.81365  0.37544  0.31036  1.0000
  H   H22       1.0  0.68598  0.06473  0.68933  1.0000
  H   H23       1.0  0.18635  0.62456  0.68964  1.0000
  H   H24       1.0  0.31402  0.93528  0.31068  1.0000
  H   H25       1.0  0.71994  0.50557  0.31978  1.0000
  H   H26       1.0  0.78002  0.18533  0.67995  1.0000
  H   H27       1.0  0.28006  0.49443  0.68022  1.0000
  H   H28       1.0  0.21999  0.81467  0.32005  1.0000
  H   H29       1.0  0.73024  0.31357  0.08541  1.0000
  H   H30       1.0  0.76914  0.22708  0.91413  1.0000
  H   H31       1.0  0.26977  0.68644  0.91460  1.0000
  H   H32       1.0  0.23086  0.77291  0.08586  1.0000
  H   H33       1.0  0.56158  0.15608  0.88524  1.0000
  H   H34       1.0  0.93788  0.27035  0.11447  1.0000
  H   H35       1.0  0.43842  0.84393  0.11476  1.0000
  H   H36       1.0  0.06212  0.72965  0.88553  1.0000
  H   H37       1.0  0.36071  0.06864  0.89043  1.0000
  H   H38       1.0  0.13884  0.17821  0.10948  1.0000
  H   H39       1.0  0.63929  0.93136  0.10957  1.0000
  H   H40       1.0  0.86116  0.82179  0.89052  1.0000
  H   H41       1.0  0.33528  0.14214  0.09617  1.0000
  H   H42       1.0  0.16436  0.04598  0.90385  1.0000
  H   H43       1.0  0.66472  0.85786  0.90383  1.0000
  H   H44       1.0  0.83564  0.95403  0.09616  1.0000
  C   C1        1.0  0.68204  0.45337  0.66430  1.0000
  C   C2        1.0  0.81773  0.78914  0.33542  1.0000
  C   C3        1.0  0.31797  0.54662  0.33570  1.0000
  C   C4        1.0  0.18227  0.21086  0.66458  1.0000
  C   C5        1.0  0.70119  0.48404  0.78771  1.0000
  C   C6        1.0  0.79859  0.69654  0.21199  1.0000
  C   C7        1.0  0.29880  0.51595  0.21228  1.0000
  C   C8        1.0  0.20141  0.30346  0.78801  1.0000
  C   C9        1.0  0.81630  0.48118  0.86571  1.0000
  C   C10       1.0  0.68347  0.61580  0.13388  1.0000
  C   C11       1.0  0.18370  0.51881  0.13428  1.0000
  C   C12       1.0  0.31652  0.38420  0.86612  1.0000
  C   C13       1.0  0.91935  0.44837  0.82496  1.0000
  C   C14       1.0  0.58035  0.62365  0.17457  1.0000
  C   C15       1.0  0.08065  0.55163  0.17504  1.0000
  C   C16       1.0  0.41965  0.37635  0.82543  1.0000
  C   C17       1.0  0.90489  0.42161  0.70601  1.0000
  C   C18       1.0  0.59482  0.71548  0.29355  1.0000
  C   C19       1.0  0.09511  0.57839  0.29399  1.0000
  C   C20       1.0  0.40518  0.28453  0.70645  1.0000
  C   C21       1.0  0.78886  0.42410  0.62386  1.0000
  C   C22       1.0  0.71087  0.80016  0.37577  1.0000
  C   C23       1.0  0.21114  0.57589  0.37614  1.0000
  C   C24       1.0  0.28913  0.19984  0.62423  1.0000
  C   C25       1.0  0.79127  0.40908  0.50733  1.0000
  C   C26       1.0  0.70842  0.90137  0.49232  1.0000
  C   C27       1.0  0.20874  0.59091  0.49266  1.0000
  C   C28       1.0  0.29158  0.09863  0.50768  1.0000
  C   C29       1.0  0.71992  0.40291  0.31308  1.0000
  C   C30       1.0  0.77977  0.08933  0.68661  1.0000
  C   C31       1.0  0.28008  0.59710  0.68691  1.0000
  C   C32       1.0  0.22023  0.91067  0.31340  1.0000
  C   C33       1.0  0.61961  0.30855  0.19288  1.0000
  C   C34       1.0  0.87995  0.11508  0.80684  1.0000
  C   C35       1.0  0.38039  0.69145  0.80712  1.0000
  C   C36       1.0  0.12005  0.88493  0.19316  1.0000
  C   C37       1.0  0.64084  0.27250  0.08263  1.0000
  C   C38       1.0  0.85863  0.18916  0.91705  1.0000
  C   C39       1.0  0.35916  0.72751  0.91737  1.0000
  C   C40       1.0  0.14137  0.81084  0.08295  1.0000
  C   C41       1.0  0.54793  0.18633  0.97269  1.0000
  C   C42       1.0  0.95155  0.21323  0.02705  1.0000
  C   C43       1.0  0.45208  0.81367  0.02732  1.0000
  C   C44       1.0  0.04845  0.78677  0.97295  1.0000
  C   C45       1.0  0.43500  0.13699  0.97490  1.0000
  C   C46       1.0  0.06458  0.16200  0.02497  1.0000
  C   C47       1.0  0.56500  0.86301  0.02510  1.0000
  C   C48       1.0  0.93542  0.83801  0.97504  1.0000
  C   C49       1.0  0.42053  0.17762  0.08767  1.0000
  C   C50       1.0  0.07912  0.08985  0.91224  1.0000
  C   C51       1.0  0.57947  0.82238  0.91233  1.0000
  C   C52       1.0  0.92088  0.91016  0.08776  1.0000
  C   C53       1.0  0.18748  0.26588  0.35275  1.0000
  C   C54       1.0  0.31225  0.91298  0.64735  1.0000
  C   C55       1.0  0.81253  0.73413  0.64726  1.0000
  C   C56       1.0  0.68772  0.08701  0.35265  1.0000
  S   S1        1.0  0.05280  0.28658  0.37489  1.0000
  S   S2        1.0  0.44698  0.91172  0.62529  1.0000
  S   S3        1.0  0.94720  0.71342  0.62511  1.0000
  S   S4        1.0  0.55301  0.08828  0.37471  1.0000
  N   N1        1.0  0.69668  0.40664  0.41845  1.0000
  N   N2        1.0  0.80299  0.98781  0.58125  1.0000
  N   N3        1.0  0.30332  0.59336  0.58154  1.0000
  N   N4        1.0  0.19701  0.01219  0.41875  1.0000
  N   N5        1.0  0.51021  0.26190  0.19380  1.0000
  N   N6        1.0  0.98943  0.06783  0.80604  1.0000
  N   N7        1.0  0.48979  0.73810  0.80620  1.0000
  N   N8        1.0  0.01057  0.93217  0.19397  1.0000
  N   N9        1.0  0.28432  0.25053  0.33386  1.0000
  N   N10       1.0  0.21534  0.91645  0.66612  1.0000
  N   N11       1.0  0.71567  0.74947  0.66615  1.0000
  N   N12       1.0  0.78466  0.08355  0.33388  1.0000
  O   O1        1.0  0.56919  0.45671  0.59515  1.0000
  O   O2        1.0  0.93063  0.86154  0.40462  1.0000
  O   O3        1.0  0.43081  0.54329  0.40485  1.0000
  O   O4        1.0  0.06937  0.13846  0.59538  1.0000
