data_image0
_chemical_formula_structural       K2H38C56S8O16
_chemical_formula_sum              "K2 H38 C56 S8 O16"
_cell_length_a       11.1127
_cell_length_b       12.1146
_cell_length_c       12.5383
_cell_angle_alpha    65.6405
_cell_angle_beta     64.3684
_cell_angle_gamma    80.2544

_space_group_name_H-M_alt    "P 1"
_space_group_IT_number       1

loop_
  _space_group_symop_operation_xyz
  'x, y, z'

loop_
  _atom_site_type_symbol
  _atom_site_label
  _atom_site_symmetry_multiplicity
  _atom_site_fract_x
  _atom_site_fract_y
  _atom_site_fract_z
  _atom_site_occupancy
  K   K1        1.0  0.10212  0.70534  0.46971  1.0000
  K   K2        1.0  0.89788  0.29465  0.53029  1.0000
  H   H1        1.0  0.87308  0.45918  0.26414  1.0000
  H   H2        1.0  0.12692  0.54082  0.73586  1.0000
  H   H3        1.0  0.94803  0.45880  0.66020  1.0000
  H   H4        1.0  0.05197  0.54120  0.33980  1.0000
  H   H5        1.0  0.66673  0.26181  0.83146  1.0000
  H   H6        1.0  0.33327  0.73819  0.16854  1.0000
  H   H7        1.0  0.61862  0.94539  0.46485  1.0000
  H   H8        1.0  0.38138  0.05461  0.53516  1.0000
  H   H9        1.0  0.39626  0.85115  0.55559  1.0000
  H   H10       1.0  0.60374  0.14885  0.44441  1.0000
  H   H11       1.0  0.37880  0.64057  0.57473  1.0000
  H   H12       1.0  0.62120  0.35943  0.42527  1.0000
  H   H13       1.0  0.58898  0.52848  0.49809  1.0000
  H   H14       1.0  0.41102  0.47152  0.50190  1.0000
  H   H15       1.0  0.94854  0.41602  0.99249  1.0000
  H   H16       1.0  0.05146  0.58398  0.00752  1.0000
  H   H17       1.0  0.96472  0.32165  0.84378  1.0000
  H   H18       1.0  0.03528  0.67835  0.15622  1.0000
  H   H19       1.0  0.91360  0.10164  0.93012  1.0000
  H   H20       1.0  0.08640  0.89836  0.06988  1.0000
  H   H21       1.0  0.86147  0.97525  0.15727  1.0000
  H   H22       1.0  0.13853  0.02475  0.84273  1.0000
  H   H23       1.0  0.55184  0.81042  0.85398  1.0000
  H   H24       1.0  0.44816  0.18958  0.14602  1.0000
  H   H25       1.0  0.32839  0.72916  0.93342  1.0000
  H   H26       1.0  0.67161  0.27084  0.06658  1.0000
  H   H27       1.0  0.30094  0.53613  0.91746  1.0000
  H   H28       1.0  0.69906  0.46387  0.08254  1.0000
  H   H29       1.0  0.50449  0.42887  0.82005  1.0000
  H   H30       1.0  0.49551  0.57114  0.17995  1.0000
  H   H31       1.0  0.60194  0.02505  0.11010  1.0000
  H   H32       1.0  0.39806  0.97495  0.88990  1.0000
  H   H33       1.0  0.59438  0.81677  0.27262  1.0000
  H   H34       1.0  0.40562  0.18323  0.72738  1.0000
  H   H35       1.0  0.68404  0.64468  0.20004  1.0000
  H   H36       1.0  0.31596  0.35532  0.79996  1.0000
  H   H37       1.0  0.76555  0.67918  0.97104  1.0000
  H   H38       1.0  0.23446  0.32082  0.02896  1.0000
  C   C1        1.0  0.83633  0.59679  0.39488  1.0000
  C   C2        1.0  0.16367  0.40321  0.60512  1.0000
  C   C3        1.0  0.71923  0.67193  0.43930  1.0000
  C   C4        1.0  0.28077  0.32807  0.56070  1.0000
  C   C5        1.0  0.72880  0.79078  0.43053  1.0000
  C   C6        1.0  0.27120  0.20922  0.56947  1.0000
  C   C7        1.0  0.61117  0.85361  0.47259  1.0000
  C   C8        1.0  0.38883  0.14639  0.52741  1.0000
  C   C9        1.0  0.48646  0.80035  0.52397  1.0000
  C   C10       1.0  0.51354  0.19965  0.47603  1.0000
  C   C11       1.0  0.47617  0.68255  0.53448  1.0000
  C   C12       1.0  0.52383  0.31745  0.46552  1.0000
  C   C13       1.0  0.59226  0.62035  0.49172  1.0000
  C   C14       1.0  0.40774  0.37965  0.50828  1.0000
  C   C15       1.0  0.87710  0.12217  0.20551  1.0000
  C   C16       1.0  0.12290  0.87783  0.79449  1.0000
  C   C17       1.0  0.89688  0.24921  0.15807  1.0000
  C   C18       1.0  0.10312  0.75079  0.84193  1.0000
  C   C19       1.0  0.93012  0.31936  0.02755  1.0000
  C   C20       1.0  0.06988  0.68064  0.97245  1.0000
  C   C21       1.0  0.93893  0.26707  0.94468  1.0000
  C   C22       1.0  0.06107  0.73293  0.05532  1.0000
  C   C23       1.0  0.91112  0.14338  0.99316  1.0000
  C   C24       1.0  0.08888  0.85662  0.00684  1.0000
  C   C25       1.0  0.88085  0.07183  0.12163  1.0000
  C   C26       1.0  0.11914  0.92817  0.87837  1.0000
  C   C27       1.0  0.87838  0.30711  0.24642  1.0000
  C   C28       1.0  0.12162  0.69289  0.75357  1.0000
  C   C29       1.0  0.75334  0.48419  0.72814  1.0000
  C   C30       1.0  0.24666  0.51581  0.27186  1.0000
  C   C31       1.0  0.64221  0.55725  0.78304  1.0000
  C   C32       1.0  0.35779  0.44275  0.21696  1.0000
  C   C33       1.0  0.65717  0.66707  0.79176  1.0000
  C   C34       1.0  0.34284  0.33293  0.20824  1.0000
  C   C35       1.0  0.54194  0.72659  0.84615  1.0000
  C   C36       1.0  0.45806  0.27341  0.15385  1.0000
  C   C37       1.0  0.41529  0.68035  0.89099  1.0000
  C   C38       1.0  0.58471  0.31965  0.10901  1.0000
  C   C39       1.0  0.39997  0.57235  0.88293  1.0000
  C   C40       1.0  0.60003  0.42765  0.11707  1.0000
  C   C41       1.0  0.51289  0.51261  0.82895  1.0000
  C   C42       1.0  0.48711  0.48739  0.17105  1.0000
  C   C43       1.0  0.73071  0.87110  0.90986  1.0000
  C   C44       1.0  0.26929  0.12890  0.09014  1.0000
  C   C45       1.0  0.68566  0.96956  0.95061  1.0000
  C   C46       1.0  0.31434  0.03044  0.04938  1.0000
  C   C47       1.0  0.63664  0.94799  0.08137  1.0000
  C   C48       1.0  0.36336  0.05201  0.91863  1.0000
  C   C49       1.0  0.63365  0.83211  0.17166  1.0000
  C   C50       1.0  0.36635  0.16789  0.82834  1.0000
  C   C51       1.0  0.68229  0.73586  0.13070  1.0000
  C   C52       1.0  0.31771  0.26414  0.86930  1.0000
  C   C53       1.0  0.72908  0.75496  0.00187  1.0000
  C   C54       1.0  0.27092  0.24505  0.99813  1.0000
  C   C55       1.0  0.69448  0.09376  0.85566  1.0000
  C   C56       1.0  0.30552  0.90624  0.14434  1.0000
  S   S1        1.0  0.88862  0.85835  0.36506  1.0000
  S   S2        1.0  0.11138  0.14165  0.63494  1.0000
  S   S3        1.0  0.85427  0.03072  0.36679  1.0000
  S   S4        1.0  0.14573  0.96928  0.63321  1.0000
  S   S5        1.0  0.81778  0.72705  0.73971  1.0000
  S   S6        1.0  0.18222  0.27295  0.26028  1.0000
  S   S7        1.0  0.78325  0.89771  0.74490  1.0000
  S   S8        1.0  0.21675  0.10229  0.25510  1.0000
  O   O1        1.0  0.81752  0.50624  0.37714  1.0000
  O   O2        1.0  0.18248  0.49376  0.62286  1.0000
  O   O3        1.0  0.95104  0.62527  0.37908  1.0000
  O   O4        1.0  0.04895  0.37473  0.62093  1.0000
  O   O5        1.0  0.84735  0.24705  0.36267  1.0000
  O   O6        1.0  0.15265  0.75295  0.63733  1.0000
  O   O7        1.0  0.89401  0.42739  0.19430  1.0000
  O   O8        1.0  0.10599  0.57261  0.80570  1.0000
  O   O9        1.0  0.73485  0.39081  0.71711  1.0000
  O   O10       1.0  0.26515  0.60919  0.28289  1.0000
  O   O11       1.0  0.87502  0.52262  0.69009  1.0000
  O   O12       1.0  0.12498  0.47738  0.30991  1.0000
  O   O13       1.0  0.74812  0.11649  0.73883  1.0000
  O   O14       1.0  0.25188  0.88351  0.26117  1.0000
  O   O15       1.0  0.64393  0.17951  0.90374  1.0000
  O   O16       1.0  0.35607  0.82049  0.09626  1.0000
