data_image0
_chemical_formula_structural       Cu4H64C40N16O12
_chemical_formula_sum              "Cu4 H64 C40 N16 O12"
_cell_length_a       8.38038
_cell_length_b       11.6822
_cell_length_c       13.9854
_cell_angle_alpha    89.9999
_cell_angle_beta     89.9997
_cell_angle_gamma    108.373

_space_group_name_H-M_alt    "P 1"
_space_group_IT_number       1

loop_
  _space_group_symop_operation_xyz
  'x, y, z'

loop_
  _atom_site_type_symbol
  _atom_site_label
  _atom_site_symmetry_multiplicity
  _atom_site_fract_x
  _atom_site_fract_y
  _atom_site_fract_z
  _atom_site_occupancy
  Cu  Cu1       1.0  0.19543  0.21638  0.75475  1.0000
  Cu  Cu2       1.0  0.30462  0.28361  0.25475  1.0000
  Cu  Cu3       1.0  0.80461  0.78360  0.24524  1.0000
  Cu  Cu4       1.0  0.69542  0.71639  0.74526  1.0000
  H   H1        1.0  0.85230  0.50330  0.78927  1.0000
  H   H2        1.0  0.64771  0.99670  0.28928  1.0000
  H   H3        1.0  0.14773  0.49670  0.21072  1.0000
  H   H4        1.0  0.35227  0.00330  0.71072  1.0000
  H   H5        1.0  0.49083  0.44901  0.66423  1.0000
  H   H6        1.0  0.00917  0.05099  0.16422  1.0000
  H   H7        1.0  0.50917  0.55098  0.33577  1.0000
  H   H8        1.0  0.99083  0.94902  0.83578  1.0000
  H   H9        1.0  0.50900  0.60716  0.93630  1.0000
  H   H10       1.0  0.99096  0.89284  0.43629  1.0000
  H   H11       1.0  0.49096  0.39282  0.06371  1.0000
  H   H12       1.0  0.00903  0.10717  0.56372  1.0000
  H   H13       1.0  0.28782  0.37238  0.94198  1.0000
  H   H14       1.0  0.21216  0.12761  0.44198  1.0000
  H   H15       1.0  0.71216  0.62760  0.05800  1.0000
  H   H16       1.0  0.78783  0.87239  0.55801  1.0000
  H   H17       1.0  0.13418  0.47549  0.75743  1.0000
  H   H18       1.0  0.36582  0.02451  0.25744  1.0000
  H   H19       1.0  0.86584  0.52451  0.24255  1.0000
  H   H20       1.0  0.63416  0.97549  0.74257  1.0000
  H   H21       1.0  0.62052  0.29591  0.81625  1.0000
  H   H22       1.0  0.87948  0.20409  0.31626  1.0000
  H   H23       1.0  0.37949  0.70410  0.18374  1.0000
  H   H24       1.0  0.12050  0.79590  0.68374  1.0000
  H   H25       1.0  0.79527  0.12827  0.80316  1.0000
  H   H26       1.0  0.70473  0.37173  0.30318  1.0000
  H   H27       1.0  0.20474  0.87173  0.19683  1.0000
  H   H28       1.0  0.29528  0.62827  0.69683  1.0000
  H   H29       1.0  0.67321  0.19274  0.60025  1.0000
  H   H30       1.0  0.82679  0.30728  0.10027  1.0000
  H   H31       1.0  0.32680  0.80724  0.39974  1.0000
  H   H32       1.0  0.17321  0.69274  0.89975  1.0000
  H   H33       1.0  0.57153  0.19339  0.48746  1.0000
  H   H34       1.0  0.92848  0.30661  0.98746  1.0000
  H   H35       1.0  0.42849  0.80658  0.51255  1.0000
  H   H36       1.0  0.07152  0.69339  0.01255  1.0000
  H   H37       1.0  0.51987  0.06043  0.56031  1.0000
  H   H38       1.0  0.98015  0.43957  0.06032  1.0000
  H   H39       1.0  0.48015  0.93955  0.43969  1.0000
  H   H40       1.0  0.01986  0.56043  0.93969  1.0000
  H   H41       1.0  0.38794  0.06781  0.87991  1.0000
  H   H42       1.0  0.11206  0.43218  0.37991  1.0000
  H   H43       1.0  0.61208  0.93221  0.12009  1.0000
  H   H44       1.0  0.88792  0.56781  0.62008  1.0000
  H   H45       1.0  0.42546  0.17070  0.97718  1.0000
  H   H46       1.0  0.07455  0.32930  0.47718  1.0000
  H   H47       1.0  0.57455  0.82932  0.02282  1.0000
  H   H48       1.0  0.92545  0.67070  0.52282  1.0000
  H   H49       1.0  0.17686  0.91176  0.97971  1.0000
  H   H50       1.0  0.32316  0.58824  0.47971  1.0000
  H   H51       1.0  0.82317  0.08825  0.02029  1.0000
  H   H52       1.0  0.67683  0.41176  0.52028  1.0000
  H   H53       1.0  0.21217  0.01609  0.07584  1.0000
  H   H54       1.0  0.28784  0.48392  0.57584  1.0000
  H   H55       1.0  0.78785  0.98393  0.92416  1.0000
  H   H56       1.0  0.71216  0.51609  0.42415  1.0000
  H   H57       1.0  0.37559  0.95959  0.03815  1.0000
  H   H58       1.0  0.12442  0.54041  0.53815  1.0000
  H   H59       1.0  0.62443  0.04044  0.96185  1.0000
  H   H60       1.0  0.87557  0.45959  0.46185  1.0000
  H   H61       1.0  0.15511  0.16981  0.96438  1.0000
  H   H62       1.0  0.34491  0.33019  0.46438  1.0000
  H   H63       1.0  0.84490  0.83019  0.03562  1.0000
  H   H64       1.0  0.65510  0.66982  0.53561  1.0000
  C   C1        1.0  0.46517  0.45926  0.73908  1.0000
  C   C2        1.0  0.03481  0.04075  0.23908  1.0000
  C   C3        1.0  0.53481  0.54074  0.26092  1.0000
  C   C4        1.0  0.96517  0.95926  0.76093  1.0000
  C   C5        1.0  0.47146  0.53938  0.88070  1.0000
  C   C6        1.0  0.02852  0.96061  0.38069  1.0000
  C   C7        1.0  0.52854  0.46060  0.11930  1.0000
  C   C8        1.0  0.97147  0.03939  0.61931  1.0000
  C   C9        1.0  0.36283  0.42280  0.88366  1.0000
  C   C10       1.0  0.13716  0.07719  0.38365  1.0000
  C   C11       1.0  0.63718  0.57717  0.11635  1.0000
  C   C12       1.0  0.86282  0.92282  0.61635  1.0000
  C   C13       1.0  0.01908  0.40268  0.77026  1.0000
  C   C14       1.0  0.48091  0.09732  0.27027  1.0000
  C   C15       1.0  0.98093  0.59732  0.22973  1.0000
  C   C16       1.0  0.51907  0.90268  0.72974  1.0000
  C   C17       1.0  0.75171  0.30702  0.80230  1.0000
  C   C18       1.0  0.74829  0.19299  0.30231  1.0000
  C   C19       1.0  0.24830  0.69299  0.19769  1.0000
  C   C20       1.0  0.25170  0.80701  0.69769  1.0000
  C   C21       1.0  0.83847  0.22512  0.79455  1.0000
  C   C22       1.0  0.66152  0.27488  0.29455  1.0000
  C   C23       1.0  0.16153  0.77489  0.20544  1.0000
  C   C24       1.0  0.33847  0.72512  0.70545  1.0000
  C   C25       1.0  0.41996  0.19722  0.61216  1.0000
  C   C26       1.0  0.08004  0.30279  0.11216  1.0000
  C   C27       1.0  0.58004  0.80278  0.38783  1.0000
  C   C28       1.0  0.91995  0.69721  0.88785  1.0000
  C   C29       1.0  0.55399  0.15915  0.56089  1.0000
  C   C30       1.0  0.94600  0.34085  0.06088  1.0000
  C   C31       1.0  0.44601  0.84083  0.43912  1.0000
  C   C32       1.0  0.05399  0.65915  0.93912  1.0000
  C   C33       1.0  0.32988  0.09353  0.94343  1.0000
  C   C34       1.0  0.17013  0.40647  0.44344  1.0000
  C   C35       1.0  0.67014  0.90649  0.05657  1.0000
  C   C36       1.0  0.82987  0.59353  0.55656  1.0000
  C   C37       1.0  0.27050  0.98898  0.01324  1.0000
  C   C38       1.0  0.22951  0.51102  0.51323  1.0000
  C   C39       1.0  0.72952  0.01103  0.98677  1.0000
  C   C40       1.0  0.77048  0.48898  0.48676  1.0000
  N   N1        1.0  0.35974  0.37267  0.79391  1.0000
  N   N2        1.0  0.14025  0.12733  0.29390  1.0000
  N   N3        1.0  0.64026  0.62732  0.20609  1.0000
  N   N4        1.0  0.85974  0.87268  0.70610  1.0000
  N   N5        1.0  0.00522  0.28591  0.77471  1.0000
  N   N6        1.0  0.49477  0.21409  0.27472  1.0000
  N   N7        1.0  0.99478  0.71409  0.22527  1.0000
  N   N8        1.0  0.50522  0.78591  0.72529  1.0000
  N   N9        1.0  0.53562  0.56132  0.78930  1.0000
  N   N10       1.0  0.96436  0.93868  0.28929  1.0000
  N   N11       1.0  0.46437  0.43867  0.21070  1.0000
  N   N12       1.0  0.03563  0.06132  0.71071  1.0000
  N   N13       1.0  0.86839  0.41848  0.78608  1.0000
  N   N14       1.0  0.63161  0.08152  0.28609  1.0000
  N   N15       1.0  0.13162  0.58153  0.21391  1.0000
  N   N16       1.0  0.36837  0.91848  0.71391  1.0000
  O   O1        1.0  0.38453  0.15718  0.69865  1.0000
  O   O2        1.0  0.11545  0.34282  0.19865  1.0000
  O   O3        1.0  0.61545  0.84281  0.30134  1.0000
  O   O4        1.0  0.88453  0.65718  0.80136  1.0000
  O   O5        1.0  0.19227  0.13048  0.90926  1.0000
  O   O6        1.0  0.30773  0.36952  0.40925  1.0000
  O   O7        1.0  0.80774  0.86953  0.09075  1.0000
  O   O8        1.0  0.69227  0.63049  0.59074  1.0000
  O   O9        1.0  0.34841  0.26448  0.57262  1.0000
  O   O10       1.0  0.15159  0.23554  0.07262  1.0000
  O   O11       1.0  0.65160  0.73552  0.42737  1.0000
  O   O12       1.0  0.84839  0.76446  0.92739  1.0000
