data_image0
_chemical_formula_structural       Ag4H24C24S4N4Cl8O16
_chemical_formula_sum              "Ag4 H24 C24 S4 N4 Cl8 O16"
_cell_length_a       6.91972
_cell_length_b       7.1082
_cell_length_c       20.1277
_cell_angle_alpha    89.9996
_cell_angle_beta     91.9436
_cell_angle_gamma    89.9997

_space_group_name_H-M_alt    "P 1"
_space_group_IT_number       1

loop_
  _space_group_symop_operation_xyz
  'x, y, z'

loop_
  _atom_site_type_symbol
  _atom_site_label
  _atom_site_symmetry_multiplicity
  _atom_site_fract_x
  _atom_site_fract_y
  _atom_site_fract_z
  _atom_site_occupancy
  Ag  Ag1       1.0  0.23861  0.04227  0.54851  1.0000
  Ag  Ag2       1.0  0.76139  0.54228  0.95149  1.0000
  Ag  Ag3       1.0  0.76139  0.95773  0.45149  1.0000
  Ag  Ag4       1.0  0.23862  0.45773  0.04851  1.0000
  H   H1        1.0  0.97407  0.08023  0.80377  1.0000
  H   H2        1.0  0.02592  0.58024  0.69623  1.0000
  H   H3        1.0  0.02593  0.91976  0.19623  1.0000
  H   H4        1.0  0.97407  0.41976  0.30377  1.0000
  H   H5        1.0  0.56336  0.32161  0.69998  1.0000
  H   H6        1.0  0.43663  0.82161  0.80001  1.0000
  H   H7        1.0  0.43664  0.67839  0.30002  1.0000
  H   H8        1.0  0.56336  0.17840  0.19999  1.0000
  H   H9        1.0  0.13572  0.36132  0.60020  1.0000
  H   H10       1.0  0.86427  0.86132  0.89980  1.0000
  H   H11       1.0  0.86428  0.63868  0.39980  1.0000
  H   H12       1.0  0.13573  0.13868  0.10020  1.0000
  H   H13       1.0  0.37946  0.36556  0.60145  1.0000
  H   H14       1.0  0.62054  0.86556  0.89855  1.0000
  H   H15       1.0  0.62054  0.63445  0.39855  1.0000
  H   H16       1.0  0.37946  0.13444  0.10145  1.0000
  H   H17       1.0  0.07853  0.70177  0.52654  1.0000
  H   H18       1.0  0.92147  0.20178  0.97346  1.0000
  H   H19       1.0  0.92147  0.29823  0.47346  1.0000
  H   H20       1.0  0.07853  0.79823  0.02654  1.0000
  H   H21       1.0  0.24378  0.70893  0.47262  1.0000
  H   H22       1.0  0.75622  0.20894  0.02738  1.0000
  H   H23       1.0  0.75622  0.29107  0.52738  1.0000
  H   H24       1.0  0.24378  0.79107  0.97262  1.0000
  C   C1        1.0  0.26386  0.24686  0.68324  1.0000
  C   C2        1.0  0.73614  0.74685  0.81676  1.0000
  C   C3        1.0  0.73614  0.75314  0.31676  1.0000
  C   C4        1.0  0.26386  0.25314  0.18324  1.0000
  C   C5        1.0  0.10005  0.17301  0.71369  1.0000
  C   C6        1.0  0.89994  0.67301  0.78631  1.0000
  C   C7        1.0  0.89994  0.82699  0.28631  1.0000
  C   C8        1.0  0.10006  0.32699  0.21369  1.0000
  C   C9        1.0  0.10346  0.13345  0.78127  1.0000
  C   C10       1.0  0.89654  0.63345  0.71873  1.0000
  C   C11       1.0  0.89654  0.86655  0.21873  1.0000
  C   C12       1.0  0.10346  0.36654  0.28127  1.0000
  C   C13       1.0  0.27019  0.16290  0.82079  1.0000
  C   C14       1.0  0.72981  0.66290  0.67921  1.0000
  C   C15       1.0  0.72981  0.83710  0.17921  1.0000
  C   C16       1.0  0.27019  0.33710  0.32079  1.0000
  C   C17       1.0  0.43641  0.22870  0.79018  1.0000
  C   C18       1.0  0.56359  0.72870  0.70982  1.0000
  C   C19       1.0  0.56359  0.77130  0.20982  1.0000
  C   C20       1.0  0.43641  0.27131  0.29018  1.0000
  C   C21       1.0  0.43289  0.27027  0.72255  1.0000
  C   C22       1.0  0.56710  0.77027  0.77745  1.0000
  C   C23       1.0  0.56711  0.72973  0.27745  1.0000
  C   C24       1.0  0.43290  0.22973  0.22255  1.0000
  S   S1        1.0  0.25960  0.12022  0.90814  1.0000
  S   S2        1.0  0.74040  0.62022  0.59186  1.0000
  S   S3        1.0  0.74040  0.87978  0.09185  1.0000
  S   S4        1.0  0.25960  0.37979  0.40815  1.0000
  N   N1        1.0  0.25961  0.28928  0.61456  1.0000
  N   N2        1.0  0.74038  0.78928  0.88544  1.0000
  N   N3        1.0  0.74039  0.71072  0.38544  1.0000
  N   N4        1.0  0.25962  0.21072  0.11456  1.0000
  Cl  Cl1       1.0  0.65165  0.26025  0.83487  1.0000
  Cl  Cl2       1.0  0.34834  0.76024  0.66513  1.0000
  Cl  Cl3       1.0  0.34835  0.73975  0.16513  1.0000
  Cl  Cl4       1.0  0.65165  0.23975  0.33487  1.0000
  Cl  Cl5       1.0  0.89546  0.12417  0.66567  1.0000
  Cl  Cl6       1.0  0.10454  0.62417  0.83433  1.0000
  Cl  Cl7       1.0  0.10455  0.87583  0.33433  1.0000
  Cl  Cl8       1.0  0.89545  0.37582  0.16567  1.0000
  O   O1        1.0  0.37860  0.95121  0.92265  1.0000
  O   O2        1.0  0.62140  0.45121  0.57735  1.0000
  O   O3        1.0  0.62140  0.04879  0.07735  1.0000
  O   O4        1.0  0.37860  0.54880  0.42265  1.0000
  O   O5        1.0  0.05295  0.08092  0.91913  1.0000
  O   O6        1.0  0.94705  0.58092  0.58087  1.0000
  O   O7        1.0  0.94705  0.91908  0.08087  1.0000
  O   O8        1.0  0.05295  0.41909  0.41913  1.0000
  O   O9        1.0  0.33129  0.29039  0.94132  1.0000
  O   O10       1.0  0.66870  0.79039  0.55868  1.0000
  O   O11       1.0  0.66871  0.70961  0.05868  1.0000
  O   O12       1.0  0.33129  0.20962  0.44132  1.0000
  O   O13       1.0  0.14997  0.78658  0.49666  1.0000
  O   O14       1.0  0.85004  0.28658  0.00334  1.0000
  O   O15       1.0  0.85004  0.21342  0.50334  1.0000
  O   O16       1.0  0.14996  0.71342  0.99666  1.0000
