data_image0
_chemical_formula_structural       NiH25C12N4Cl3
_chemical_formula_sum              "Ni1 H25 C12 N4 Cl3"
_cell_length_a       7.31231
_cell_length_b       7.3224
_cell_length_c       7.21557
_cell_angle_alpha    91.7482
_cell_angle_beta     91.6809
_cell_angle_gamma    92.4553

_space_group_name_H-M_alt    "P 1"
_space_group_IT_number       1

loop_
  _space_group_symop_operation_xyz
  'x, y, z'

loop_
  _atom_site_type_symbol
  _atom_site_label
  _atom_site_symmetry_multiplicity
  _atom_site_fract_x
  _atom_site_fract_y
  _atom_site_fract_z
  _atom_site_occupancy
  Ni  Ni1       1.0  0.50292  0.49745  0.49963  1.0000
  H   H1        1.0  0.45398  0.81524  0.77858  1.0000
  H   H2        1.0  0.77869  0.45388  0.81939  1.0000
  H   H3        1.0  0.22143  0.18250  0.54960  1.0000
  H   H4        1.0  0.81798  0.77861  0.45036  1.0000
  H   H5        1.0  0.54647  0.22132  0.18033  1.0000
  H   H6        1.0  0.18457  0.54571  0.22137  1.0000
  H   H7        1.0  0.58021  0.93238  0.60697  1.0000
  H   H8        1.0  0.60817  0.57633  0.93750  1.0000
  H   H9        1.0  0.39022  0.06554  0.42331  1.0000
  H   H10       1.0  0.93500  0.60994  0.57634  1.0000
  H   H11       1.0  0.42397  0.39152  0.06222  1.0000
  H   H12       1.0  0.06737  0.41985  0.39317  1.0000
  H   H13       1.0  0.71493  0.10867  0.85422  1.0000
  H   H14       1.0  0.85233  0.71425  0.11548  1.0000
  H   H15       1.0  0.14519  0.89020  0.28689  1.0000
  H   H16       1.0  0.11048  0.85465  0.71308  1.0000
  H   H17       1.0  0.28587  0.14761  0.88439  1.0000
  H   H18       1.0  0.89078  0.28500  0.14600  1.0000
  H   H19       1.0  0.64799  0.94601  0.02394  1.0000
  H   H20       1.0  0.01992  0.64980  0.95110  1.0000
  H   H21       1.0  0.97888  0.05219  0.35344  1.0000
  H   H22       1.0  0.94831  0.02074  0.64677  1.0000
  H   H23       1.0  0.35028  0.98037  0.04872  1.0000
  H   H24       1.0  0.05366  0.35173  0.97618  1.0000
  H   H25       1.0  0.99979  0.00011  1.00000  1.0000
  C   C1        1.0  0.59166  0.85353  0.73310  1.0000
  C   C2        1.0  0.73286  0.59026  0.85751  1.0000
  C   C3        1.0  0.26686  0.14479  0.41071  1.0000
  C   C4        1.0  0.85565  0.73314  0.58917  1.0000
  C   C5        1.0  0.40997  0.26714  0.14225  1.0000
  C   C6        1.0  0.14627  0.40826  0.26689  1.0000
  C   C7        1.0  0.70500  0.96289  0.88600  1.0000
  C   C8        1.0  0.88377  0.70502  0.96772  1.0000
  C   C9        1.0  0.11498  0.03576  0.29618  1.0000
  C   C10       1.0  0.96473  0.88482  0.70384  1.0000
  C   C11       1.0  0.29506  0.11631  0.03215  1.0000
  C   C12       1.0  0.03679  0.29488  0.11413  1.0000
  N   N1        1.0  0.68394  0.68245  0.68354  1.0000
  N   N2        1.0  0.31760  0.31619  0.31628  1.0000
  N   N3        1.0  0.89312  0.89299  0.89479  1.0000
  N   N4        1.0  0.10680  0.10706  0.10523  1.0000
  Cl  Cl1       1.0  0.72298  0.27597  0.50123  1.0000
  Cl  Cl2       1.0  0.48782  0.72596  0.28545  1.0000
  Cl  Cl3       1.0  0.27481  0.51097  0.71485  1.0000
