data_image0
_chemical_formula_structural       Sm2H26C32O22
_chemical_formula_sum              "Sm2 H26 C32 O22"
_cell_length_a       6.73116
_cell_length_b       10.8431
_cell_length_c       11.5164
_cell_angle_alpha    94.3429
_cell_angle_beta     100.043
_cell_angle_gamma    94.7116

_space_group_name_H-M_alt    "P 1"
_space_group_IT_number       1

loop_
  _space_group_symop_operation_xyz
  'x, y, z'

loop_
  _atom_site_type_symbol
  _atom_site_label
  _atom_site_symmetry_multiplicity
  _atom_site_fract_x
  _atom_site_fract_y
  _atom_site_fract_z
  _atom_site_occupancy
  Sm  Sm1       1.0  0.08241  0.76472  0.50053  1.0000
  Sm  Sm2       1.0  0.91759  0.23528  0.49947  1.0000
  H   H1        1.0  0.77267  0.54555  0.51953  1.0000
  H   H2        1.0  0.22733  0.45445  0.48047  1.0000
  H   H3        1.0  0.93545  0.54832  0.63245  1.0000
  H   H4        1.0  0.06455  0.45168  0.36755  1.0000
  H   H5        1.0  0.30488  0.97029  0.68919  1.0000
  H   H6        1.0  0.69512  0.02971  0.31081  1.0000
  H   H7        1.0  0.23823  0.02530  0.56441  1.0000
  H   H8        1.0  0.76176  0.97470  0.43559  1.0000
  H   H9        1.0  0.53022  0.75780  0.41695  1.0000
  H   H10       1.0  0.46978  0.24220  0.58305  1.0000
  H   H11       1.0  0.48197  0.86565  0.50524  1.0000
  H   H12       1.0  0.51803  0.13435  0.49476  1.0000
  H   H13       1.0  0.21924  0.79147  0.84131  1.0000
  H   H14       1.0  0.78076  0.20853  0.15869  1.0000
  H   H15       1.0  0.49772  0.73466  0.16698  1.0000
  H   H16       1.0  0.50229  0.26534  0.83302  1.0000
  H   H17       1.0  0.21515  0.62708  0.01498  1.0000
  H   H18       1.0  0.78486  0.37292  0.98502  1.0000
  H   H19       1.0  0.14811  0.39633  0.00204  1.0000
  H   H20       1.0  0.85190  0.60367  0.99796  1.0000
  H   H21       1.0  0.28497  0.24803  0.32139  1.0000
  H   H22       1.0  0.71504  0.75197  0.67861  1.0000
  H   H23       1.0  0.15116  0.88506  0.13178  1.0000
  H   H24       1.0  0.84883  0.11494  0.86822  1.0000
  H   H25       1.0  0.35064  0.19662  0.95652  1.0000
  H   H26       1.0  0.64936  0.80338  0.04349  1.0000
  C   C1        1.0  0.55779  0.43470  0.22585  1.0000
  C   C2        1.0  0.44221  0.56530  0.77415  1.0000
  C   C3        1.0  0.46990  0.63362  0.15790  1.0000
  C   C4        1.0  0.53011  0.36638  0.84210  1.0000
  C   C5        1.0  0.31034  0.57300  0.07408  1.0000
  C   C6        1.0  0.68967  0.42700  0.92592  1.0000
  C   C7        1.0  0.59791  0.56478  0.23078  1.0000
  C   C8        1.0  0.40210  0.43522  0.76922  1.0000
  C   C9        1.0  0.39292  0.37349  0.14373  1.0000
  C   C10       1.0  0.60708  0.62651  0.85627  1.0000
  C   C11       1.0  0.27415  0.44414  0.06646  1.0000
  C   C12       1.0  0.72586  0.55586  0.93354  1.0000
  C   C13       1.0  0.27949  0.18794  0.24053  1.0000
  C   C14       1.0  0.72050  0.81206  0.75948  1.0000
  C   C15       1.0  0.20223  0.98322  0.13343  1.0000
  C   C16       1.0  0.79777  0.01679  0.86657  1.0000
  C   C17       1.0  0.25480  0.03309  0.03310  1.0000
  C   C18       1.0  0.74520  0.96690  0.96690  1.0000
  C   C19       1.0  0.33156  0.23838  0.14054  1.0000
  C   C20       1.0  0.66844  0.76162  0.85946  1.0000
  C   C21       1.0  0.21010  0.06207  0.23639  1.0000
  C   C22       1.0  0.78990  0.93793  0.76361  1.0000
  C   C23       1.0  0.31385  0.16042  0.03642  1.0000
  C   C24       1.0  0.68615  0.83958  0.96358  1.0000
  C   C25       1.0  0.25372  0.95693  0.92001  1.0000
  C   C26       1.0  0.74628  0.04307  0.08000  1.0000
  C   C27       1.0  0.13953  0.01566  0.34263  1.0000
  C   C28       1.0  0.86046  0.98434  0.65737  1.0000
  C   C29       1.0  0.68398  0.36721  0.31571  1.0000
  C   C30       1.0  0.31602  0.63279  0.68429  1.0000
  C   C31       1.0  0.77591  0.63358  0.31291  1.0000
  C   C32       1.0  0.22409  0.36642  0.68709  1.0000
  O   O1        1.0  0.86190  0.60434  0.58030  1.0000
  O   O2        1.0  0.13811  0.39566  0.41970  1.0000
  O   O3        1.0  0.29890  0.95486  0.60197  1.0000
  O   O4        1.0  0.70110  0.04514  0.39803  1.0000
  O   O5        1.0  0.42191  0.78954  0.45688  1.0000
  O   O6        1.0  0.57809  0.21046  0.54312  1.0000
  O   O7        1.0  0.13667  0.09777  0.42966  1.0000
  O   O8        1.0  0.86333  0.90223  0.57034  1.0000
  O   O9        1.0  0.08821  0.90148  0.34443  1.0000
  O   O10       1.0  0.91179  0.09852  0.65557  1.0000
  O   O11       1.0  0.20621  0.83552  0.92124  1.0000
  O   O12       1.0  0.79378  0.16448  0.07876  1.0000
  O   O13       1.0  0.29760  0.00565  0.83264  1.0000
  O   O14       1.0  0.70239  0.99435  0.16736  1.0000
  O   O15       1.0  0.76709  0.27008  0.28561  1.0000
  O   O16       1.0  0.23291  0.72992  0.71439  1.0000
  O   O17       1.0  0.70892  0.40792  0.42426  1.0000
  O   O18       1.0  0.29108  0.59208  0.57574  1.0000
  O   O19       1.0  0.95362  0.59758  0.32463  1.0000
  O   O20       1.0  0.04639  0.40242  0.67537  1.0000
  O   O21       1.0  0.74422  0.73273  0.37197  1.0000
  O   O22       1.0  0.25578  0.26727  0.62802  1.0000
