data_image0
_chemical_formula_structural       Ag4H36C42N8O16
_chemical_formula_sum              "Ag4 H36 C42 N8 O16"
_cell_length_a       9.50401
_cell_length_b       10.9375
_cell_length_c       12.4773
_cell_angle_alpha    78.8656
_cell_angle_beta     85.4753
_cell_angle_gamma    64.9331

_space_group_name_H-M_alt    "P 1"
_space_group_IT_number       1

loop_
  _space_group_symop_operation_xyz
  'x, y, z'

loop_
  _atom_site_type_symbol
  _atom_site_label
  _atom_site_symmetry_multiplicity
  _atom_site_fract_x
  _atom_site_fract_y
  _atom_site_fract_z
  _atom_site_occupancy
  Ag  Ag1       1.0  0.39154  0.40774  0.48222  1.0000
  Ag  Ag2       1.0  0.60846  0.59226  0.51778  1.0000
  Ag  Ag3       1.0  0.43056  0.13921  0.59134  1.0000
  Ag  Ag4       1.0  0.56944  0.86079  0.40866  1.0000
  H   H1        1.0  0.27356  0.25381  0.96457  1.0000
  H   H2        1.0  0.72644  0.74619  0.03543  1.0000
  H   H3        1.0  0.54580  0.12155  0.90379  1.0000
  H   H4        1.0  0.45420  0.87845  0.09621  1.0000
  H   H5        1.0  0.76065  0.02266  0.03929  1.0000
  H   H6        1.0  0.23935  0.97734  0.96071  1.0000
  H   H7        1.0  0.70739  0.05658  0.23279  1.0000
  H   H8        1.0  0.29261  0.94342  0.76721  1.0000
  H   H9        1.0  0.51002  0.49981  0.79403  1.0000
  H   H10       1.0  0.48998  0.50019  0.20597  1.0000
  H   H11       1.0  0.63377  0.52542  0.95138  1.0000
  H   H12       1.0  0.36622  0.47458  0.04862  1.0000
  H   H13       1.0  0.88275  0.33715  0.02945  1.0000
  H   H14       1.0  0.11725  0.66286  0.97055  1.0000
  H   H15       1.0  0.99665  0.12015  0.95485  1.0000
  H   H16       1.0  0.00335  0.87985  0.04515  1.0000
  H   H17       1.0  0.88084  0.52289  0.67183  1.0000
  H   H18       1.0  0.11916  0.47711  0.32817  1.0000
  H   H19       1.0  0.89873  0.26744  0.34809  1.0000
  H   H20       1.0  0.10127  0.73256  0.65191  1.0000
  H   H21       1.0  0.80239  0.20569  0.45793  1.0000
  H   H22       1.0  0.19761  0.79431  0.54207  1.0000
  H   H23       1.0  0.72455  0.38382  0.40372  1.0000
  H   H24       1.0  0.27545  0.61618  0.59628  1.0000
  H   H25       1.0  0.26857  0.02199  0.51799  1.0000
  H   H26       1.0  0.73143  0.97801  0.48201  1.0000
  H   H27       1.0  0.07940  0.03146  0.50160  1.0000
  H   H28       1.0  0.92060  0.96854  0.49840  1.0000
  H   H29       1.0  0.16207  0.10938  0.39419  1.0000
  H   H30       1.0  0.83793  0.89062  0.60582  1.0000
  H   H31       1.0  0.25880  0.25891  0.78572  1.0000
  H   H32       1.0  0.74120  0.74109  0.21428  1.0000
  H   H33       1.0  0.26265  0.40664  0.70077  1.0000
  H   H34       1.0  0.73735  0.59336  0.29923  1.0000
  H   H35       1.0  0.10816  0.42584  0.79589  1.0000
  H   H36       1.0  0.89184  0.57416  0.20411  1.0000
  C   C1        1.0  0.94043  0.43528  0.63061  1.0000
  C   C2        1.0  0.05957  0.56472  0.36939  1.0000
  C   C3        1.0  0.09351  0.34348  0.65599  1.0000
  C   C4        1.0  0.90650  0.65652  0.34402  1.0000
  C   C5        1.0  0.59467  0.28175  0.69589  1.0000
  C   C6        1.0  0.40533  0.71825  0.30411  1.0000
  C   C7        1.0  0.68108  0.29713  0.78469  1.0000
  C   C8        1.0  0.31892  0.70288  0.21530  1.0000
  C   C9        1.0  0.46149  0.17354  0.20822  1.0000
  C   C10       1.0  0.53851  0.82646  0.79177  1.0000
  C   C11       1.0  0.92610  0.31167  0.50415  1.0000
  C   C12       1.0  0.07390  0.68833  0.49585  1.0000
  C   C13       1.0  0.61274  0.09885  0.17351  1.0000
  C   C14       1.0  0.38726  0.90115  0.82649  1.0000
  C   C15       1.0  0.64261  0.08088  0.06511  1.0000
  C   C16       1.0  0.35739  0.91912  0.93489  1.0000
  C   C17       1.0  0.34232  0.22688  0.12992  1.0000
  C   C18       1.0  0.65768  0.77311  0.87008  1.0000
  C   C19       1.0  0.08071  0.21565  0.53082  1.0000
  C   C20       1.0  0.91929  0.78435  0.46918  1.0000
  C   C21       1.0  0.37118  0.21016  0.02102  1.0000
  C   C22       1.0  0.62882  0.78984  0.97898  1.0000
  C   C23       1.0  0.52223  0.13692  0.98827  1.0000
  C   C24       1.0  0.47777  0.86308  0.01173  1.0000
  C   C25       1.0  0.44079  0.20554  0.32226  1.0000
  C   C26       1.0  0.55921  0.79446  0.67774  1.0000
  C   C27       1.0  0.89040  0.20438  0.92007  1.0000
  C   C28       1.0  0.10960  0.79562  0.07994  1.0000
  C   C29       1.0  0.81780  0.19182  0.83275  1.0000
  C   C30       1.0  0.18220  0.80818  0.16725  1.0000
  C   C31       1.0  0.61656  0.41700  0.82979  1.0000
  C   C32       1.0  0.38344  0.58300  0.17021  1.0000
  C   C33       1.0  0.68698  0.43112  0.91774  1.0000
  C   C34       1.0  0.31301  0.56888  0.08226  1.0000
  C   C35       1.0  0.83311  0.29172  0.42342  1.0000
  C   C36       1.0  0.16689  0.70828  0.57658  1.0000
  C   C37       1.0  0.15284  0.08783  0.48336  1.0000
  C   C38       1.0  0.84716  0.91217  0.51664  1.0000
  C   C39       1.0  0.18469  0.36016  0.73994  1.0000
  C   C40       1.0  0.81531  0.63984  0.26006  1.0000
  C   C41       1.0  0.82507  0.32564  0.96240  1.0000
  C   C42       1.0  0.17493  0.67436  0.03760  1.0000
  N   N1        1.0  0.16330  0.23597  0.60292  1.0000
  N   N2        1.0  0.83670  0.76403  0.39708  1.0000
  N   N3        1.0  0.18093  0.30245  0.16023  1.0000
  N   N4        1.0  0.81907  0.69755  0.83977  1.0000
  N   N5        1.0  0.85983  0.42145  0.55359  1.0000
  N   N6        1.0  0.14017  0.57855  0.44641  1.0000
  N   N7        1.0  0.89275  0.06174  0.79146  1.0000
  N   N8        1.0  0.10725  0.93826  0.20854  1.0000
  O   O1        1.0  0.47619  0.10639  0.40215  1.0000
  O   O2        1.0  0.52381  0.89361  0.59785  1.0000
  O   O3        1.0  0.39966  0.33056  0.32679  1.0000
  O   O4        1.0  0.60034  0.66944  0.67321  1.0000
  O   O5        1.0  0.59189  0.16594  0.70152  1.0000
  O   O6        1.0  0.40811  0.83406  0.29848  1.0000
  O   O7        1.0  0.52614  0.39007  0.62573  1.0000
  O   O8        1.0  0.47386  0.60993  0.37427  1.0000
  O   O9        1.0  0.14491  0.28496  0.25815  1.0000
  O   O10       1.0  0.85509  0.71504  0.74185  1.0000
  O   O11       1.0  0.08743  0.38039  0.08653  1.0000
  O   O12       1.0  0.91257  0.61961  0.91347  1.0000
  O   O13       1.0  0.91846  0.95453  0.85867  1.0000
  O   O14       1.0  0.08154  0.04547  0.14133  1.0000
  O   O15       1.0  0.93076  0.06586  0.69424  1.0000
  O   O16       1.0  0.06924  0.93414  0.30576  1.0000
