data_image0
_chemical_formula_structural       Li2H52C30N4
_chemical_formula_sum              "Li2 H52 C30 N4"
_cell_length_a       8.25842
_cell_length_b       8.94189
_cell_length_c       10.8711
_cell_angle_alpha    75.1458
_cell_angle_beta     88.5416
_cell_angle_gamma    73.542

_space_group_name_H-M_alt    "P 1"
_space_group_IT_number       1

loop_
  _space_group_symop_operation_xyz
  'x, y, z'

loop_
  _atom_site_type_symbol
  _atom_site_label
  _atom_site_symmetry_multiplicity
  _atom_site_fract_x
  _atom_site_fract_y
  _atom_site_fract_z
  _atom_site_occupancy
  Li  Li1       1.0  0.36301  0.00088  0.46088  1.0000
  Li  Li2       1.0  0.63700  0.99911  0.53912  1.0000
  H   H1        1.0  0.61193  0.83197  0.38844  1.0000
  H   H2        1.0  0.38808  0.16803  0.61156  1.0000
  H   H3        1.0  0.85457  0.93759  0.00536  1.0000
  H   H4        1.0  0.14542  0.06241  0.99463  1.0000
  H   H5        1.0  0.80461  0.23447  0.94313  1.0000
  H   H6        1.0  0.19538  0.76554  0.05687  1.0000
  H   H7        1.0  0.62355  0.40023  0.07403  1.0000
  H   H8        1.0  0.37645  0.59978  0.92597  1.0000
  H   H9        1.0  0.62507  0.73177  0.25453  1.0000
  H   H10       1.0  0.37493  0.26824  0.74547  1.0000
  H   H11       1.0  0.65730  0.74501  0.02391  1.0000
  H   H12       1.0  0.34270  0.25499  0.97609  1.0000
  H   H13       1.0  0.76551  0.55283  0.12490  1.0000
  H   H14       1.0  0.23449  0.44717  0.87509  1.0000
  H   H15       1.0  0.88179  0.68594  0.04874  1.0000
  H   H16       1.0  0.11821  0.31406  0.95126  1.0000
  H   H17       1.0  0.01009  0.66758  0.26728  1.0000
  H   H18       1.0  0.98992  0.33242  0.73271  1.0000
  H   H19       1.0  0.89677  0.52947  0.34153  1.0000
  H   H20       1.0  0.10323  0.47053  0.65846  1.0000
  H   H21       1.0  0.87836  0.70634  0.39374  1.0000
  H   H22       1.0  0.12165  0.29365  0.60626  1.0000
  H   H23       1.0  0.40751  0.23071  0.35653  1.0000
  H   H24       1.0  0.59249  0.76929  0.64346  1.0000
  H   H25       1.0  0.43612  0.54422  0.17224  1.0000
  H   H26       1.0  0.56386  0.45579  0.82777  1.0000
  H   H27       1.0  0.28349  0.52063  0.28724  1.0000
  H   H28       1.0  0.71650  0.47937  0.71276  1.0000
  H   H29       1.0  0.28722  0.44232  0.15216  1.0000
  H   H30       1.0  0.71276  0.55768  0.84785  1.0000
  H   H31       1.0  0.69092  0.22387  0.44793  1.0000
  H   H32       1.0  0.30907  0.77613  0.55207  1.0000
  H   H33       1.0  0.52295  0.39387  0.46173  1.0000
  H   H34       1.0  0.47703  0.60613  0.53827  1.0000
  H   H35       1.0  0.67205  0.41369  0.34175  1.0000
  H   H36       1.0  0.32794  0.58632  0.65826  1.0000
  H   H37       1.0  0.18016  0.22357  0.22950  1.0000
  H   H38       1.0  0.81984  0.77643  0.77050  1.0000
  H   H39       1.0  0.05584  0.26806  0.35831  1.0000
  H   H40       1.0  0.94417  0.73192  0.64169  1.0000
  H   H41       1.0  0.96641  0.21441  0.23318  1.0000
  H   H42       1.0  0.03359  0.78558  0.76683  1.0000
  H   H43       1.0  0.25131  0.79371  0.32198  1.0000
  H   H44       1.0  0.74869  0.20629  0.67802  1.0000
  H   H45       1.0  0.29504  0.96072  0.21164  1.0000
  H   H46       1.0  0.70496  0.03927  0.78836  1.0000
  H   H47       1.0  0.08942  0.93147  0.20816  1.0000
  H   H48       1.0  0.91058  0.06852  0.79185  1.0000
  H   H49       1.0  0.05781  0.83350  0.47229  1.0000
  H   H50       1.0  0.94221  0.16649  0.52771  1.0000
  H   H51       1.0  0.89505  0.99930  0.38430  1.0000
  H   H52       1.0  0.10497  0.00069  0.61571  1.0000
  C   C1        1.0  0.62835  0.02490  0.26059  1.0000
  C   C2        1.0  0.37165  0.97510  0.73941  1.0000
  C   C3        1.0  0.71767  0.93270  0.17665  1.0000
  C   C4        1.0  0.28233  0.06731  0.82335  1.0000
  C   C5        1.0  0.78135  0.00954  0.06592  1.0000
  C   C6        1.0  0.21864  0.99047  0.93408  1.0000
  C   C7        1.0  0.75329  0.17680  0.02981  1.0000
  C   C8        1.0  0.24671  0.82321  0.97019  1.0000
  C   C9        1.0  0.65382  0.26889  0.10500  1.0000
  C   C10       1.0  0.34618  0.73111  0.89500  1.0000
  C   C11       1.0  0.59077  0.19737  0.21836  1.0000
  C   C12       1.0  0.40922  0.80264  0.78163  1.0000
  C   C13       1.0  0.74224  0.75163  0.21052  1.0000
  C   C14       1.0  0.25776  0.24838  0.78947  1.0000
  C   C15       1.0  0.76272  0.68075  0.09497  1.0000
  C   C16       1.0  0.23728  0.31926  0.90503  1.0000
  C   C17       1.0  0.88985  0.65836  0.30944  1.0000
  C   C18       1.0  0.11016  0.34164  0.69055  1.0000
  C   C19       1.0  0.48656  0.30080  0.29953  1.0000
  C   C20       1.0  0.51343  0.69920  0.70048  1.0000
  C   C21       1.0  0.36699  0.46053  0.22309  1.0000
  C   C22       1.0  0.63300  0.53946  0.77691  1.0000
  C   C23       1.0  0.59861  0.33447  0.39366  1.0000
  C   C24       1.0  0.40138  0.66553  0.60634  1.0000
  C   C25       1.0  0.08260  0.19069  0.29218  1.0000
  C   C26       1.0  0.91741  0.80930  0.70782  1.0000
  C   C27       1.0  0.19762  0.92110  0.27065  1.0000
  C   C28       1.0  0.80238  0.07889  0.72936  1.0000
  C   C29       1.0  0.01462  0.96612  0.44178  1.0000
  C   C30       1.0  0.98540  0.03387  0.55822  1.0000
  N   N1        1.0  0.57930  0.95396  0.37804  1.0000
  N   N2        1.0  0.42071  0.04604  0.62196  1.0000
  N   N3        1.0  0.14586  0.01929  0.36266  1.0000
  N   N4        1.0  0.85415  0.98070  0.63734  1.0000
