data_image0
_chemical_formula_structural       Hg2H16C14I4N8
_chemical_formula_sum              "Hg2 H16 C14 I4 N8"
_cell_length_a       8.16927
_cell_length_b       9.05609
_cell_length_c       9.4484
_cell_angle_alpha    89.9991
_cell_angle_beta     89.9983
_cell_angle_gamma    117.674

_space_group_name_H-M_alt    "P 1"
_space_group_IT_number       1

loop_
  _space_group_symop_operation_xyz
  'x, y, z'

loop_
  _atom_site_type_symbol
  _atom_site_label
  _atom_site_symmetry_multiplicity
  _atom_site_fract_x
  _atom_site_fract_y
  _atom_site_fract_z
  _atom_site_occupancy
  Hg  Hg1       1.0  0.12768  0.11417  0.25001  1.0000
  Hg  Hg2       1.0  0.87233  0.88585  0.74999  1.0000
  H   H1        1.0  0.67199  0.11041  0.75000  1.0000
  H   H2        1.0  0.32802  0.88958  0.25000  1.0000
  H   H3        1.0  0.43534  0.95149  0.75000  1.0000
  H   H4        1.0  0.56466  0.04851  0.24999  1.0000
  H   H5        1.0  0.23082  0.95881  0.55459  1.0000
  H   H6        1.0  0.76920  0.04120  0.05460  1.0000
  H   H7        1.0  0.76919  0.04121  0.44540  1.0000
  H   H8        1.0  0.23079  0.95880  0.94539  1.0000
  H   H9        1.0  0.57095  0.43123  0.37335  1.0000
  H   H10       1.0  0.42903  0.56874  0.87329  1.0000
  H   H11       1.0  0.42908  0.56880  0.62667  1.0000
  H   H12       1.0  0.57096  0.43124  0.12673  1.0000
  H   H13       1.0  0.74216  0.39542  0.61378  1.0000
  H   H14       1.0  0.25783  0.60458  0.11375  1.0000
  H   H15       1.0  0.25786  0.60459  0.38623  1.0000
  H   H16       1.0  0.74215  0.39539  0.88627  1.0000
  C   C1        1.0  0.52715  0.08607  0.75000  1.0000
  C   C2        1.0  0.47285  0.91393  0.25000  1.0000
  C   C3        1.0  0.34327  0.08298  0.53597  1.0000
  C   C4        1.0  0.65674  0.91702  0.03597  1.0000
  C   C5        1.0  0.65674  0.91703  0.46401  1.0000
  C   C6        1.0  0.34325  0.08297  0.96402  1.0000
  C   C7        1.0  0.52412  0.32698  0.44603  1.0000
  C   C8        1.0  0.47584  0.67298  0.94602  1.0000
  C   C9        1.0  0.47589  0.67304  0.55397  1.0000
  C   C10       1.0  0.52415  0.32699  0.05398  1.0000
  C   C11       1.0  0.61050  0.31197  0.56562  1.0000
  C   C12       1.0  0.38951  0.68804  0.06561  1.0000
  C   C13       1.0  0.38951  0.68803  0.43439  1.0000
  C   C14       1.0  0.61050  0.31195  0.93439  1.0000
  I   I1        1.0  0.96833  0.31991  0.25001  1.0000
  I   I2        1.0  0.03163  0.68006  0.74998  1.0000
  I   I3        1.0  0.94490  0.76945  0.25000  1.0000
  I   I4        1.0  0.05508  0.23057  0.75002  1.0000
  N   N1        1.0  0.35882  0.18313  0.42843  1.0000
  N   N2        1.0  0.64118  0.81686  0.92843  1.0000
  N   N3        1.0  0.64119  0.81690  0.57157  1.0000
  N   N4        1.0  0.35884  0.18313  0.07157  1.0000
  N   N5        1.0  0.49403  0.15675  0.62164  1.0000
  N   N6        1.0  0.50597  0.84325  0.12164  1.0000
  N   N7        1.0  0.50596  0.84325  0.37836  1.0000
  N   N8        1.0  0.49403  0.15673  0.87836  1.0000
