data_image0
_chemical_formula_structural       Hg2H16C14N8Cl4
_chemical_formula_sum              "Hg2 H16 C14 N8 Cl4"
_cell_length_a       6.06557
_cell_length_b       9.45165
_cell_length_c       9.49226
_cell_angle_alpha    89.9998
_cell_angle_beta     90.0011
_cell_angle_gamma    94.8924

_space_group_name_H-M_alt    "P 1"
_space_group_IT_number       1

loop_
  _space_group_symop_operation_xyz
  'x, y, z'

loop_
  _atom_site_type_symbol
  _atom_site_label
  _atom_site_symmetry_multiplicity
  _atom_site_fract_x
  _atom_site_fract_y
  _atom_site_fract_z
  _atom_site_occupancy
  Hg  Hg1       1.0  0.09017  0.19450  0.75000  1.0000
  Hg  Hg2       1.0  0.90983  0.80549  0.25000  1.0000
  H   H1        1.0  0.47255  0.49145  0.25001  1.0000
  H   H2        1.0  0.52745  0.50855  0.74999  1.0000
  H   H3        1.0  0.74804  0.43624  0.24999  1.0000
  H   H4        1.0  0.25193  0.56374  0.74999  1.0000
  H   H5        1.0  0.21470  0.39912  0.05789  1.0000
  H   H6        1.0  0.78530  0.60090  0.55789  1.0000
  H   H7        1.0  0.78533  0.60088  0.94210  1.0000
  H   H8        1.0  0.21470  0.39913  0.44211  1.0000
  H   H9        1.0  0.58185  0.08324  0.87684  1.0000
  H   H10       1.0  0.41813  0.91673  0.37683  1.0000
  H   H11       1.0  0.41813  0.91673  0.12318  1.0000
  H   H12       1.0  0.58186  0.08326  0.62315  1.0000
  H   H13       1.0  0.79786  0.18667  0.11615  1.0000
  H   H14       1.0  0.20211  0.81332  0.61617  1.0000
  H   H15       1.0  0.20208  0.81331  0.88385  1.0000
  H   H16       1.0  0.79791  0.18668  0.38384  1.0000
  C   C1        1.0  0.57120  0.39946  0.25001  1.0000
  C   C2        1.0  0.42881  0.60056  0.75001  1.0000
  C   C3        1.0  0.34082  0.32658  0.03801  1.0000
  C   C4        1.0  0.65917  0.67341  0.53801  1.0000
  C   C5        1.0  0.65918  0.67343  0.96198  1.0000
  C   C6        1.0  0.34084  0.32658  0.46200  1.0000
  C   C7        1.0  0.53608  0.16458  0.94900  1.0000
  C   C8        1.0  0.46392  0.83543  0.44901  1.0000
  C   C9        1.0  0.46387  0.83541  0.05100  1.0000
  C   C10       1.0  0.53611  0.16458  0.55099  1.0000
  C   C11       1.0  0.64581  0.21495  0.06737  1.0000
  C   C12       1.0  0.35423  0.78507  0.56737  1.0000
  C   C13       1.0  0.35419  0.78504  0.93262  1.0000
  C   C14       1.0  0.64581  0.21496  0.43260  1.0000
  N   N1        1.0  0.34768  0.23517  0.93191  1.0000
  N   N2        1.0  0.65232  0.76483  0.43191  1.0000
  N   N3        1.0  0.65231  0.76483  0.06810  1.0000
  N   N4        1.0  0.34769  0.23517  0.56811  1.0000
  N   N5        1.0  0.52058  0.31753  0.12255  1.0000
  N   N6        1.0  0.47945  0.68247  0.62254  1.0000
  N   N7        1.0  0.47948  0.68247  0.87747  1.0000
  N   N8        1.0  0.52053  0.31755  0.37746  1.0000
  Cl  Cl1       1.0  0.90611  0.42214  0.75000  1.0000
  Cl  Cl2       1.0  0.09388  0.57785  0.25001  1.0000
  Cl  Cl3       1.0  0.90904  0.95335  0.75000  1.0000
  Cl  Cl4       1.0  0.09096  0.04665  0.25000  1.0000
