data_image0
_chemical_formula_structural       Hg4H32C36N24
_chemical_formula_sum              "Hg4 H32 C36 N24"
_cell_length_a       9.20324
_cell_length_b       9.20042
_cell_length_c       14.7392
_cell_angle_alpha    101.683
_cell_angle_beta     108.174
_cell_angle_gamma    100.133

_space_group_name_H-M_alt    "P 1"
_space_group_IT_number       1

loop_
  _space_group_symop_operation_xyz
  'x, y, z'

loop_
  _atom_site_type_symbol
  _atom_site_label
  _atom_site_symmetry_multiplicity
  _atom_site_fract_x
  _atom_site_fract_y
  _atom_site_fract_z
  _atom_site_occupancy
  Hg  Hg1       1.0  0.31435  0.78296  0.85649  1.0000
  Hg  Hg2       1.0  0.42646  0.45815  0.64343  1.0000
  Hg  Hg3       1.0  0.68565  0.21704  0.14351  1.0000
  Hg  Hg4       1.0  0.57353  0.54184  0.35656  1.0000
  H   H1        1.0  0.87429  0.25595  0.96923  1.0000
  H   H2        1.0  0.78681  0.90538  0.53074  1.0000
  H   H3        1.0  0.12572  0.74407  0.03077  1.0000
  H   H4        1.0  0.21319  0.09463  0.46926  1.0000
  H   H5        1.0  0.08428  0.31256  0.03547  1.0000
  H   H6        1.0  0.77706  0.04924  0.46454  1.0000
  H   H7        1.0  0.91573  0.68745  0.96453  1.0000
  H   H8        1.0  0.22294  0.95077  0.53546  1.0000
  H   H9        1.0  0.25636  0.48696  0.97928  1.0000
  H   H10       1.0  0.00775  0.27744  0.52064  1.0000
  H   H11       1.0  0.74365  0.51303  0.02071  1.0000
  H   H12       1.0  0.99224  0.72256  0.47936  1.0000
  H   H13       1.0  0.92323  0.51783  0.71541  1.0000
  H   H14       1.0  0.30232  0.20807  0.78452  1.0000
  H   H15       1.0  0.07677  0.48217  0.28458  1.0000
  H   H16       1.0  0.69769  0.79195  0.21547  1.0000
  H   H17       1.0  0.77749  0.30044  0.78807  1.0000
  H   H18       1.0  0.01224  0.98988  0.71198  1.0000
  H   H19       1.0  0.22251  0.69956  0.21193  1.0000
  H   H20       1.0  0.98777  0.01013  0.28803  1.0000
  H   H21       1.0  0.25152  0.14334  0.96643  1.0000
  H   H22       1.0  0.67713  0.28553  0.53372  1.0000
  H   H23       1.0  0.74847  0.85666  0.03356  1.0000
  H   H24       1.0  0.32286  0.71447  0.46628  1.0000
  H   H25       1.0  0.87687  0.75155  0.78995  1.0000
  H   H26       1.0  0.46146  0.08692  0.70990  1.0000
  H   H27       1.0  0.12312  0.24845  0.21006  1.0000
  H   H28       1.0  0.53853  0.91307  0.29010  1.0000
  H   H29       1.0  0.75147  0.99302  0.84926  1.0000
  H   H30       1.0  0.64364  0.90225  0.65063  1.0000
  H   H31       1.0  0.24853  0.00698  0.15075  1.0000
  H   H32       1.0  0.35637  0.09776  0.34938  1.0000
  C   C1        1.0  0.99021  0.26443  0.96221  1.0000
  C   C2        1.0  0.80225  0.02835  0.53779  1.0000
  C   C3        1.0  0.00979  0.73557  0.03779  1.0000
  C   C4        1.0  0.19776  0.97166  0.46221  1.0000
  C   C5        1.0  0.14856  0.46862  0.91603  1.0000
  C   C6        1.0  0.05259  0.23288  0.58389  1.0000
  C   C7        1.0  0.85144  0.53138  0.08395  1.0000
  C   C8        1.0  0.94741  0.76713  0.41610  1.0000
  C   C9        1.0  0.97205  0.47865  0.78045  1.0000
  C   C10       1.0  0.19814  0.19191  0.71950  1.0000
  C   C11       1.0  0.02795  0.52135  0.21954  1.0000
  C   C12       1.0  0.80187  0.80810  0.28050  1.0000
  C   C13       1.0  0.89783  0.37078  0.81480  1.0000
  C   C14       1.0  0.05590  0.08344  0.68521  1.0000
  C   C15       1.0  0.10217  0.62921  0.18519  1.0000
  C   C16       1.0  0.94411  0.91658  0.31480  1.0000
  C   C17       1.0  0.13463  0.06630  0.92532  1.0000
  C   C18       1.0  0.64108  0.20963  0.57475  1.0000
  C   C19       1.0  0.86537  0.93370  0.07468  1.0000
  C   C20       1.0  0.35892  0.79037  0.42525  1.0000
  C   C21       1.0  0.93693  0.86811  0.83543  1.0000
  C   C22       1.0  0.53259  0.10158  0.66448  1.0000
  C   C23       1.0  0.06306  0.13190  0.16459  1.0000
  C   C24       1.0  0.46741  0.89841  0.33553  1.0000
  C   C25       1.0  0.87235  0.98590  0.86269  1.0000
  C   C26       1.0  0.62312  0.00976  0.63723  1.0000
  C   C27       1.0  0.12766  0.01410  0.13732  1.0000
  C   C28       1.0  0.37688  0.99024  0.36278  1.0000
  C   C29       1.0  0.42282  0.81915  0.00828  1.0000
  C   C30       1.0  0.31091  0.41480  0.49162  1.0000
  C   C31       1.0  0.57717  0.18083  0.99171  1.0000
  C   C32       1.0  0.68906  0.58518  0.50838  1.0000
  C   C33       1.0  0.27004  0.77104  0.70882  1.0000
  C   C34       1.0  0.56200  0.56119  0.79116  1.0000
  C   C35       1.0  0.72997  0.22899  0.29118  1.0000
  C   C36       1.0  0.43804  0.43882  0.20883  1.0000
  N   N1        1.0  0.01091  0.36616  0.90109  1.0000
  N   N2        1.0  0.96503  0.11026  0.59891  1.0000
  N   N3        1.0  0.98909  0.63384  0.09891  1.0000
  N   N4        1.0  0.03498  0.88975  0.40109  1.0000
  N   N5        1.0  0.12762  0.53884  0.84443  1.0000
  N   N6        1.0  0.19441  0.28347  0.65547  1.0000
  N   N7        1.0  0.87238  0.46115  0.15556  1.0000
  N   N8        1.0  0.80559  0.71653  0.34452  1.0000
  N   N9        1.0  0.99911  0.11077  0.91978  1.0000
  N   N10       1.0  0.69102  0.07959  0.58024  1.0000
  N   N11       1.0  0.00089  0.88923  0.08022  1.0000
  N   N12       1.0  0.30898  0.92042  0.41977  1.0000
  N   N13       1.0  0.10054  0.91989  0.87522  1.0000
  N   N14       1.0  0.54470  0.22556  0.62478  1.0000
  N   N15       1.0  0.89945  0.08011  0.12479  1.0000
  N   N16       1.0  0.45529  0.77444  0.37522  1.0000
  N   N17       1.0  0.47250  0.83767  0.09434  1.0000
  N   N18       1.0  0.24340  0.37835  0.40557  1.0000
  N   N19       1.0  0.52747  0.16233  0.90566  1.0000
  N   N20       1.0  0.75662  0.62165  0.59443  1.0000
  N   N21       1.0  0.23924  0.76195  0.62434  1.0000
  N   N22       1.0  0.63725  0.61450  0.87570  1.0000
  N   N23       1.0  0.76077  0.23805  0.37567  1.0000
  N   N24       1.0  0.36276  0.38548  0.12430  1.0000
