data_image0
_chemical_formula_structural       Hg4H32C36S8N24
_chemical_formula_sum              "Hg4 H32 C36 S8 N24"
_cell_length_a       9.15333
_cell_length_b       10.8534
_cell_length_c       13.9163
_cell_angle_alpha    90
_cell_angle_beta     107.238
_cell_angle_gamma    90

_space_group_name_H-M_alt    "P 1"
_space_group_IT_number       1

loop_
  _space_group_symop_operation_xyz
  'x, y, z'

loop_
  _atom_site_type_symbol
  _atom_site_label
  _atom_site_symmetry_multiplicity
  _atom_site_fract_x
  _atom_site_fract_y
  _atom_site_fract_z
  _atom_site_occupancy
  Hg  Hg1       1.0  0.65043  0.90610  0.33386  1.0000
  Hg  Hg2       1.0  0.84957  0.40610  0.66614  1.0000
  Hg  Hg3       1.0  0.34957  0.09390  0.66614  1.0000
  Hg  Hg4       1.0  0.15043  0.59390  0.33386  1.0000
  H   H1        1.0  0.11578  0.25612  0.27541  1.0000
  H   H2        1.0  0.38422  0.75612  0.72459  1.0000
  H   H3        1.0  0.88422  0.74388  0.72459  1.0000
  H   H4        1.0  0.61578  0.24388  0.27541  1.0000
  H   H5        1.0  0.06109  0.27455  0.14076  1.0000
  H   H6        1.0  0.43891  0.77456  0.85924  1.0000
  H   H7        1.0  0.93891  0.72545  0.85924  1.0000
  H   H8        1.0  0.56109  0.22545  0.14076  1.0000
  H   H9        1.0  0.96082  0.10906  0.34883  1.0000
  H   H10       1.0  0.53918  0.60907  0.65117  1.0000
  H   H11       1.0  0.03918  0.89093  0.65117  1.0000
  H   H12       1.0  0.46082  0.39093  0.34884  1.0000
  H   H13       1.0  0.66484  0.95493  0.08283  1.0000
  H   H14       1.0  0.83515  0.45493  0.91717  1.0000
  H   H15       1.0  0.33515  0.04507  0.91717  1.0000
  H   H16       1.0  0.16485  0.54507  0.08284  1.0000
  H   H17       1.0  0.87246  0.11306  0.03222  1.0000
  H   H18       1.0  0.62754  0.61306  0.96778  1.0000
  H   H19       1.0  0.12754  0.88694  0.96778  1.0000
  H   H20       1.0  0.37246  0.38694  0.03222  1.0000
  H   H21       1.0  0.33497  0.10282  0.35548  1.0000
  H   H22       1.0  0.16504  0.60282  0.64452  1.0000
  H   H23       1.0  0.66504  0.89718  0.64452  1.0000
  H   H24       1.0  0.83496  0.39718  0.35548  1.0000
  H   H25       1.0  0.42309  0.96610  0.09383  1.0000
  H   H26       1.0  0.07691  0.46610  0.90617  1.0000
  H   H27       1.0  0.57692  0.03391  0.90617  1.0000
  H   H28       1.0  0.92308  0.53390  0.09383  1.0000
  H   H29       1.0  0.16863  0.12251  0.03736  1.0000
  H   H30       1.0  0.33137  0.62251  0.96264  1.0000
  H   H31       1.0  0.83137  0.87750  0.96264  1.0000
  H   H32       1.0  0.66863  0.37749  0.03736  1.0000
  C   C1        1.0  0.08722  0.20834  0.20299  1.0000
  C   C2        1.0  0.41278  0.70834  0.79701  1.0000
  C   C3        1.0  0.91278  0.79166  0.79701  1.0000
  C   C4        1.0  0.58722  0.29166  0.20299  1.0000
  C   C5        1.0  0.90596  0.08583  0.27044  1.0000
  C   C6        1.0  0.59404  0.58583  0.72956  1.0000
  C   C7        1.0  0.09404  0.91417  0.72956  1.0000
  C   C8        1.0  0.40596  0.41417  0.27044  1.0000
  C   C9        1.0  0.75547  0.01124  0.13025  1.0000
  C   C10       1.0  0.74453  0.51124  0.86975  1.0000
  C   C11       1.0  0.24453  0.98876  0.86975  1.0000
  C   C12       1.0  0.25547  0.48876  0.13025  1.0000
  C   C13       1.0  0.85844  0.08583  0.10395  1.0000
  C   C14       1.0  0.64156  0.58583  0.89605  1.0000
  C   C15       1.0  0.14156  0.91417  0.89605  1.0000
  C   C16       1.0  0.35844  0.41417  0.10395  1.0000
  C   C17       1.0  0.32782  0.08560  0.27739  1.0000
  C   C18       1.0  0.17219  0.58561  0.72261  1.0000
  C   C19       1.0  0.67218  0.91439  0.72261  1.0000
  C   C20       1.0  0.82781  0.41439  0.27739  1.0000
  C   C21       1.0  0.36836  0.01857  0.13964  1.0000
  C   C22       1.0  0.13164  0.51857  0.86036  1.0000
  C   C23       1.0  0.63164  0.98143  0.86036  1.0000
  C   C24       1.0  0.86836  0.48143  0.13964  1.0000
  C   C25       1.0  0.24154  0.09266  0.11020  1.0000
  C   C26       1.0  0.25846  0.59266  0.88980  1.0000
  C   C27       1.0  0.75846  0.90734  0.88980  1.0000
  C   C28       1.0  0.74154  0.40734  0.11020  1.0000
  C   C29       1.0  0.67960  0.14681  0.46735  1.0000
  C   C30       1.0  0.82040  0.64681  0.53266  1.0000
  C   C31       1.0  0.32040  0.85319  0.53265  1.0000
  C   C32       1.0  0.17960  0.35319  0.46734  1.0000
  C   C33       1.0  0.55818  0.72891  0.14666  1.0000
  C   C34       1.0  0.94182  0.22890  0.85334  1.0000
  C   C35       1.0  0.44182  0.27109  0.85334  1.0000
  C   C36       1.0  0.05818  0.77110  0.14666  1.0000
  S   S1        1.0  0.76369  0.01074  0.49740  1.0000
  S   S2        1.0  0.73631  0.51075  0.50261  1.0000
  S   S3        1.0  0.23631  0.98925  0.50260  1.0000
  S   S4        1.0  0.26369  0.48925  0.49740  1.0000
  S   S5        1.0  0.60573  0.69323  0.26786  1.0000
  S   S6        1.0  0.89427  0.19323  0.73215  1.0000
  S   S7        1.0  0.39427  0.30677  0.73214  1.0000
  S   S8        1.0  0.10573  0.80677  0.26786  1.0000
  N   N1        1.0  0.95298  0.13219  0.19347  1.0000
  N   N2        1.0  0.54702  0.63220  0.80653  1.0000
  N   N3        1.0  0.04702  0.86780  0.80653  1.0000
  N   N4        1.0  0.45298  0.36781  0.19347  1.0000
  N   N5        1.0  0.78561  0.01301  0.23380  1.0000
  N   N6        1.0  0.71439  0.51301  0.76620  1.0000
  N   N7        1.0  0.21439  0.98699  0.76620  1.0000
  N   N8        1.0  0.28561  0.48699  0.23380  1.0000
  N   N9        1.0  0.21723  0.13423  0.19822  1.0000
  N   N10       1.0  0.28277  0.63423  0.80178  1.0000
  N   N11       1.0  0.78277  0.86577  0.80178  1.0000
  N   N12       1.0  0.71723  0.36577  0.19822  1.0000
  N   N13       1.0  0.42144  0.01567  0.24380  1.0000
  N   N14       1.0  0.07856  0.51567  0.75620  1.0000
  N   N15       1.0  0.57856  0.98433  0.75620  1.0000
  N   N16       1.0  0.92144  0.48433  0.24380  1.0000
  N   N17       1.0  0.62208  0.24466  0.44845  1.0000
  N   N18       1.0  0.87793  0.74467  0.55156  1.0000
  N   N19       1.0  0.37793  0.75533  0.55155  1.0000
  N   N20       1.0  0.12208  0.25533  0.44844  1.0000
  N   N21       1.0  0.52381  0.75119  0.05973  1.0000
  N   N22       1.0  0.97619  0.25118  0.94027  1.0000
  N   N23       1.0  0.47619  0.24881  0.94027  1.0000
  N   N24       1.0  0.02381  0.74882  0.05973  1.0000
