data_image0
_chemical_formula_structural       Ag2H16C26N2O8
_chemical_formula_sum              "Ag2 H16 C26 N2 O8"
_cell_length_a       5.15887
_cell_length_b       7.42785
_cell_length_c       14.9427
_cell_angle_alpha    104.8
_cell_angle_beta     94.0254
_cell_angle_gamma    102.611

_space_group_name_H-M_alt    "P 1"
_space_group_IT_number       1

loop_
  _space_group_symop_operation_xyz
  'x, y, z'

loop_
  _atom_site_type_symbol
  _atom_site_label
  _atom_site_symmetry_multiplicity
  _atom_site_fract_x
  _atom_site_fract_y
  _atom_site_fract_z
  _atom_site_occupancy
  Ag  Ag1       1.0  0.83840  0.14855  0.02653  1.0000
  Ag  Ag2       1.0  0.16161  0.85145  0.97347  1.0000
  H   H1        1.0  0.43898  0.84198  0.46666  1.0000
  H   H2        1.0  0.56099  0.15802  0.53334  1.0000
  H   H3        1.0  0.71820  0.52866  0.54751  1.0000
  H   H4        1.0  0.28178  0.47133  0.45249  1.0000
  H   H5        1.0  0.00621  0.39756  0.63888  1.0000
  H   H6        1.0  0.99378  0.60243  0.36112  1.0000
  H   H7        1.0  0.51349  0.96813  0.76194  1.0000
  H   H8        1.0  0.48650  0.03188  0.23806  1.0000
  H   H9        1.0  0.22500  0.09683  0.66796  1.0000
  H   H10       1.0  0.77498  0.90317  0.33204  1.0000
  H   H11       1.0  0.08875  0.35945  0.77311  1.0000
  H   H12       1.0  0.91128  0.64055  0.22689  1.0000
  H   H13       1.0  0.80258  0.42924  0.95567  1.0000
  H   H14       1.0  0.19743  0.57077  0.04433  1.0000
  H   H15       1.0  0.79287  0.82329  0.80361  1.0000
  H   H16       1.0  0.20713  0.17671  0.19639  1.0000
  C   C1        1.0  0.89240  0.62451  0.59432  1.0000
  C   C2        1.0  0.10759  0.37548  0.40568  1.0000
  C   C3        1.0  0.76240  0.90389  0.55602  1.0000
  C   C4        1.0  0.23760  0.09612  0.44399  1.0000
  C   C5        1.0  0.05404  0.55154  0.64682  1.0000
  C   C6        1.0  0.94596  0.44845  0.35319  1.0000
  C   C7        1.0  0.28482  0.20245  0.89645  1.0000
  C   C8        1.0  0.71519  0.79756  0.10355  1.0000
  C   C9        1.0  0.34062  0.87059  0.71456  1.0000
  C   C10       1.0  0.65937  0.12940  0.28544  1.0000
  C   C11       1.0  0.94869  0.82234  0.60369  1.0000
  C   C12       1.0  0.05130  0.17766  0.39631  1.0000
  C   C13       1.0  0.43078  0.37024  0.86517  1.0000
  C   C14       1.0  0.56922  0.62976  0.13483  1.0000
  C   C15       1.0  0.17807  0.94387  0.66242  1.0000
  C   C16       1.0  0.82192  0.05613  0.33758  1.0000
  C   C17       1.0  0.29604  0.43511  0.80029  1.0000
  C   C18       1.0  0.70398  0.56489  0.19971  1.0000
  C   C19       1.0  0.69148  0.47424  0.90410  1.0000
  C   C20       1.0  0.30852  0.52576  0.09590  1.0000
  C   C21       1.0  0.27525  0.67391  0.71006  1.0000
  C   C22       1.0  0.72476  0.32608  0.28995  1.0000
  C   C23       1.0  0.42167  0.59830  0.77459  1.0000
  C   C24       1.0  0.57833  0.40170  0.22541  1.0000
  C   C25       1.0  0.68319  0.69313  0.81820  1.0000
  C   C26       1.0  0.31681  0.30687  0.18180  1.0000
  N   N1        1.0  0.81340  0.63389  0.88219  1.0000
  N   N2        1.0  0.18661  0.36612  0.11781  1.0000
  O   O1        1.0  0.03349  0.14942  0.87462  1.0000
  O   O2        1.0  0.96653  0.85059  0.12538  1.0000
  O   O3        1.0  0.42129  0.12627  0.94465  1.0000
  O   O4        1.0  0.57872  0.87374  0.05535  1.0000
  O   O5        1.0  0.77931  0.08082  0.57633  1.0000
  O   O6        1.0  0.22067  0.91917  0.42367  1.0000
  O   O7        1.0  0.57495  0.77699  0.49205  1.0000
  O   O8        1.0  0.42505  0.22300  0.50795  1.0000
