data_image0
_chemical_formula_structural       Cu4H40C32N8O16
_chemical_formula_sum              "Cu4 H40 C32 N8 O16"
_cell_length_a       4.84348
_cell_length_b       12.747
_cell_length_c       16.2651
_cell_angle_alpha    89.9955
_cell_angle_beta     90.002
_cell_angle_gamma    95.726

_space_group_name_H-M_alt    "P 1"
_space_group_IT_number       1

loop_
  _space_group_symop_operation_xyz
  'x, y, z'

loop_
  _atom_site_type_symbol
  _atom_site_label
  _atom_site_symmetry_multiplicity
  _atom_site_fract_x
  _atom_site_fract_y
  _atom_site_fract_z
  _atom_site_occupancy
  Cu  Cu1       1.0  0.47052  0.67219  0.77260  1.0000
  Cu  Cu2       1.0  0.02948  0.82776  0.27259  1.0000
  Cu  Cu3       1.0  0.52948  0.32774  0.22739  1.0000
  Cu  Cu4       1.0  0.97051  0.17222  0.72740  1.0000
  H   H1        1.0  0.35718  0.55234  0.98833  1.0000
  H   H2        1.0  0.14282  0.94772  0.48827  1.0000
  H   H3        1.0  0.64289  0.44770  0.01169  1.0000
  H   H4        1.0  0.85728  0.05232  0.51169  1.0000
  H   H5        1.0  0.13673  0.63377  0.93867  1.0000
  H   H6        1.0  0.36326  0.86629  0.43861  1.0000
  H   H7        1.0  0.86328  0.36627  0.06139  1.0000
  H   H8        1.0  0.63677  0.13376  0.56130  1.0000
  H   H9        1.0  0.64705  0.68922  0.07375  1.0000
  H   H10       1.0  0.85284  0.81088  0.57373  1.0000
  H   H11       1.0  0.35284  0.31089  0.92626  1.0000
  H   H12       1.0  0.14708  0.18922  0.42625  1.0000
  H   H13       1.0  0.98962  0.84928  0.07238  1.0000
  H   H14       1.0  0.51038  0.65078  0.57240  1.0000
  H   H15       1.0  0.01033  0.15080  0.92760  1.0000
  H   H16       1.0  0.48967  0.34928  0.42761  1.0000
  H   H17       1.0  0.08172  0.94662  0.93852  1.0000
  H   H18       1.0  0.41847  0.55336  0.43858  1.0000
  H   H19       1.0  0.91838  0.05338  0.06143  1.0000
  H   H20       1.0  0.58179  0.44661  0.56146  1.0000
  H   H21       1.0  0.83446  0.87598  0.81148  1.0000
  H   H22       1.0  0.66584  0.62392  0.31154  1.0000
  H   H23       1.0  0.16574  0.12393  0.18846  1.0000
  H   H24       1.0  0.33452  0.37597  0.68850  1.0000
  H   H25       1.0  0.89600  0.53545  0.64445  1.0000
  H   H26       1.0  0.60401  0.96452  0.14448  1.0000
  H   H27       1.0  0.10401  0.46456  0.35547  1.0000
  H   H28       1.0  0.39602  0.03543  0.85554  1.0000
  H   H29       1.0  0.11111  0.81017  0.69462  1.0000
  H   H30       1.0  0.38881  0.68981  0.19465  1.0000
  H   H31       1.0  0.88883  0.18983  0.30538  1.0000
  H   H32       1.0  0.61112  0.31015  0.80543  1.0000
  H   H33       1.0  0.19769  0.50804  0.84370  1.0000
  H   H34       1.0  0.30206  0.99198  0.34362  1.0000
  H   H35       1.0  0.80205  0.49198  0.15635  1.0000
  H   H36       1.0  0.69763  0.00808  0.65633  1.0000
  H   H37       1.0  0.54367  0.51051  0.85673  1.0000
  H   H38       1.0  0.95607  0.98947  0.35666  1.0000
  H   H39       1.0  0.45603  0.48946  0.14331  1.0000
  H   H40       1.0  0.04362  0.01053  0.64333  1.0000
  C   C1        1.0  0.34536  0.60655  0.93624  1.0000
  C   C2        1.0  0.15460  0.89349  0.43621  1.0000
  C   C3        1.0  0.65462  0.39348  0.06378  1.0000
  C   C4        1.0  0.84540  0.10654  0.56376  1.0000
  C   C5        1.0  0.55782  0.70013  0.94407  1.0000
  C   C6        1.0  0.94218  0.79989  0.44406  1.0000
  C   C7        1.0  0.44218  0.29989  0.05593  1.0000
  C   C8        1.0  0.05788  0.20012  0.55593  1.0000
  C   C9        1.0  0.68934  0.73337  0.01706  1.0000
  C   C10       1.0  0.81061  0.76669  0.51706  1.0000
  C   C11       1.0  0.31061  0.26670  0.98294  1.0000
  C   C12       1.0  0.18938  0.23337  0.48294  1.0000
  C   C13       1.0  0.88177  0.82259  0.01603  1.0000
  C   C14       1.0  0.61824  0.67745  0.51605  1.0000
  C   C15       1.0  0.11819  0.17746  0.98395  1.0000
  C   C16       1.0  0.38183  0.32259  0.48396  1.0000
  C   C17       1.0  0.93564  0.87608  0.94199  1.0000
  C   C18       1.0  0.56449  0.62391  0.44203  1.0000
  C   C19       1.0  0.06442  0.12392  0.05797  1.0000
  C   C20       1.0  0.43570  0.37608  0.55800  1.0000
  C   C21       1.0  0.80007  0.83783  0.87101  1.0000
  C   C22       1.0  0.70016  0.66212  0.37106  1.0000
  C   C23       1.0  0.20009  0.16212  0.12894  1.0000
  C   C24       1.0  0.30013  0.33782  0.62897  1.0000
  C   C25       1.0  0.02391  0.58550  0.68887  1.0000
  C   C26       1.0  0.47607  0.91447  0.18888  1.0000
  C   C27       1.0  0.97607  0.41446  0.31109  1.0000
  C   C28       1.0  0.52392  0.08551  0.81114  1.0000
  C   C29       1.0  0.32078  0.84823  0.67865  1.0000
  C   C30       1.0  0.17916  0.65174  0.17864  1.0000
  C   C31       1.0  0.67920  0.15175  0.32138  1.0000
  C   C32       1.0  0.82080  0.34823  0.82138  1.0000
  N   N1        1.0  0.37753  0.55632  0.85583  1.0000
  N   N2        1.0  0.12227  0.94369  0.35578  1.0000
  N   N3        1.0  0.62226  0.44369  0.14420  1.0000
  N   N4        1.0  0.87750  0.05634  0.64419  1.0000
  N   N5        1.0  0.61688  0.75159  0.87248  1.0000
  N   N6        1.0  0.88330  0.74836  0.37249  1.0000
  N   N7        1.0  0.38325  0.24836  0.12750  1.0000
  N   N8        1.0  0.11693  0.25159  0.62751  1.0000
  O   O1        1.0  0.28740  0.58377  0.68126  1.0000
  O   O2        1.0  0.21258  0.91620  0.18126  1.0000
  O   O3        1.0  0.71258  0.41620  0.31871  1.0000
  O   O4        1.0  0.78742  0.08379  0.81875  1.0000
  O   O5        1.0  0.90946  0.63818  0.74144  1.0000
  O   O6        1.0  0.59048  0.86178  0.24148  1.0000
  O   O7        1.0  0.09048  0.36175  0.25853  1.0000
  O   O8        1.0  0.40946  0.13821  0.75857  1.0000
  O   O9        1.0  0.52925  0.80172  0.70283  1.0000
  O   O10       1.0  0.97064  0.69822  0.20282  1.0000
  O   O11       1.0  0.47064  0.19819  0.29717  1.0000
  O   O12       1.0  0.02927  0.30176  0.79714  1.0000
  O   O13       1.0  0.34152  0.93315  0.63861  1.0000
  O   O14       1.0  0.15851  0.56686  0.13858  1.0000
  O   O15       1.0  0.65856  0.06689  0.36149  1.0000
  O   O16       1.0  0.84155  0.43311  0.86145  1.0000
