data_image0
_chemical_formula_structural       Li8H32C24N8O28
_chemical_formula_sum              "Li8 H32 C24 N8 O28"
_cell_length_a       7.40758
_cell_length_b       7.89943
_cell_length_c       16.3476
_cell_angle_alpha    90.0002
_cell_angle_beta     89.9997
_cell_angle_gamma    93.2298

_space_group_name_H-M_alt    "P 1"
_space_group_IT_number       1

loop_
  _space_group_symop_operation_xyz
  'x, y, z'

loop_
  _atom_site_type_symbol
  _atom_site_label
  _atom_site_symmetry_multiplicity
  _atom_site_fract_x
  _atom_site_fract_y
  _atom_site_fract_z
  _atom_site_occupancy
  Li  Li1       1.0  0.08468  0.78354  0.54446  1.0000
  Li  Li2       1.0  0.91532  0.71646  0.04446  1.0000
  Li  Li3       1.0  0.91532  0.21646  0.45554  1.0000
  Li  Li4       1.0  0.08467  0.28354  0.95554  1.0000
  Li  Li5       1.0  0.04363  0.57895  0.36848  1.0000
  Li  Li6       1.0  0.95637  0.92105  0.86848  1.0000
  Li  Li7       1.0  0.95637  0.42105  0.63152  1.0000
  Li  Li8       1.0  0.04363  0.07895  0.13152  1.0000
  H   H1        1.0  0.99156  0.89892  0.40900  1.0000
  H   H2        1.0  0.00844  0.60108  0.90899  1.0000
  H   H3        1.0  0.00844  0.10108  0.59100  1.0000
  H   H4        1.0  0.99156  0.39892  0.09101  1.0000
  H   H5        1.0  0.83463  0.77369  0.44434  1.0000
  H   H6        1.0  0.16537  0.72631  0.94434  1.0000
  H   H7        1.0  0.16537  0.22631  0.55566  1.0000
  H   H8        1.0  0.83463  0.27369  0.05566  1.0000
  H   H9        1.0  0.28344  0.58214  0.62064  1.0000
  H   H10       1.0  0.71656  0.91786  0.12064  1.0000
  H   H11       1.0  0.71656  0.41786  0.37936  1.0000
  H   H12       1.0  0.28344  0.08214  0.87936  1.0000
  H   H13       1.0  0.20797  0.51588  0.53285  1.0000
  H   H14       1.0  0.79203  0.98412  0.03285  1.0000
  H   H15       1.0  0.79203  0.48412  0.46715  1.0000
  H   H16       1.0  0.20797  0.01588  0.96715  1.0000
  H   H17       1.0  0.32405  0.02289  0.50136  1.0000
  H   H18       1.0  0.67595  0.47711  0.00136  1.0000
  H   H19       1.0  0.67595  0.97711  0.49864  1.0000
  H   H20       1.0  0.32404  0.52289  0.99864  1.0000
  H   H21       1.0  0.41749  0.85788  0.53122  1.0000
  H   H22       1.0  0.58251  0.64212  0.03122  1.0000
  H   H23       1.0  0.58251  0.14212  0.46878  1.0000
  H   H24       1.0  0.41749  0.35788  0.96878  1.0000
  H   H25       1.0  0.52127  0.70384  0.89144  1.0000
  H   H26       1.0  0.47873  0.79615  0.39144  1.0000
  H   H27       1.0  0.47873  0.29615  0.10856  1.0000
  H   H28       1.0  0.52127  0.20384  0.60856  1.0000
  H   H29       1.0  0.29119  0.58501  0.78658  1.0000
  H   H30       1.0  0.70881  0.91499  0.28658  1.0000
  H   H31       1.0  0.70881  0.41500  0.21342  1.0000
  H   H32       1.0  0.29119  0.08500  0.71342  1.0000
  C   C1        1.0  0.91393  0.89015  0.69663  1.0000
  C   C2        1.0  0.08607  0.60986  0.19663  1.0000
  C   C3        1.0  0.08607  0.10985  0.30337  1.0000
  C   C4        1.0  0.91393  0.39015  0.80337  1.0000
  C   C5        1.0  0.74590  0.78412  0.72204  1.0000
  C   C6        1.0  0.25410  0.71588  0.22204  1.0000
  C   C7        1.0  0.25410  0.21588  0.27796  1.0000
  C   C8        1.0  0.74590  0.28412  0.77796  1.0000
  C   C9        1.0  0.55022  0.70608  0.82610  1.0000
  C   C10       1.0  0.44978  0.79391  0.32610  1.0000
  C   C11       1.0  0.44978  0.29392  0.17390  1.0000
  C   C12       1.0  0.55022  0.20608  0.67390  1.0000
  C   C13       1.0  0.42522  0.63816  0.76912  1.0000
  C   C14       1.0  0.57478  0.86184  0.26912  1.0000
  C   C15       1.0  0.57478  0.36185  0.23088  1.0000
  C   C16       1.0  0.42522  0.13816  0.73088  1.0000
  C   C17       1.0  0.62801  0.70167  0.66528  1.0000
  C   C18       1.0  0.37199  0.79833  0.16529  1.0000
  C   C19       1.0  0.37199  0.29833  0.33472  1.0000
  C   C20       1.0  0.62801  0.20167  0.83471  1.0000
  C   C21       1.0  0.67998  0.67165  0.57715  1.0000
  C   C22       1.0  0.32002  0.82836  0.07715  1.0000
  C   C23       1.0  0.32002  0.32835  0.42285  1.0000
  C   C24       1.0  0.67998  0.17164  0.92285  1.0000
  N   N1        1.0  0.70800  0.78114  0.80222  1.0000
  N   N2        1.0  0.29199  0.71886  0.30222  1.0000
  N   N3        1.0  0.29200  0.21886  0.19778  1.0000
  N   N4        1.0  0.70800  0.28114  0.69778  1.0000
  N   N5        1.0  0.46576  0.63403  0.68911  1.0000
  N   N6        1.0  0.53424  0.86598  0.18911  1.0000
  N   N7        1.0  0.53425  0.36597  0.31089  1.0000
  N   N8        1.0  0.46575  0.13403  0.81089  1.0000
  O   O1        1.0  0.01066  0.95821  0.75188  1.0000
  O   O2        1.0  0.98934  0.54179  0.25188  1.0000
  O   O3        1.0  0.98934  0.04179  0.24812  1.0000
  O   O4        1.0  0.01066  0.45821  0.74812  1.0000
  O   O5        1.0  0.93768  0.90737  0.61941  1.0000
  O   O6        1.0  0.06232  0.59263  0.11941  1.0000
  O   O7        1.0  0.06232  0.09263  0.38059  1.0000
  O   O8        1.0  0.93768  0.40737  0.88059  1.0000
  O   O9        1.0  0.78590  0.55377  0.56595  1.0000
  O   O10       1.0  0.21410  0.94623  0.06595  1.0000
  O   O11       1.0  0.21410  0.44623  0.43405  1.0000
  O   O12       1.0  0.78590  0.05377  0.93405  1.0000
  O   O13       1.0  0.61170  0.75640  0.51993  1.0000
  O   O14       1.0  0.38831  0.74360  0.01994  1.0000
  O   O15       1.0  0.38830  0.24360  0.48006  1.0000
  O   O16       1.0  0.61169  0.25640  0.98006  1.0000
  O   O17       1.0  0.96504  0.78285  0.43317  1.0000
  O   O18       1.0  0.03497  0.71715  0.93317  1.0000
  O   O19       1.0  0.03496  0.21715  0.56683  1.0000
  O   O20       1.0  0.96503  0.28285  0.06683  1.0000
  O   O21       1.0  0.17275  0.56879  0.58550  1.0000
  O   O22       1.0  0.82725  0.93121  0.08550  1.0000
  O   O23       1.0  0.82725  0.43121  0.41450  1.0000
  O   O24       1.0  0.17275  0.06879  0.91450  1.0000
  O   O25       1.0  0.30262  0.91683  0.53199  1.0000
  O   O26       1.0  0.69739  0.58317  0.03199  1.0000
  O   O27       1.0  0.69738  0.08317  0.46801  1.0000
  O   O28       1.0  0.30261  0.41683  0.96801  1.0000
