data_image0
_chemical_formula_structural       Ag2H8C14N8
_chemical_formula_sum              "Ag2 H8 C14 N8"
_cell_length_a       6.14425
_cell_length_b       7.49355
_cell_length_c       8.04246
_cell_angle_alpha    88.2222
_cell_angle_beta     82.7796
_cell_angle_gamma    78.9925

_space_group_name_H-M_alt    "P 1"
_space_group_IT_number       1

loop_
  _space_group_symop_operation_xyz
  'x, y, z'

loop_
  _atom_site_type_symbol
  _atom_site_label
  _atom_site_symmetry_multiplicity
  _atom_site_fract_x
  _atom_site_fract_y
  _atom_site_fract_z
  _atom_site_occupancy
  Ag  Ag1       1.0  0.83660  0.39001  0.61271  1.0000
  Ag  Ag2       1.0  0.16340  0.60999  0.38729  1.0000
  H   H1        1.0  0.57047  0.31645  0.33859  1.0000
  H   H2        1.0  0.42952  0.68355  0.66141  1.0000
  H   H3        1.0  0.63109  0.16790  0.06209  1.0000
  H   H4        1.0  0.36891  0.83211  0.93791  1.0000
  H   H5        1.0  0.22127  0.11528  0.42795  1.0000
  H   H6        1.0  0.77873  0.88472  0.57205  1.0000
  H   H7        1.0  0.30746  0.94635  0.16109  1.0000
  H   H8        1.0  0.69253  0.05365  0.83891  1.0000
  C   C1        1.0  0.68025  0.67721  0.25409  1.0000
  C   C2        1.0  0.31975  0.32279  0.74590  1.0000
  C   C3        1.0  0.73218  0.59346  0.97250  1.0000
  C   C4        1.0  0.26783  0.40653  0.02750  1.0000
  C   C5        1.0  0.97730  0.04373  0.08297  1.0000
  C   C6        1.0  0.02270  0.95627  0.91703  1.0000
  C   C7        1.0  0.73212  0.23511  0.29246  1.0000
  C   C8        1.0  0.26788  0.76489  0.70755  1.0000
  C   C9        1.0  0.76780  0.14919  0.13848  1.0000
  C   C10       1.0  0.23219  0.85081  0.86152  1.0000
  C   C11       1.0  0.09463  0.11979  0.34369  1.0000
  C   C12       1.0  0.90537  0.88021  0.65631  1.0000
  C   C13       1.0  0.14102  0.02704  0.19270  1.0000
  C   C14       1.0  0.85897  0.97296  0.80730  1.0000
  N   N1        1.0  0.67606  0.67011  0.40177  1.0000
  N   N2        1.0  0.32394  0.32989  0.59824  1.0000
  N   N3        1.0  0.77401  0.51006  0.84683  1.0000
  N   N4        1.0  0.22600  0.48994  0.15317  1.0000
  N   N5        1.0  0.67561  0.70558  0.09513  1.0000
  N   N6        1.0  0.32439  0.29442  0.90488  1.0000
  N   N7        1.0  0.89385  0.22368  0.39335  1.0000
  N   N8        1.0  0.10616  0.77632  0.60665  1.0000
