data_image0
_chemical_formula_structural       Cd2H56C44N20O4
_chemical_formula_sum              "Cd2 H56 C44 N20 O4"
_cell_length_a       7.7565
_cell_length_b       9.07956
_cell_length_c       18.2317
_cell_angle_alpha    90
_cell_angle_beta     89.9998
_cell_angle_gamma    113.407

_space_group_name_H-M_alt    "P 1"
_space_group_IT_number       1

loop_
  _space_group_symop_operation_xyz
  'x, y, z'

loop_
  _atom_site_type_symbol
  _atom_site_label
  _atom_site_symmetry_multiplicity
  _atom_site_fract_x
  _atom_site_fract_y
  _atom_site_fract_z
  _atom_site_occupancy
  Cd  Cd1       1.0  1.00000  0.50000  0.50000  1.0000
  Cd  Cd2       1.0  0.00000  1.00000  0.00000  1.0000
  H   H1        1.0  0.22664  0.94156  0.35394  1.0000
  H   H2        1.0  0.77336  0.55844  0.85394  1.0000
  H   H3        1.0  0.77336  0.05844  0.64606  1.0000
  H   H4        1.0  0.22664  0.44156  0.14606  1.0000
  H   H5        1.0  0.37147  0.02086  0.43130  1.0000
  H   H6        1.0  0.62853  0.47915  0.93130  1.0000
  H   H7        1.0  0.62854  0.97915  0.56870  1.0000
  H   H8        1.0  0.37147  0.52085  0.06870  1.0000
  H   H9        1.0  0.54578  0.27444  0.37069  1.0000
  H   H10       1.0  0.45422  0.22556  0.87070  1.0000
  H   H11       1.0  0.45422  0.72556  0.62930  1.0000
  H   H12       1.0  0.54579  0.77444  0.12930  1.0000
  H   H13       1.0  0.38236  0.22844  0.29739  1.0000
  H   H14       1.0  0.61764  0.27156  0.79739  1.0000
  H   H15       1.0  0.61764  0.77156  0.70261  1.0000
  H   H16       1.0  0.38236  0.72844  0.20261  1.0000
  H   H17       1.0  0.62887  0.04187  0.32953  1.0000
  H   H18       1.0  0.37112  0.45812  0.82953  1.0000
  H   H19       1.0  0.37112  0.95812  0.67047  1.0000
  H   H20       1.0  0.62888  0.54188  0.17047  1.0000
  H   H21       1.0  0.47922  0.01458  0.25312  1.0000
  H   H22       1.0  0.52078  0.48541  0.75312  1.0000
  H   H23       1.0  0.52078  0.98542  0.74688  1.0000
  H   H24       1.0  0.47922  0.51459  0.24688  1.0000
  H   H25       1.0  0.66650  0.29442  0.21127  1.0000
  H   H26       1.0  0.33350  0.20558  0.71127  1.0000
  H   H27       1.0  0.33350  0.70558  0.78873  1.0000
  H   H28       1.0  0.66650  0.79442  0.28873  1.0000
  H   H29       1.0  0.81162  0.33017  0.29051  1.0000
  H   H30       1.0  0.18837  0.16983  0.79051  1.0000
  H   H31       1.0  0.18837  0.66983  0.70949  1.0000
  H   H32       1.0  0.81163  0.83017  0.20949  1.0000
  H   H33       1.0  0.34214  0.35340  0.44574  1.0000
  H   H34       1.0  0.65786  0.14660  0.94574  1.0000
  H   H35       1.0  0.65785  0.64660  0.55426  1.0000
  H   H36       1.0  0.34215  0.85340  0.05426  1.0000
  H   H37       1.0  0.75287  0.10980  0.44810  1.0000
  H   H38       1.0  0.24713  0.39020  0.94810  1.0000
  H   H39       1.0  0.24713  0.89019  0.55190  1.0000
  H   H40       1.0  0.75287  0.60980  0.05190  1.0000
  H   H41       1.0  0.90934  0.90335  0.39427  1.0000
  H   H42       1.0  0.09066  0.59664  0.89427  1.0000
  H   H43       1.0  0.09066  0.09664  0.60573  1.0000
  H   H44       1.0  0.90934  0.40336  0.10573  1.0000
  H   H45       1.0  0.70780  0.10426  0.10951  1.0000
  H   H46       1.0  0.29221  0.39574  0.60951  1.0000
  H   H47       1.0  0.29220  0.89574  0.89049  1.0000
  H   H48       1.0  0.70779  0.60426  0.39049  1.0000
  H   H49       1.0  0.22568  0.10796  0.18169  1.0000
  H   H50       1.0  0.77432  0.39204  0.68169  1.0000
  H   H51       1.0  0.77431  0.89204  0.81831  1.0000
  H   H52       1.0  0.22568  0.60796  0.31831  1.0000
  H   H53       1.0  0.07112  0.23096  0.29281  1.0000
  H   H54       1.0  0.92888  0.26905  0.79281  1.0000
  H   H55       1.0  0.92888  0.76905  0.70719  1.0000
  H   H56       1.0  0.07112  0.73095  0.20719  1.0000
  C   C1        1.0  0.30447  0.05272  0.38427  1.0000
  C   C2        1.0  0.69553  0.44728  0.88427  1.0000
  C   C3        1.0  0.69553  0.94728  0.61573  1.0000
  C   C4        1.0  0.30447  0.55272  0.11573  1.0000
  C   C5        1.0  0.45225  0.17624  0.33577  1.0000
  C   C6        1.0  0.54775  0.32375  0.83577  1.0000
  C   C7        1.0  0.54775  0.82376  0.66423  1.0000
  C   C8        1.0  0.45225  0.67625  0.16423  1.0000
  C   C9        1.0  0.56889  0.10456  0.29251  1.0000
  C   C10       1.0  0.43111  0.39544  0.79251  1.0000
  C   C11       1.0  0.43111  0.89544  0.70749  1.0000
  C   C12       1.0  0.56889  0.60456  0.20749  1.0000
  C   C13       1.0  0.72569  0.23787  0.25167  1.0000
  C   C14       1.0  0.27430  0.26213  0.75167  1.0000
  C   C15       1.0  0.27430  0.76213  0.74833  1.0000
  C   C16       1.0  0.72570  0.73787  0.24833  1.0000
  C   C17       1.0  0.20196  0.26145  0.43808  1.0000
  C   C18       1.0  0.79804  0.23855  0.93808  1.0000
  C   C19       1.0  0.79804  0.73855  0.56192  1.0000
  C   C20       1.0  0.20196  0.76145  0.06192  1.0000
  C   C21       1.0  0.89843  0.12974  0.43905  1.0000
  C   C22       1.0  0.10156  0.37025  0.93905  1.0000
  C   C23       1.0  0.10156  0.87025  0.56095  1.0000
  C   C24       1.0  0.89844  0.62974  0.06095  1.0000
  C   C25       1.0  0.97380  0.02713  0.41172  1.0000
  C   C26       1.0  0.02620  0.47287  0.91172  1.0000
  C   C27       1.0  0.02620  0.97287  0.58828  1.0000
  C   C28       1.0  0.97380  0.52713  0.08828  1.0000
  C   C29       1.0  0.82799  0.11850  0.14358  1.0000
  C   C30       1.0  0.17202  0.38150  0.64358  1.0000
  C   C31       1.0  0.17201  0.88150  0.85642  1.0000
  C   C32       1.0  0.82799  0.61850  0.35642  1.0000
  C   C33       1.0  0.09393  0.12305  0.18338  1.0000
  C   C34       1.0  0.90608  0.37695  0.68338  1.0000
  C   C35       1.0  0.90607  0.87695  0.81662  1.0000
  C   C36       1.0  0.09393  0.62305  0.31662  1.0000
  C   C37       1.0  0.02123  0.18515  0.23857  1.0000
  C   C38       1.0  0.97877  0.31486  0.73857  1.0000
  C   C39       1.0  0.97877  0.81485  0.76143  1.0000
  C   C40       1.0  0.02123  0.68515  0.26143  1.0000
  C   C41       1.0  0.42975  0.71127  0.45286  1.0000
  C   C42       1.0  0.57024  0.78872  0.95285  1.0000
  C   C43       1.0  0.57024  0.28872  0.54715  1.0000
  C   C44       1.0  0.42975  0.21127  0.04715  1.0000
  N   N1        1.0  0.16601  0.11216  0.41112  1.0000
  N   N2        1.0  0.83398  0.38784  0.91111  1.0000
  N   N3        1.0  0.83398  0.88784  0.58888  1.0000
  N   N4        1.0  0.16602  0.61216  0.08888  1.0000
  N   N5        1.0  0.04182  0.27500  0.45519  1.0000
  N   N6        1.0  0.95817  0.22500  0.95519  1.0000
  N   N7        1.0  0.95817  0.72500  0.54481  1.0000
  N   N8        1.0  0.04183  0.77500  0.04481  1.0000
  N   N9        1.0  0.85276  0.18193  0.21239  1.0000
  N   N10       1.0  0.14724  0.31807  0.71239  1.0000
  N   N11       1.0  0.14724  0.81807  0.78761  1.0000
  N   N12       1.0  0.85276  0.68193  0.28761  1.0000
  N   N13       1.0  0.97224  0.08246  0.12444  1.0000
  N   N14       1.0  0.02776  0.41754  0.62444  1.0000
  N   N15       1.0  0.02776  0.91754  0.87556  1.0000
  N   N16       1.0  0.97224  0.58246  0.37556  1.0000
  N   N17       1.0  0.32831  0.63768  0.50179  1.0000
  N   N18       1.0  0.67169  0.86232  0.00179  1.0000
  N   N19       1.0  0.67169  0.36232  0.49821  1.0000
  N   N20       1.0  0.32831  0.13768  0.99821  1.0000
  O   O1        1.0  0.53644  0.78621  0.40421  1.0000
  O   O2        1.0  0.46356  0.71379  0.90420  1.0000
  O   O3        1.0  0.46356  0.21379  0.59580  1.0000
  O   O4        1.0  0.53643  0.28620  0.09580  1.0000
