data_image0
_chemical_formula_structural       Cd2H44C32S4N8O12
_chemical_formula_sum              "Cd2 H44 C32 S4 N8 O12"
_cell_length_a       7.82185
_cell_length_b       8.83069
_cell_length_c       13.9282
_cell_angle_alpha    90
_cell_angle_beta     90.0002
_cell_angle_gamma    103.271

_space_group_name_H-M_alt    "P 1"
_space_group_IT_number       1

loop_
  _space_group_symop_operation_xyz
  'x, y, z'

loop_
  _atom_site_type_symbol
  _atom_site_label
  _atom_site_symmetry_multiplicity
  _atom_site_fract_x
  _atom_site_fract_y
  _atom_site_fract_z
  _atom_site_occupancy
  Cd  Cd1       1.0  1.00000  0.50000  1.00000  1.0000
  Cd  Cd2       1.0  0.50000  0.50000  0.50000  1.0000
  H   H1        1.0  0.15866  0.42767  0.58988  1.0000
  H   H2        1.0  0.34134  0.57233  0.08988  1.0000
  H   H3        1.0  0.84134  0.57233  0.41012  1.0000
  H   H4        1.0  0.65866  0.42767  0.91012  1.0000
  H   H5        1.0  0.81407  0.30901  0.50664  1.0000
  H   H6        1.0  0.68593  0.69099  0.00664  1.0000
  H   H7        1.0  0.18593  0.69099  0.49335  1.0000
  H   H8        1.0  0.31407  0.30901  0.99336  1.0000
  H   H9        1.0  0.86609  0.06459  0.58369  1.0000
  H   H10       1.0  0.63391  0.93541  0.08369  1.0000
  H   H11       1.0  0.13392  0.93541  0.41631  1.0000
  H   H12       1.0  0.36609  0.06459  0.91631  1.0000
  H   H13       1.0  0.62250  0.89693  0.67639  1.0000
  H   H14       1.0  0.87750  0.10307  0.17639  1.0000
  H   H15       1.0  0.37750  0.10307  0.32361  1.0000
  H   H16       1.0  0.12250  0.89693  0.82361  1.0000
  H   H17       1.0  0.33136  0.97089  0.68595  1.0000
  H   H18       1.0  0.16864  0.02911  0.18595  1.0000
  H   H19       1.0  0.66864  0.02911  0.31405  1.0000
  H   H20       1.0  0.83136  0.97089  0.81405  1.0000
  H   H21       1.0  0.18371  0.19219  0.53098  1.0000
  H   H22       1.0  0.31629  0.80781  0.03098  1.0000
  H   H23       1.0  0.81630  0.80781  0.46902  1.0000
  H   H24       1.0  0.68371  0.19219  0.96902  1.0000
  H   H25       1.0  0.16128  0.15784  0.65675  1.0000
  H   H26       1.0  0.33872  0.84216  0.15675  1.0000
  H   H27       1.0  0.83872  0.84216  0.34325  1.0000
  H   H28       1.0  0.66128  0.15784  0.84325  1.0000
  H   H29       1.0  0.40361  0.38615  0.74240  1.0000
  H   H30       1.0  0.09640  0.61385  0.24240  1.0000
  H   H31       1.0  0.59640  0.61386  0.25760  1.0000
  H   H32       1.0  0.90360  0.38614  0.75760  1.0000
  H   H33       1.0  0.18051  0.38909  0.75812  1.0000
  H   H34       1.0  0.31949  0.61091  0.25812  1.0000
  H   H35       1.0  0.81949  0.61091  0.24188  1.0000
  H   H36       1.0  0.68051  0.38909  0.74188  1.0000
  H   H37       1.0  0.25486  0.67166  0.69668  1.0000
  H   H38       1.0  0.24514  0.32834  0.19668  1.0000
  H   H39       1.0  0.74514  0.32834  0.30332  1.0000
  H   H40       1.0  0.75486  0.67166  0.80332  1.0000
  H   H41       1.0  0.47975  0.65868  0.69070  1.0000
  H   H42       1.0  0.02025  0.34132  0.19070  1.0000
  H   H43       1.0  0.52025  0.34132  0.30930  1.0000
  H   H44       1.0  0.97975  0.65868  0.80930  1.0000
  C   C1        1.0  0.71111  0.23020  0.54689  1.0000
  C   C2        1.0  0.78889  0.76980  0.04689  1.0000
  C   C3        1.0  0.28889  0.76980  0.45311  1.0000
  C   C4        1.0  0.21111  0.23021  0.95311  1.0000
  C   C5        1.0  0.73982  0.09598  0.58986  1.0000
  C   C6        1.0  0.76018  0.90402  0.08986  1.0000
  C   C7        1.0  0.26018  0.90402  0.41014  1.0000
  C   C8        1.0  0.23982  0.09598  0.91014  1.0000
  C   C9        1.0  0.60305  0.00163  0.64132  1.0000
  C   C10       1.0  0.89695  0.99837  0.14132  1.0000
  C   C11       1.0  0.39695  0.99837  0.35868  1.0000
  C   C12       1.0  0.10305  0.00163  0.85868  1.0000
  C   C13       1.0  0.44150  0.04262  0.64703  1.0000
  C   C14       1.0  0.05850  0.95738  0.14703  1.0000
  C   C15       1.0  0.55850  0.95738  0.35297  1.0000
  C   C16       1.0  0.94150  0.04262  0.85297  1.0000
  C   C17       1.0  0.42100  0.17779  0.60131  1.0000
  C   C18       1.0  0.07900  0.82221  0.10131  1.0000
  C   C19       1.0  0.57900  0.82221  0.39869  1.0000
  C   C20       1.0  0.92100  0.17779  0.89869  1.0000
  C   C21       1.0  0.24650  0.22459  0.60101  1.0000
  C   C22       1.0  0.25350  0.77541  0.10101  1.0000
  C   C23       1.0  0.75350  0.77541  0.39899  1.0000
  C   C24       1.0  0.74650  0.22459  0.89899  1.0000
  C   C25       1.0  0.29859  0.43842  0.71509  1.0000
  C   C26       1.0  0.20141  0.56158  0.21509  1.0000
  C   C27       1.0  0.70141  0.56158  0.28491  1.0000
  C   C28       1.0  0.79859  0.43842  0.78491  1.0000
  C   C29       1.0  0.35331  0.61391  0.72640  1.0000
  C   C30       1.0  0.14669  0.38610  0.22640  1.0000
  C   C31       1.0  0.64669  0.38610  0.27359  1.0000
  C   C32       1.0  0.85331  0.61390  0.77360  1.0000
  S   S1        1.0  0.38371  0.67197  0.84980  1.0000
  S   S2        1.0  0.11629  0.32803  0.34980  1.0000
  S   S3        1.0  0.61629  0.32802  0.15020  1.0000
  S   S4        1.0  0.88371  0.67197  0.65020  1.0000
  N   N1        1.0  0.55521  0.26964  0.55311  1.0000
  N   N2        1.0  0.94479  0.73036  0.05310  1.0000
  N   N3        1.0  0.44479  0.73036  0.44690  1.0000
  N   N4        1.0  0.05521  0.26964  0.94690  1.0000
  N   N5        1.0  0.26871  0.39380  0.61330  1.0000
  N   N6        1.0  0.23129  0.60620  0.11330  1.0000
  N   N7        1.0  0.73129  0.60620  0.38670  1.0000
  N   N8        1.0  0.76871  0.39380  0.88670  1.0000
  O   O1        1.0  0.48142  0.83471  0.84956  1.0000
  O   O2        1.0  0.01858  0.16530  0.34956  1.0000
  O   O3        1.0  0.51858  0.16529  0.15044  1.0000
  O   O4        1.0  0.98142  0.83470  0.65044  1.0000
  O   O5        1.0  0.20268  0.65476  0.88815  1.0000
  O   O6        1.0  0.29732  0.34524  0.38815  1.0000
  O   O7        1.0  0.79732  0.34524  0.11185  1.0000
  O   O8        1.0  0.70268  0.65476  0.61185  1.0000
  O   O9        1.0  0.47608  0.56474  0.89676  1.0000
  O   O10       1.0  0.02393  0.43527  0.39676  1.0000
  O   O11       1.0  0.52392  0.43527  0.10324  1.0000
  O   O12       1.0  0.97607  0.56473  0.60325  1.0000
