data_image0
_chemical_formula_structural       Cd2H16C18N10O10
_chemical_formula_sum              "Cd2 H16 C18 N10 O10"
_cell_length_a       7.04707
_cell_length_b       8.28968
_cell_length_c       10.6424
_cell_angle_alpha    82.819
_cell_angle_beta     84.5455
_cell_angle_gamma    74.5715

_space_group_name_H-M_alt    "P 1"
_space_group_IT_number       1

loop_
  _space_group_symop_operation_xyz
  'x, y, z'

loop_
  _atom_site_type_symbol
  _atom_site_label
  _atom_site_symmetry_multiplicity
  _atom_site_fract_x
  _atom_site_fract_y
  _atom_site_fract_z
  _atom_site_occupancy
  Cd  Cd1       1.0  0.50000  0.50000  0.00000  1.0000
  Cd  Cd2       1.0  0.50000  0.50000  0.50000  1.0000
  H   H1        1.0  0.53390  0.18810  0.78375  1.0000
  H   H2        1.0  0.46611  0.81189  0.21625  1.0000
  H   H3        1.0  0.84346  0.03145  0.42239  1.0000
  H   H4        1.0  0.15653  0.96855  0.57761  1.0000
  H   H5        1.0  0.14741  0.29741  0.10735  1.0000
  H   H6        1.0  0.85259  0.70259  0.89265  1.0000
  H   H7        1.0  0.58450  0.87745  0.51562  1.0000
  H   H8        1.0  0.41550  0.12254  0.48438  1.0000
  H   H9        1.0  0.02607  0.03408  0.13610  1.0000
  H   H10       1.0  0.97393  0.96591  0.86389  1.0000
  H   H11       1.0  0.16972  0.86052  0.05615  1.0000
  H   H12       1.0  0.83027  0.13948  0.94385  1.0000
  H   H13       1.0  0.32633  0.69902  0.76301  1.0000
  H   H14       1.0  0.67368  0.30098  0.23699  1.0000
  H   H15       1.0  0.35289  0.83752  0.84632  1.0000
  H   H16       1.0  0.64711  0.16248  0.15368  1.0000
  C   C1        1.0  0.88974  0.57706  0.36864  1.0000
  C   C2        1.0  0.11026  0.42295  0.63136  1.0000
  C   C3        1.0  0.03511  0.66104  0.32095  1.0000
  C   C4        1.0  0.96489  0.33897  0.67906  1.0000
  C   C5        1.0  0.91009  0.39316  0.35126  1.0000
  C   C6        1.0  0.08991  0.60685  0.64874  1.0000
  C   C7        1.0  0.22182  0.58577  0.24316  1.0000
  C   C8        1.0  0.77818  0.41423  0.75684  1.0000
  C   C9        1.0  0.42381  0.18005  0.86116  1.0000
  C   C10       1.0  0.57620  0.81994  0.13884  1.0000
  C   C11       1.0  0.85717  0.90027  0.40806  1.0000
  C   C12       1.0  0.14283  0.09974  0.59194  1.0000
  C   C13       1.0  0.22755  0.24093  0.02436  1.0000
  C   C14       1.0  0.77245  0.75907  0.97564  1.0000
  C   C15       1.0  0.71299  0.81787  0.45699  1.0000
  C   C16       1.0  0.28701  0.18213  0.54301  1.0000
  C   C17       1.0  0.08348  0.99195  0.04311  1.0000
  C   C18       1.0  0.91652  0.00805  0.95689  1.0000
  N   N1        1.0  0.72884  0.65960  0.43499  1.0000
  N   N2        1.0  0.27116  0.34040  0.56502  1.0000
  N   N3        1.0  0.21139  0.09659  0.98757  1.0000
  N   N4        1.0  0.78861  0.90341  0.01243  1.0000
  N   N5        1.0  0.36176  0.29678  0.94589  1.0000
  N   N6        1.0  0.63825  0.70321  0.05411  1.0000
  N   N7        1.0  0.01716  0.82205  0.34016  1.0000
  N   N8        1.0  0.98284  0.17796  0.65984  1.0000
  N   N9        1.0  0.33556  0.05537  0.88326  1.0000
  N   N10       1.0  0.66444  0.94463  0.11674  1.0000
  O   O1        1.0  0.38345  0.54770  0.29604  1.0000
  O   O2        1.0  0.61655  0.45230  0.70397  1.0000
  O   O3        1.0  0.76183  0.33204  0.39037  1.0000
  O   O4        1.0  0.23818  0.66796  0.60962  1.0000
  O   O5        1.0  0.06950  0.31430  0.30124  1.0000
  O   O6        1.0  0.93050  0.68572  0.69874  1.0000
  O   O7        1.0  0.20386  0.58544  0.12571  1.0000
  O   O8        1.0  0.79613  0.41457  0.87429  1.0000
  O   O9        1.0  0.33325  0.72302  0.85062  1.0000
  O   O10       1.0  0.66675  0.27698  0.14938  1.0000
