data_image0
_chemical_formula_structural       Mn2H40C36Br2N4O8
_chemical_formula_sum              "Mn2 H40 C36 Br2 N4 O8"
_cell_length_a       9.86681
_cell_length_b       9.86694
_cell_length_c       9.88066
_cell_angle_alpha    77.2787
_cell_angle_beta     77.2784
_cell_angle_gamma    82.2499

_space_group_name_H-M_alt    "P 1"
_space_group_IT_number       1

loop_
  _space_group_symop_operation_xyz
  'x, y, z'

loop_
  _atom_site_type_symbol
  _atom_site_label
  _atom_site_symmetry_multiplicity
  _atom_site_fract_x
  _atom_site_fract_y
  _atom_site_fract_z
  _atom_site_occupancy
  Mn  Mn1       1.0  0.00000  0.00000  0.00000  1.0000
  Mn  Mn2       1.0  0.00000  0.00000  0.50000  1.0000
  H   H1        1.0  0.63273  0.16872  0.91190  1.0000
  H   H2        1.0  0.83129  0.36726  0.58810  1.0000
  H   H3        1.0  0.36727  0.83128  0.08810  1.0000
  H   H4        1.0  0.16871  0.63274  0.41190  1.0000
  H   H5        1.0  0.72963  0.84280  0.06676  1.0000
  H   H6        1.0  0.15720  0.27037  0.43325  1.0000
  H   H7        1.0  0.27037  0.15720  0.93324  1.0000
  H   H8        1.0  0.84280  0.72963  0.56675  1.0000
  H   H9        1.0  0.62139  0.94849  0.95043  1.0000
  H   H10       1.0  0.05152  0.37859  0.54958  1.0000
  H   H11       1.0  0.37861  0.05152  0.04957  1.0000
  H   H12       1.0  0.94848  0.62141  0.45042  1.0000
  H   H13       1.0  0.78491  0.86154  0.88092  1.0000
  H   H14       1.0  0.13846  0.21508  0.61907  1.0000
  H   H15       1.0  0.21509  0.13846  0.11908  1.0000
  H   H16       1.0  0.86154  0.78492  0.38093  1.0000
  H   H17       1.0  0.60450  0.41366  0.89269  1.0000
  H   H18       1.0  0.58634  0.39552  0.60729  1.0000
  H   H19       1.0  0.39550  0.58634  0.10731  1.0000
  H   H20       1.0  0.41366  0.60448  0.39271  1.0000
  H   H21       1.0  0.70957  0.64194  0.82699  1.0000
  H   H22       1.0  0.35806  0.29043  0.67300  1.0000
  H   H23       1.0  0.29043  0.35806  0.17301  1.0000
  H   H24       1.0  0.64194  0.70957  0.32700  1.0000
  H   H25       1.0  0.96477  0.64811  0.79395  1.0000
  H   H26       1.0  0.35188  0.03522  0.70607  1.0000
  H   H27       1.0  0.03523  0.35189  0.20605  1.0000
  H   H28       1.0  0.64812  0.96478  0.29393  1.0000
  H   H29       1.0  0.32617  0.50823  0.77908  1.0000
  H   H30       1.0  0.49178  0.67382  0.72093  1.0000
  H   H31       1.0  0.67383  0.49177  0.22092  1.0000
  H   H32       1.0  0.50822  0.32618  0.27907  1.0000
  H   H33       1.0  0.19692  0.59937  0.68074  1.0000
  H   H34       1.0  0.40063  0.80308  0.81928  1.0000
  H   H35       1.0  0.80308  0.40063  0.31926  1.0000
  H   H36       1.0  0.59937  0.19692  0.18072  1.0000
  H   H37       1.0  0.17763  0.60697  0.86295  1.0000
  H   H38       1.0  0.39304  0.82237  0.63705  1.0000
  H   H39       1.0  0.82236  0.39303  0.13705  1.0000
  H   H40       1.0  0.60696  0.17763  0.36295  1.0000
  C   C1        1.0  0.94866  0.29261  0.88471  1.0000
  C   C2        1.0  0.70741  0.05133  0.61530  1.0000
  C   C3        1.0  0.05134  0.70739  0.11529  1.0000
  C   C4        1.0  0.29259  0.94867  0.38470  1.0000
  C   C5        1.0  0.80222  0.29019  0.90121  1.0000
  C   C6        1.0  0.70982  0.19778  0.59878  1.0000
  C   C7        1.0  0.19778  0.70981  0.09879  1.0000
  C   C8        1.0  0.29018  0.80222  0.40121  1.0000
  C   C9        1.0  0.74101  0.16033  0.92690  1.0000
  C   C10       1.0  0.83967  0.25899  0.57310  1.0000
  C   C11       1.0  0.25899  0.83967  0.07310  1.0000
  C   C12       1.0  0.16033  0.74101  0.42690  1.0000
  C   C13       1.0  0.72886  0.91568  0.96577  1.0000
  C   C14       1.0  0.08432  0.27113  0.53423  1.0000
  C   C15       1.0  0.27114  0.08432  0.03423  1.0000
  C   C16       1.0  0.91568  0.72887  0.46576  1.0000
  C   C17       1.0  0.71679  0.41760  0.87952  1.0000
  C   C18       1.0  0.58241  0.28323  0.62047  1.0000
  C   C19       1.0  0.28321  0.58240  0.12048  1.0000
  C   C20       1.0  0.41759  0.71677  0.37953  1.0000
  C   C21       1.0  0.77484  0.54379  0.84283  1.0000
  C   C22       1.0  0.45621  0.22516  0.65717  1.0000
  C   C23       1.0  0.22515  0.45621  0.15717  1.0000
  C   C24       1.0  0.54379  0.77484  0.34283  1.0000
  C   C25       1.0  0.92046  0.54764  0.82320  1.0000
  C   C26       1.0  0.45235  0.07954  0.67680  1.0000
  C   C27       1.0  0.07954  0.45236  0.17680  1.0000
  C   C28       1.0  0.54765  0.92046  0.32320  1.0000
  C   C29       1.0  0.00664  0.42422  0.84222  1.0000
  C   C30       1.0  0.57579  0.99336  0.65779  1.0000
  C   C31       1.0  0.99336  0.57578  0.15778  1.0000
  C   C32       1.0  0.42421  0.00664  0.34221  1.0000
  C   C33       1.0  0.21474  0.54018  0.78446  1.0000
  C   C34       1.0  0.45982  0.78526  0.71555  1.0000
  C   C35       1.0  0.78526  0.45982  0.21554  1.0000
  C   C36       1.0  0.54018  0.21474  0.28445  1.0000
  Br  Br1       1.0  0.09513  0.90488  0.74999  1.0000
  Br  Br2       1.0  0.90487  0.09512  0.25001  1.0000
  N   N1        1.0  0.80253  0.03614  0.95980  1.0000
  N   N2        1.0  0.96386  0.19748  0.54020  1.0000
  N   N3        1.0  0.19747  0.96386  0.04020  1.0000
  N   N4        1.0  0.03614  0.80252  0.45980  1.0000
  O   O1        1.0  0.03583  0.18033  0.90120  1.0000
  O   O2        1.0  0.81969  0.96416  0.59881  1.0000
  O   O3        1.0  0.96417  0.81967  0.09880  1.0000
  O   O4        1.0  0.18031  0.03584  0.40119  1.0000
  O   O5        1.0  0.14829  0.41343  0.82408  1.0000
  O   O6        1.0  0.58658  0.85170  0.67593  1.0000
  O   O7        1.0  0.85171  0.58657  0.17592  1.0000
  O   O8        1.0  0.41343  0.14830  0.32407  1.0000
