data_image0
_chemical_formula_structural       Zn2H40C62N8O14
_chemical_formula_sum              "Zn2 H40 C62 N8 O14"
_cell_length_a       9.73934
_cell_length_b       9.80915
_cell_length_c       14.7241
_cell_angle_alpha    86.2113
_cell_angle_beta     85.3941
_cell_angle_gamma    83.1166

_space_group_name_H-M_alt    "P 1"
_space_group_IT_number       1

loop_
  _space_group_symop_operation_xyz
  'x, y, z'

loop_
  _atom_site_type_symbol
  _atom_site_label
  _atom_site_symmetry_multiplicity
  _atom_site_fract_x
  _atom_site_fract_y
  _atom_site_fract_z
  _atom_site_occupancy
  Zn  Zn1       1.0  0.51568  0.09279  0.25574  1.0000
  Zn  Zn2       1.0  0.48432  0.90721  0.74426  1.0000
  H   H1        1.0  0.68725  0.58156  0.95106  1.0000
  H   H2        1.0  0.31275  0.41844  0.04894  1.0000
  H   H3        1.0  0.24698  0.04254  0.50194  1.0000
  H   H4        1.0  0.75302  0.95747  0.49806  1.0000
  H   H5        1.0  0.14090  0.95768  0.64954  1.0000
  H   H6        1.0  0.85910  0.04231  0.35046  1.0000
  H   H7        1.0  0.94776  0.97120  0.76918  1.0000
  H   H8        1.0  0.05224  0.02879  0.23082  1.0000
  H   H9        1.0  0.74754  0.15672  0.75645  1.0000
  H   H10       1.0  0.25246  0.84328  0.24355  1.0000
  H   H11       1.0  0.74722  0.33124  0.62693  1.0000
  H   H12       1.0  0.25278  0.66877  0.37307  1.0000
  H   H13       1.0  0.86690  0.42837  0.48359  1.0000
  H   H14       1.0  0.13310  0.57163  0.51641  1.0000
  H   H15       1.0  0.89408  0.25546  0.32446  1.0000
  H   H16       1.0  0.10593  0.74453  0.67554  1.0000
  H   H17       1.0  0.94326  0.62421  0.08213  1.0000
  H   H18       1.0  0.05674  0.37579  0.91787  1.0000
  H   H19       1.0  0.08573  0.61031  0.21639  1.0000
  H   H20       1.0  0.91426  0.38970  0.78361  1.0000
  H   H21       1.0  0.23927  0.15831  0.15090  1.0000
  H   H22       1.0  0.76073  0.84169  0.84911  1.0000
  H   H23       1.0  0.36482  0.79519  0.00828  1.0000
  H   H24       1.0  0.63518  0.20481  0.99172  1.0000
  H   H25       1.0  0.57506  0.84877  0.11326  1.0000
  H   H26       1.0  0.42494  0.15123  0.88674  1.0000
  H   H27       1.0  0.11356  0.21184  0.01149  1.0000
  H   H28       1.0  0.88643  0.78816  0.98852  1.0000
  H   H29       1.0  0.12249  0.77215  0.04655  1.0000
  H   H30       1.0  0.87751  0.22785  0.95346  1.0000
  H   H31       1.0  0.58064  0.43962  0.34098  1.0000
  H   H32       1.0  0.41936  0.56038  0.65902  1.0000
  H   H33       1.0  0.50760  0.73585  0.55077  1.0000
  H   H34       1.0  0.49240  0.26415  0.44922  1.0000
  H   H35       1.0  0.76276  0.58850  0.29849  1.0000
  H   H36       1.0  0.23724  0.41151  0.70150  1.0000
  H   H37       1.0  0.78072  0.84704  0.20937  1.0000
  H   H38       1.0  0.21928  0.15297  0.79063  1.0000
  H   H39       1.0  0.45469  0.88155  0.41552  1.0000
  H   H40       1.0  0.54530  0.11845  0.58448  1.0000
  C   C1        1.0  0.27742  0.20146  0.34861  1.0000
  C   C2        1.0  0.72258  0.79855  0.65139  1.0000
  C   C3        1.0  0.16647  0.22200  0.42505  1.0000
  C   C4        1.0  0.83352  0.77800  0.57495  1.0000
  C   C5        1.0  0.16338  0.12679  0.49881  1.0000
  C   C6        1.0  0.83662  0.87321  0.50119  1.0000
  C   C7        1.0  0.05439  0.13397  0.56833  1.0000
  C   C8        1.0  0.94561  0.86603  0.43166  1.0000
  C   C9        1.0  0.05305  0.03715  0.64416  1.0000
  C   C10       1.0  0.94695  0.96285  0.35584  1.0000
  C   C11       1.0  0.94529  0.04549  0.71081  1.0000
  C   C12       1.0  0.05471  0.95451  0.28919  1.0000
  C   C13       1.0  0.83317  0.15103  0.70377  1.0000
  C   C14       1.0  0.16683  0.84897  0.29623  1.0000
  C   C15       1.0  0.83187  0.24799  0.63134  1.0000
  C   C16       1.0  0.16814  0.75201  0.36866  1.0000
  C   C17       1.0  0.94253  0.24274  0.56236  1.0000
  C   C18       1.0  0.05747  0.75726  0.43764  1.0000
  C   C19       1.0  0.94841  0.34230  0.48834  1.0000
  C   C20       1.0  0.05159  0.65771  0.51167  1.0000
  C   C21       1.0  0.05745  0.33228  0.42270  1.0000
  C   C22       1.0  0.94255  0.66772  0.57731  1.0000
  C   C23       1.0  0.99580  0.43334  0.27894  1.0000
  C   C24       1.0  0.00420  0.56666  0.72106  1.0000
  C   C25       1.0  0.90517  0.33549  0.27056  1.0000
  C   C26       1.0  0.09483  0.66451  0.72944  1.0000
  C   C27       1.0  0.82510  0.34247  0.19571  1.0000
  C   C28       1.0  0.17491  0.65753  0.80429  1.0000
  C   C29       1.0  0.83570  0.44973  0.12759  1.0000
  C   C30       1.0  0.16430  0.55027  0.87241  1.0000
  C   C31       1.0  0.93319  0.54303  0.13526  1.0000
  C   C32       1.0  0.06681  0.45697  0.86473  1.0000
  C   C33       1.0  0.01321  0.53601  0.20934  1.0000
  C   C34       1.0  0.98679  0.46399  0.79066  1.0000
  C   C35       1.0  0.74021  0.46761  0.05420  1.0000
  C   C36       1.0  0.25979  0.53238  0.94580  1.0000
  C   C37       1.0  0.30387  0.07004  0.12403  1.0000
  C   C38       1.0  0.69612  0.92995  0.87598  1.0000
  C   C39       1.0  0.37092  0.87652  0.05371  1.0000
  C   C40       1.0  0.62908  0.12348  0.94630  1.0000
  C   C41       1.0  0.47380  0.90529  0.10521  1.0000
  C   C42       1.0  0.52620  0.09471  0.89479  1.0000
  C   C43       1.0  0.13048  0.99102  0.03230  1.0000
  C   C44       1.0  0.86952  0.00898  0.96771  1.0000
  C   C45       1.0  0.06287  0.11964  0.00663  1.0000
  C   C46       1.0  0.93713  0.88036  0.99337  1.0000
  C   C47       1.0  0.06818  0.87148  0.02584  1.0000
  C   C48       1.0  0.93182  0.12852  0.97417  1.0000
  C   C49       1.0  0.54785  0.46675  0.41072  1.0000
  C   C50       1.0  0.45215  0.53325  0.58928  1.0000
  C   C51       1.0  0.50132  0.63342  0.52792  1.0000
  C   C52       1.0  0.49868  0.36658  0.47208  1.0000
  C   C53       1.0  0.54876  0.59985  0.43909  1.0000
  C   C54       1.0  0.45124  0.40014  0.56091  1.0000
  C   C55       1.0  0.70227  0.68700  0.30807  1.0000
  C   C56       1.0  0.29773  0.31300  0.69193  1.0000
  C   C57       1.0  0.70981  0.81439  0.26485  1.0000
  C   C58       1.0  0.29019  0.18562  0.73515  1.0000
  C   C59       1.0  0.54265  0.83855  0.37262  1.0000
  C   C60       1.0  0.45735  0.16145  0.62738  1.0000
  C   C61       1.0  0.72928  0.23207  0.19681  1.0000
  C   C62       1.0  0.27073  0.76792  0.80320  1.0000
  N   N1        1.0  0.26380  0.98174  0.06640  1.0000
  N   N2        1.0  0.73620  0.01826  0.93360  1.0000
  N   N3        1.0  0.59617  0.70382  0.37655  1.0000
  N   N4        1.0  0.40383  0.29618  0.62345  1.0000
  N   N5        1.0  0.60921  0.90755  0.30547  1.0000
  N   N6        1.0  0.39079  0.09246  0.69454  1.0000
  N   N7        1.0  0.43053  0.02551  0.14900  1.0000
  N   N8        1.0  0.56947  0.97449  0.85100  1.0000
  O   O1        1.0  0.38587  0.11730  0.36849  1.0000
  O   O2        1.0  0.61413  0.88271  0.63151  1.0000
  O   O3        1.0  0.26174  0.25938  0.27126  1.0000
  O   O4        1.0  0.73826  0.74063  0.72874  1.0000
  O   O5        1.0  0.06525  0.43837  0.35496  1.0000
  O   O6        1.0  0.93475  0.56163  0.64504  1.0000
  O   O7        1.0  0.65099  0.39243  0.04387  1.0000
  O   O8        1.0  0.34901  0.60757  0.95613  1.0000
  O   O9        1.0  0.75643  0.58042  0.99610  1.0000
  O   O10       1.0  0.24357  0.41957  0.00390  1.0000
  O   O11       1.0  0.61430  0.25729  0.24677  1.0000
  O   O12       1.0  0.38570  0.74271  0.75323  1.0000
  O   O13       1.0  0.76829  0.12233  0.15947  1.0000
  O   O14       1.0  0.23173  0.87767  0.84053  1.0000
