data_image0
_chemical_formula_structural       Mn2V4H6C8N4O12
_chemical_formula_sum              "Mn2 V4 H6 C8 N4 O12"
_cell_length_a       5.92734
_cell_length_b       8.29001
_cell_length_c       10.2184
_cell_angle_alpha    66.0566
_cell_angle_beta     87.6576
_cell_angle_gamma    84.1988

_space_group_name_H-M_alt    "P 1"
_space_group_IT_number       1

loop_
  _space_group_symop_operation_xyz
  'x, y, z'

loop_
  _atom_site_type_symbol
  _atom_site_label
  _atom_site_symmetry_multiplicity
  _atom_site_fract_x
  _atom_site_fract_y
  _atom_site_fract_z
  _atom_site_occupancy
  Mn  Mn1       1.0  0.99985  0.65982  0.68050  1.0000
  Mn  Mn2       1.0  0.00015  0.34018  0.31950  1.0000
  V   V1        1.0  0.76846  0.71771  0.36375  1.0000
  V   V2        1.0  0.23145  0.91837  0.36372  1.0000
  V   V3        1.0  0.23154  0.28230  0.63625  1.0000
  V   V4        1.0  0.76855  0.08163  0.63628  1.0000
  H   H1        1.0  0.56774  0.82258  0.99995  1.0000
  H   H2        1.0  0.43226  0.17742  0.00005  1.0000
  H   H3        1.0  0.40525  0.84013  0.76777  1.0000
  H   H4        1.0  0.59476  0.39201  0.76782  1.0000
  H   H5        1.0  0.59475  0.15988  0.23223  1.0000
  H   H6        1.0  0.40524  0.60799  0.23218  1.0000
  C   C1        1.0  0.34122  0.75589  0.87212  1.0000
  C   C2        1.0  0.65879  0.37191  0.87215  1.0000
  C   C3        1.0  0.65878  0.24411  0.12789  1.0000
  C   C4        1.0  0.34121  0.62809  0.12785  1.0000
  C   C5        1.0  0.09382  0.55229  0.99999  1.0000
  C   C6        1.0  0.90617  0.44771  0.00001  1.0000
  C   C7        1.0  0.43063  0.74463  0.99996  1.0000
  C   C8        1.0  0.56937  0.25536  0.00004  1.0000
  N   N1        1.0  0.17256  0.65900  0.87274  1.0000
  N   N2        1.0  0.82754  0.46812  0.87279  1.0000
  N   N3        1.0  0.82743  0.34100  0.12726  1.0000
  N   N4        1.0  0.17246  0.53188  0.12721  1.0000
  O   O1        1.0  0.79274  0.62704  0.54277  1.0000
  O   O2        1.0  0.20721  0.82997  0.54272  1.0000
  O   O3        1.0  0.20726  0.37296  0.45723  1.0000
  O   O4        1.0  0.79279  0.17003  0.45728  1.0000
  O   O5        1.0  0.99978  0.85369  0.29284  1.0000
  O   O6        1.0  0.00022  0.14631  0.70716  1.0000
  O   O7        1.0  0.78600  0.55810  0.30167  1.0000
  O   O8        1.0  0.21400  0.14011  0.30172  1.0000
  O   O9        1.0  0.21400  0.44190  0.69833  1.0000
  O   O10       1.0  0.78600  0.85989  0.69828  1.0000
  O   O11       1.0  0.49990  0.84652  0.30659  1.0000
  O   O12       1.0  0.50010  0.15348  0.69341  1.0000
