data_image0
_chemical_formula_structural       La4B10H14C8O28
_chemical_formula_sum              "La4 B10 H14 C8 O28"
_cell_length_a       6.49088
_cell_length_b       10.8991
_cell_length_c       11.4231
_cell_angle_alpha    61.5131
_cell_angle_beta     89.8778
_cell_angle_gamma    89.7445

_space_group_name_H-M_alt    "P 1"
_space_group_IT_number       1

loop_
  _space_group_symop_operation_xyz
  'x, y, z'

loop_
  _atom_site_type_symbol
  _atom_site_label
  _atom_site_symmetry_multiplicity
  _atom_site_fract_x
  _atom_site_fract_y
  _atom_site_fract_z
  _atom_site_occupancy
  La  La1       1.0  0.83573  0.38470  0.47904  1.0000
  La  La2       1.0  0.33587  0.86383  0.52087  1.0000
  La  La3       1.0  0.66481  0.81299  0.13565  1.0000
  La  La4       1.0  0.16477  0.94846  0.86449  1.0000
  B   B1        1.0  0.32096  0.58856  0.40987  1.0000
  B   B2        1.0  0.82095  0.99847  0.59009  1.0000
  B   B3        1.0  0.21104  0.79707  0.19469  1.0000
  B   B4        1.0  0.71108  0.99166  0.80535  1.0000
  B   B5        1.0  0.97375  0.68997  0.39024  1.0000
  B   B6        1.0  0.47370  0.08021  0.60984  1.0000
  B   B7        1.0  0.36868  0.33085  0.46583  1.0000
  B   B8        1.0  0.86872  0.79666  0.53421  1.0000
  B   B9        1.0  0.63000  0.62847  0.51854  1.0000
  B   B10       1.0  0.13001  0.14700  0.48150  1.0000
  H   H1        1.0  0.07788  0.37272  0.17968  1.0000
  H   H2        1.0  0.57771  0.55313  0.82013  1.0000
  H   H3        1.0  0.26139  0.51077  0.12159  1.0000
  H   H4        1.0  0.76103  0.63317  0.87826  1.0000
  H   H5        1.0  0.09439  0.49781  0.00556  1.0000
  H   H6        1.0  0.59440  0.50386  0.99430  1.0000
  H   H7        1.0  0.71592  0.26703  0.14054  1.0000
  H   H8        1.0  0.21597  0.40735  0.85940  1.0000
  H   H9        1.0  0.67613  0.17660  0.31826  1.0000
  H   H10       1.0  0.17614  0.49481  0.68167  1.0000
  H   H11       1.0  0.46114  0.23312  0.21224  1.0000
  H   H12       1.0  0.96114  0.44538  0.78771  1.0000
  H   H13       1.0  0.57886  0.43781  0.68461  1.0000
  H   H14       1.0  0.07907  0.12245  0.31537  1.0000
  C   C1        1.0  0.95507  0.57811  0.12499  1.0000
  C   C2        1.0  0.45458  0.70342  0.87525  1.0000
  C   C3        1.0  0.10472  0.48206  0.10776  1.0000
  C   C4        1.0  0.60447  0.59044  0.89216  1.0000
  C   C5        1.0  0.61376  0.05456  0.22080  1.0000
  C   C6        1.0  0.11339  0.27532  0.77901  1.0000
  C   C7        1.0  0.61867  0.19256  0.22150  1.0000
  C   C8        1.0  0.11861  0.41399  0.77840  1.0000
  O   O1        1.0  0.43352  0.46199  0.43179  1.0000
  O   O2        1.0  0.93350  0.89381  0.56816  1.0000
  O   O3        1.0  0.35350  0.69212  0.26819  1.0000
  O   O4        1.0  0.85353  0.96028  0.73180  1.0000
  O   O5        1.0  0.10015  0.56383  0.43615  1.0000
  O   O6        1.0  0.60009  0.00000  0.56385  1.0000
  O   O7        1.0  0.27787  0.89782  0.07608  1.0000
  O   O8        1.0  0.77804  0.97353  0.92407  1.0000
  O   O9        1.0  0.01565  0.79017  0.24792  1.0000
  O   O10       1.0  0.51571  0.03809  0.75216  1.0000
  O   O11       1.0  0.51895  0.23132  0.53040  1.0000
  O   O12       1.0  0.01905  0.76163  0.46970  1.0000
  O   O13       1.0  0.75471  0.65357  0.39990  1.0000
  O   O14       1.0  0.25465  0.05348  0.60016  1.0000
  O   O15       1.0  0.67968  0.73434  0.56340  1.0000
  O   O16       1.0  0.17964  0.29771  0.43666  1.0000
  O   O17       1.0  0.69051  0.48545  0.62297  1.0000
  O   O18       1.0  0.19068  0.10840  0.37705  1.0000
  O   O19       1.0  0.41094  0.64246  0.49510  1.0000
  O   O20       1.0  0.91091  0.13756  0.50482  1.0000
  O   O21       1.0  0.95673  0.70794  0.04030  1.0000
  O   O22       1.0  0.45625  0.74833  0.96015  1.0000
  O   O23       1.0  0.82759  0.53037  0.22267  1.0000
  O   O24       1.0  0.32702  0.75351  0.77760  1.0000
  O   O25       1.0  0.71973  0.03906  0.13584  1.0000
  O   O26       1.0  0.21965  0.17491  0.86373  1.0000
  O   O27       1.0  0.50318  0.95400  0.30772  1.0000
  O   O28       1.0  0.00229  0.26173  0.69228  1.0000
