data_image0
_chemical_formula_structural       Pr4B10H14C8O28
_chemical_formula_sum              "Pr4 B10 H14 C8 O28"
_cell_length_a       6.44999
_cell_length_b       10.8187
_cell_length_c       11.3978
_cell_angle_alpha    61.6783
_cell_angle_beta     89.8235
_cell_angle_gamma    89.6211

_space_group_name_H-M_alt    "P 1"
_space_group_IT_number       1

loop_
  _space_group_symop_operation_xyz
  'x, y, z'

loop_
  _atom_site_type_symbol
  _atom_site_label
  _atom_site_symmetry_multiplicity
  _atom_site_fract_x
  _atom_site_fract_y
  _atom_site_fract_z
  _atom_site_occupancy
  Pr  Pr1       1.0  0.83432  0.38592  0.47700  1.0000
  Pr  Pr2       1.0  0.33446  0.86299  0.52294  1.0000
  Pr  Pr3       1.0  0.66374  0.81192  0.13579  1.0000
  Pr  Pr4       1.0  0.16378  0.94758  0.86430  1.0000
  B   B1        1.0  0.31946  0.59056  0.40760  1.0000
  B   B2        1.0  0.81948  0.99823  0.59241  1.0000
  B   B3        1.0  0.21099  0.80077  0.19216  1.0000
  B   B4        1.0  0.71101  0.99294  0.80793  1.0000
  B   B5        1.0  0.97150  0.69287  0.38679  1.0000
  B   B6        1.0  0.47148  0.07962  0.61335  1.0000
  B   B7        1.0  0.36802  0.33143  0.46587  1.0000
  B   B8        1.0  0.86807  0.79723  0.53428  1.0000
  B   B9        1.0  0.62783  0.62959  0.51679  1.0000
  B   B10       1.0  0.12785  0.14635  0.48330  1.0000
  H   H1        1.0  0.07661  0.37096  0.18171  1.0000
  H   H2        1.0  0.57557  0.55249  0.81808  1.0000
  H   H3        1.0  0.26032  0.51034  0.12269  1.0000
  H   H4        1.0  0.75976  0.63254  0.87720  1.0000
  H   H5        1.0  0.09292  0.49499  0.00717  1.0000
  H   H6        1.0  0.59216  0.50188  0.99265  1.0000
  H   H7        1.0  0.71479  0.26511  0.14117  1.0000
  H   H8        1.0  0.21504  0.40615  0.85866  1.0000
  H   H9        1.0  0.67116  0.17725  0.31867  1.0000
  H   H10       1.0  0.17137  0.49575  0.68116  1.0000
  H   H11       1.0  0.45698  0.23438  0.21017  1.0000
  H   H12       1.0  0.95722  0.44461  0.78971  1.0000
  H   H13       1.0  0.58023  0.43563  0.68206  1.0000
  H   H14       1.0  0.08020  0.11766  0.31804  1.0000
  C   C1        1.0  0.95176  0.57771  0.12530  1.0000
  C   C2        1.0  0.45146  0.70289  0.87467  1.0000
  C   C3        1.0  0.10321  0.48065  0.10903  1.0000
  C   C4        1.0  0.60249  0.58941  0.89082  1.0000
  C   C5        1.0  0.60876  0.05215  0.22300  1.0000
  C   C6        1.0  0.10862  0.27508  0.77691  1.0000
  C   C7        1.0  0.61506  0.19203  0.22188  1.0000
  C   C8        1.0  0.11522  0.41388  0.77794  1.0000
  O   O1        1.0  0.43449  0.46387  0.42824  1.0000
  O   O2        1.0  0.93452  0.89217  0.57178  1.0000
  O   O3        1.0  0.35368  0.69504  0.26679  1.0000
  O   O4        1.0  0.85369  0.96202  0.73319  1.0000
  O   O5        1.0  0.09747  0.56537  0.43260  1.0000
  O   O6        1.0  0.59746  0.99799  0.56747  1.0000
  O   O7        1.0  0.28099  0.90075  0.07436  1.0000
  O   O8        1.0  0.78104  0.97503  0.92577  1.0000
  O   O9        1.0  0.01295  0.79333  0.24434  1.0000
  O   O10       1.0  0.51290  0.03759  0.75582  1.0000
  O   O11       1.0  0.51818  0.23164  0.53404  1.0000
  O   O12       1.0  0.01823  0.76555  0.46615  1.0000
  O   O13       1.0  0.75119  0.65684  0.39673  1.0000
  O   O14       1.0  0.25118  0.05351  0.60338  1.0000
  O   O15       1.0  0.67813  0.73426  0.56396  1.0000
  O   O16       1.0  0.17808  0.29815  0.43619  1.0000
  O   O17       1.0  0.69076  0.48500  0.61938  1.0000
  O   O18       1.0  0.19080  0.10439  0.38067  1.0000
  O   O19       1.0  0.40726  0.64341  0.49505  1.0000
  O   O20       1.0  0.90725  0.13847  0.50491  1.0000
  O   O21       1.0  0.95146  0.70795  0.03971  1.0000
  O   O22       1.0  0.45152  0.74751  0.96033  1.0000
  O   O23       1.0  0.82364  0.53056  0.22319  1.0000
  O   O24       1.0  0.32334  0.75382  0.77679  1.0000
  O   O25       1.0  0.71166  0.03602  0.13670  1.0000
  O   O26       1.0  0.21136  0.17264  0.86328  1.0000
  O   O27       1.0  0.50071  0.95135  0.31199  1.0000
  O   O28       1.0  0.00043  0.26322  0.68800  1.0000
