data_image0
_chemical_formula_structural       La4B10H14C8O28
_chemical_formula_sum              "La4 B10 H14 C8 O28"
_cell_length_a       6.46552
_cell_length_b       10.994
_cell_length_c       11.5361
_cell_angle_alpha    61.5632
_cell_angle_beta     89.6671
_cell_angle_gamma    89.2989

_space_group_name_H-M_alt    "P 1"
_space_group_IT_number       1

loop_
  _space_group_symop_operation_xyz
  'x, y, z'

loop_
  _atom_site_type_symbol
  _atom_site_label
  _atom_site_symmetry_multiplicity
  _atom_site_fract_x
  _atom_site_fract_y
  _atom_site_fract_z
  _atom_site_occupancy
  La  La1       1.0  0.82463  0.38387  0.48558  1.0000
  La  La2       1.0  0.32469  0.86947  0.51439  1.0000
  La  La3       1.0  0.66036  0.79021  0.13401  1.0000
  La  La4       1.0  0.16038  0.92436  0.86607  1.0000
  B   B1        1.0  0.31393  0.58592  0.41695  1.0000
  B   B2        1.0  0.81396  0.00294  0.58311  1.0000
  B   B3        1.0  0.20922  0.78154  0.19456  1.0000
  B   B4        1.0  0.70921  0.97630  0.80554  1.0000
  B   B5        1.0  0.96534  0.69156  0.38421  1.0000
  B   B6        1.0  0.46532  0.07584  0.61586  1.0000
  B   B7        1.0  0.36235  0.32709  0.48214  1.0000
  B   B8        1.0  0.86241  0.80920  0.51795  1.0000
  B   B9        1.0  0.62486  0.63701  0.51309  1.0000
  B   B10       1.0  0.12481  0.15010  0.48694  1.0000
  H   H1        1.0  0.05969  0.34890  0.19315  1.0000
  H   H2        1.0  0.55999  0.54249  0.80656  1.0000
  H   H3        1.0  0.25306  0.48018  0.14013  1.0000
  H   H4        1.0  0.75317  0.62091  0.85963  1.0000
  H   H5        1.0  0.09369  0.46988  0.02121  1.0000
  H   H6        1.0  0.59408  0.49150  0.97852  1.0000
  H   H7        1.0  0.74131  0.24923  0.11323  1.0000
  H   H8        1.0  0.24147  0.36272  0.88677  1.0000
  H   H9        1.0  0.67624  0.19098  0.28277  1.0000
  H   H10       1.0  0.17631  0.47397  0.71717  1.0000
  H   H11       1.0  0.47796  0.25031  0.15958  1.0000
  H   H12       1.0  0.97816  0.41016  0.84043  1.0000
  H   H13       1.0  0.80288  0.49941  0.67179  1.0000
  H   H14       1.0  0.30276  0.17118  0.32816  1.0000
  C   C1        1.0  0.94874  0.55766  0.13173  1.0000
  C   C2        1.0  0.44864  0.68957  0.86821  1.0000
  C   C3        1.0  0.09594  0.45581  0.12197  1.0000
  C   C4        1.0  0.59616  0.57821  0.87779  1.0000
  C   C5        1.0  0.59885  0.04850  0.21121  1.0000
  C   C6        1.0  0.09882  0.25998  0.78877  1.0000
  C   C7        1.0  0.62676  0.19412  0.19034  1.0000
  C   C8        1.0  0.12700  0.38474  0.80961  1.0000
  O   O1        1.0  0.42792  0.45653  0.44896  1.0000
  O   O2        1.0  0.92797  0.90544  0.55120  1.0000
  O   O3        1.0  0.34999  0.67900  0.27407  1.0000
  O   O4        1.0  0.85005  0.95338  0.72596  1.0000
  O   O5        1.0  0.09105  0.56426  0.44093  1.0000
  O   O6        1.0  0.59106  0.00516  0.55919  1.0000
  O   O7        1.0  0.27999  0.87416  0.07500  1.0000
  O   O8        1.0  0.77993  0.94914  0.92518  1.0000
  O   O9        1.0  0.01097  0.78028  0.24198  1.0000
  O   O10       1.0  0.51097  0.02250  0.75809  1.0000
  O   O11       1.0  0.51093  0.22657  0.54601  1.0000
  O   O12       1.0  0.01095  0.77254  0.45404  1.0000
  O   O13       1.0  0.74434  0.65934  0.39283  1.0000
  O   O14       1.0  0.24429  0.05224  0.60722  1.0000
  O   O15       1.0  0.67452  0.74580  0.55169  1.0000
  O   O16       1.0  0.17447  0.29744  0.44836  1.0000
  O   O17       1.0  0.68506  0.49710  0.62110  1.0000
  O   O18       1.0  0.18511  0.11810  0.37897  1.0000
  O   O19       1.0  0.40436  0.64743  0.49343  1.0000
  O   O20       1.0  0.90427  0.14089  0.50656  1.0000
  O   O21       1.0  0.95214  0.68384  0.04215  1.0000
  O   O22       1.0  0.45211  0.72615  0.95786  1.0000
  O   O23       1.0  0.82136  0.51805  0.22879  1.0000
  O   O24       1.0  0.32106  0.74689  0.77127  1.0000
  O   O25       1.0  0.69342  0.01187  0.13712  1.0000
  O   O26       1.0  0.19297  0.14913  0.86303  1.0000
  O   O27       1.0  0.47824  0.96785  0.30450  1.0000
  O   O28       1.0  0.97840  0.27271  0.69537  1.0000
