data_image0
_chemical_formula_structural       Pr4B10H14C8O28
_chemical_formula_sum              "Pr4 B10 H14 C8 O28"
_cell_length_a       6.42449
_cell_length_b       10.9462
_cell_length_c       11.486
_cell_angle_alpha    61.5455
_cell_angle_beta     89.6245
_cell_angle_gamma    89.2065

_space_group_name_H-M_alt    "P 1"
_space_group_IT_number       1

loop_
  _space_group_symop_operation_xyz
  'x, y, z'

loop_
  _atom_site_type_symbol
  _atom_site_label
  _atom_site_symmetry_multiplicity
  _atom_site_fract_x
  _atom_site_fract_y
  _atom_site_fract_z
  _atom_site_occupancy
  Pr  Pr1       1.0  0.82369  0.38590  0.48596  1.0000
  Pr  Pr2       1.0  0.32368  0.87191  0.51395  1.0000
  Pr  Pr3       1.0  0.65964  0.78781  0.13523  1.0000
  Pr  Pr4       1.0  0.15971  0.92306  0.86477  1.0000
  B   B1        1.0  0.31318  0.58793  0.41652  1.0000
  B   B2        1.0  0.81321  0.00446  0.58347  1.0000
  B   B3        1.0  0.21016  0.78350  0.19176  1.0000
  B   B4        1.0  0.71018  0.97528  0.80826  1.0000
  B   B5        1.0  0.96433  0.69476  0.38140  1.0000
  B   B6        1.0  0.46434  0.07616  0.61857  1.0000
  B   B7        1.0  0.36272  0.32836  0.48421  1.0000
  B   B8        1.0  0.86275  0.81256  0.51582  1.0000
  B   B9        1.0  0.62400  0.63997  0.51192  1.0000
  B   B10       1.0  0.12399  0.15192  0.48803  1.0000
  H   H1        1.0  0.05728  0.34551  0.19745  1.0000
  H   H2        1.0  0.55695  0.54299  0.80245  1.0000
  H   H3        1.0  0.24942  0.47931  0.13760  1.0000
  H   H4        1.0  0.74925  0.61686  0.86227  1.0000
  H   H5        1.0  0.08235  0.46445  0.02333  1.0000
  H   H6        1.0  0.58221  0.48774  0.97657  1.0000
  H   H7        1.0  0.75141  0.24487  0.11248  1.0000
  H   H8        1.0  0.25149  0.35729  0.88775  1.0000
  H   H9        1.0  0.69792  0.18444  0.28477  1.0000
  H   H10       1.0  0.19798  0.46930  0.71546  1.0000
  H   H11       1.0  0.49156  0.25024  0.16586  1.0000
  H   H12       1.0  0.99164  0.41608  0.83436  1.0000
  H   H13       1.0  0.80571  0.50130  0.67059  1.0000
  H   H14       1.0  0.30580  0.17204  0.32938  1.0000
  C   C1        1.0  0.94328  0.55527  0.13365  1.0000
  C   C2        1.0  0.44319  0.68892  0.86637  1.0000
  C   C3        1.0  0.09034  0.45260  0.12364  1.0000
  C   C4        1.0  0.59014  0.57623  0.87628  1.0000
  C   C5        1.0  0.60069  0.04577  0.21226  1.0000
  C   C6        1.0  0.10075  0.25820  0.78772  1.0000
  C   C7        1.0  0.63911  0.19070  0.19231  1.0000
  C   C8        1.0  0.13922  0.38305  0.80789  1.0000
  O   O1        1.0  0.42993  0.45828  0.44972  1.0000
  O   O2        1.0  0.92997  0.90798  0.55032  1.0000
  O   O3        1.0  0.35089  0.68028  0.27333  1.0000
  O   O4        1.0  0.85094  0.95375  0.72664  1.0000
  O   O5        1.0  0.08900  0.56595  0.44001  1.0000
  O   O6        1.0  0.58902  0.00593  0.55998  1.0000
  O   O7        1.0  0.28450  0.87522  0.07267  1.0000
  O   O8        1.0  0.78449  0.94789  0.92737  1.0000
  O   O9        1.0  0.00960  0.78167  0.23823  1.0000
  O   O10       1.0  0.50961  0.01988  0.76176  1.0000
  O   O11       1.0  0.51131  0.22737  0.55024  1.0000
  O   O12       1.0  0.01130  0.77764  0.44975  1.0000
  O   O13       1.0  0.74199  0.66303  0.39036  1.0000
  O   O14       1.0  0.24199  0.05339  0.60959  1.0000
  O   O15       1.0  0.67404  0.74867  0.55099  1.0000
  O   O16       1.0  0.17399  0.29965  0.44904  1.0000
  O   O17       1.0  0.68759  0.49903  0.61933  1.0000
  O   O18       1.0  0.18767  0.11848  0.38058  1.0000
  O   O19       1.0  0.40198  0.65011  0.49368  1.0000
  O   O20       1.0  0.90195  0.14378  0.50624  1.0000
  O   O21       1.0  0.94476  0.68158  0.04271  1.0000
  O   O22       1.0  0.44477  0.72423  0.95735  1.0000
  O   O23       1.0  0.81712  0.51679  0.23224  1.0000
  O   O24       1.0  0.31706  0.74914  0.76777  1.0000
  O   O25       1.0  0.69358  0.00688  0.13861  1.0000
  O   O26       1.0  0.19336  0.14552  0.86136  1.0000
  O   O27       1.0  0.47478  0.96819  0.30429  1.0000
  O   O28       1.0  0.97508  0.27294  0.69549  1.0000
