data_image0
_chemical_formula_structural       Zn5H16C28N18O10F8
_chemical_formula_sum              "Zn5 H16 C28 N18 O10 F8"
_cell_length_a       10.0264
_cell_length_b       10.2641
_cell_length_c       12.8657
_cell_angle_alpha    74.6786
_cell_angle_beta     83.1709
_cell_angle_gamma    60.9028

_space_group_name_H-M_alt    "P 1"
_space_group_IT_number       1

loop_
  _space_group_symop_operation_xyz
  'x, y, z'

loop_
  _atom_site_type_symbol
  _atom_site_label
  _atom_site_symmetry_multiplicity
  _atom_site_fract_x
  _atom_site_fract_y
  _atom_site_fract_z
  _atom_site_occupancy
  Zn  Zn1       1.0  0.50000  0.50000  1.00000  1.0000
  Zn  Zn2       1.0  0.48413  0.40992  0.28368  1.0000
  Zn  Zn3       1.0  0.51587  0.59008  0.71632  1.0000
  Zn  Zn4       1.0  0.15565  0.11295  0.14692  1.0000
  Zn  Zn5       1.0  0.84435  0.88705  0.85308  1.0000
  H   H1        1.0  0.29986  0.30845  0.98067  1.0000
  H   H2        1.0  0.70014  0.69156  0.01933  1.0000
  H   H3        1.0  0.31680  0.88926  0.98862  1.0000
  H   H4        1.0  0.68320  0.11074  0.01138  1.0000
  H   H5        1.0  0.87103  0.17009  0.33472  1.0000
  H   H6        1.0  0.12897  0.82991  0.66528  1.0000
  H   H7        1.0  0.87098  0.29997  0.99510  1.0000
  H   H8        1.0  0.12902  0.70003  0.00490  1.0000
  H   H9        1.0  0.27077  0.23267  0.31738  1.0000
  H   H10       1.0  0.72923  0.76733  0.68262  1.0000
  H   H11       1.0  0.29660  0.77074  0.32663  1.0000
  H   H12       1.0  0.70340  0.22926  0.67338  1.0000
  H   H13       1.0  0.10554  0.12973  0.38793  1.0000
  H   H14       1.0  0.89446  0.87027  0.61207  1.0000
  H   H15       1.0  0.24764  0.96549  0.40034  1.0000
  H   H16       1.0  0.75236  0.03451  0.59966  1.0000
  C   C1        1.0  0.83556  0.22392  0.25118  1.0000
  C   C2        1.0  0.16444  0.77608  0.74882  1.0000
  C   C3        1.0  0.83411  0.29159  0.07889  1.0000
  C   C4        1.0  0.16589  0.70841  0.92111  1.0000
  C   C5        1.0  0.29443  0.27132  0.23412  1.0000
  C   C6        1.0  0.70557  0.72868  0.76588  1.0000
  C   C7        1.0  0.31087  0.30986  0.06298  1.0000
  C   C8        1.0  0.68913  0.69014  0.93702  1.0000
  C   C9        1.0  0.32124  0.76475  0.24316  1.0000
  C   C10       1.0  0.67876  0.23525  0.75684  1.0000
  C   C11       1.0  0.33217  0.82318  0.07137  1.0000
  C   C12       1.0  0.66783  0.17682  0.92863  1.0000
  C   C13       1.0  0.49121  0.27301  0.50874  1.0000
  C   C14       1.0  0.50879  0.72699  0.49127  1.0000
  C   C15       1.0  0.39768  0.25851  0.60796  1.0000
  C   C16       1.0  0.60232  0.74149  0.39204  1.0000
  C   C17       1.0  0.30174  0.38447  0.65149  1.0000
  C   C18       1.0  0.69826  0.61553  0.34851  1.0000
  C   C19       1.0  0.39700  0.12012  0.65696  1.0000
  C   C20       1.0  0.60300  0.87988  0.34304  1.0000
  C   C21       1.0  0.21091  0.37156  0.74012  1.0000
  C   C22       1.0  0.78909  0.62844  0.25988  1.0000
  C   C23       1.0  0.30663  0.10800  0.74604  1.0000
  C   C24       1.0  0.69336  0.89200  0.25396  1.0000
  C   C25       1.0  0.21101  0.23329  0.78913  1.0000
  C   C26       1.0  0.78898  0.76671  0.21087  1.0000
  C   C27       1.0  0.10558  0.22124  0.88310  1.0000
  C   C28       1.0  0.89442  0.77876  0.11690  1.0000
  N   N1        1.0  0.69076  0.31629  0.21967  1.0000
  N   N2        1.0  0.30924  0.68371  0.78033  1.0000
  N   N3        1.0  0.69002  0.35921  0.10900  1.0000
  N   N4        1.0  0.30998  0.64079  0.89100  1.0000
  N   N5        1.0  0.92958  0.20575  0.16530  1.0000
  N   N6        1.0  0.07042  0.79425  0.83470  1.0000
  N   N7        1.0  0.36931  0.35160  0.20246  1.0000
  N   N8        1.0  0.63069  0.64840  0.79754  1.0000
  N   N9        1.0  0.37981  0.37708  0.09251  1.0000
  N   N10       1.0  0.62019  0.62292  0.90749  1.0000
  N   N11       1.0  0.25593  0.24120  0.14931  1.0000
  N   N12       1.0  0.74407  0.75880  0.85069  1.0000
  N   N13       1.0  0.39770  0.63393  0.21163  1.0000
  N   N14       1.0  0.60230  0.36607  0.78837  1.0000
  N   N15       1.0  0.40418  0.67103  0.10110  1.0000
  N   N16       1.0  0.59581  0.32897  0.89890  1.0000
  N   N17       1.0  0.27882  0.88709  0.15760  1.0000
  N   N18       1.0  0.72118  0.11291  0.84240  1.0000
  O   O1        1.0  0.41109  0.38218  0.42972  1.0000
  O   O2        1.0  0.58891  0.61782  0.57028  1.0000
  O   O3        1.0  0.63150  0.18383  0.50794  1.0000
  O   O4        1.0  0.36850  0.81617  0.49206  1.0000
  O   O5        1.0  0.97056  0.26828  0.85927  1.0000
  O   O6        1.0  0.02944  0.73172  0.14073  1.0000
  O   O7        1.0  0.17207  0.16326  0.97542  1.0000
  O   O8        1.0  0.82793  0.83674  0.02458  1.0000
  O   O9        1.0  0.16519  0.05054  0.34886  1.0000
  O   O10       1.0  0.83481  0.94946  0.65114  1.0000
  F   F1        1.0  0.29705  0.52240  0.60777  1.0000
  F   F2        1.0  0.70295  0.47760  0.39222  1.0000
  F   F3        1.0  0.48074  0.99600  0.61478  1.0000
  F   F4        1.0  0.51926  0.00399  0.38522  1.0000
  F   F5        1.0  0.11940  0.49763  0.77939  1.0000
  F   F6        1.0  0.88060  0.50237  0.22061  1.0000
  F   F7        1.0  0.31035  0.97038  0.79043  1.0000
  F   F8        1.0  0.68965  0.02962  0.20957  1.0000
