data_image0
_chemical_formula_structural       Zn4H32C28N12
_chemical_formula_sum              "Zn4 H32 C28 N12"
_cell_length_a       7.38688
_cell_length_b       12.1621
_cell_length_c       12.1618
_cell_angle_alpha    60.9576
_cell_angle_beta     81.4634
_cell_angle_gamma    81.4606

_space_group_name_H-M_alt    "P 1"
_space_group_IT_number       1

loop_
  _space_group_symop_operation_xyz
  'x, y, z'

loop_
  _atom_site_type_symbol
  _atom_site_label
  _atom_site_symmetry_multiplicity
  _atom_site_fract_x
  _atom_site_fract_y
  _atom_site_fract_z
  _atom_site_occupancy
  Zn  Zn1       1.0  0.08542  0.92391  0.21261  1.0000
  Zn  Zn2       1.0  0.41460  0.78740  0.07609  1.0000
  Zn  Zn3       1.0  0.91460  0.07611  0.78738  1.0000
  Zn  Zn4       1.0  0.58540  0.21262  0.92388  1.0000
  H   H1        1.0  0.77900  0.97062  0.38359  1.0000
  H   H2        1.0  0.72099  0.61641  0.02938  1.0000
  H   H3        1.0  0.22108  0.02937  0.61641  1.0000
  H   H4        1.0  0.27895  0.38359  0.97061  1.0000
  H   H5        1.0  0.60950  0.08466  0.49685  1.0000
  H   H6        1.0  0.89049  0.50315  0.91534  1.0000
  H   H7        1.0  0.39059  0.91529  0.50318  1.0000
  H   H8        1.0  0.10946  0.49684  0.08467  1.0000
  H   H9        1.0  0.52036  0.31622  0.37737  1.0000
  H   H10       1.0  0.97961  0.62262  0.68377  1.0000
  H   H11       1.0  0.47963  0.68372  0.62268  1.0000
  H   H12       1.0  0.02039  0.37736  0.31624  1.0000
  H   H13       1.0  0.60106  0.43114  0.14593  1.0000
  H   H14       1.0  0.89893  0.85407  0.56885  1.0000
  H   H15       1.0  0.39884  0.56882  0.85411  1.0000
  H   H16       1.0  0.10114  0.14593  0.43116  1.0000
  H   H17       1.0  0.77594  0.31837  0.03402  1.0000
  H   H18       1.0  0.72407  0.96598  0.68164  1.0000
  H   H19       1.0  0.22397  0.68164  0.96599  1.0000
  H   H20       1.0  0.27599  0.03403  0.31836  1.0000
  H   H21       1.0  0.12767  0.82366  0.44779  1.0000
  H   H22       1.0  0.37235  0.55222  0.17638  1.0000
  H   H23       1.0  0.87233  0.17636  0.55219  1.0000
  H   H24       1.0  0.62766  0.44779  0.82362  1.0000
  H   H25       1.0  0.27575  0.74205  0.37703  1.0000
  H   H26       1.0  0.22426  0.62301  0.25796  1.0000
  H   H27       1.0  0.72424  0.25796  0.62296  1.0000
  H   H28       1.0  0.77575  0.37703  0.74201  1.0000
  H   H29       1.0  0.03938  0.71487  0.41563  1.0000
  H   H30       1.0  0.46063  0.58439  0.28517  1.0000
  H   H31       1.0  0.96060  0.28516  0.58435  1.0000
  H   H32       1.0  0.53937  0.41564  0.71481  1.0000
  C   C1        1.0  0.78553  0.13709  0.20178  1.0000
  C   C2        1.0  0.71446  0.79821  0.86292  1.0000
  C   C3        1.0  0.21446  0.86292  0.79822  1.0000
  C   C4        1.0  0.28554  0.20179  0.13707  1.0000
  C   C5        1.0  0.74065  0.07194  0.33279  1.0000
  C   C6        1.0  0.75934  0.66721  0.92806  1.0000
  C   C7        1.0  0.25939  0.92805  0.66722  1.0000
  C   C8        1.0  0.24062  0.33278  0.07194  1.0000
  C   C9        1.0  0.64578  0.13623  0.39540  1.0000
  C   C10       1.0  0.85421  0.60459  0.86377  1.0000
  C   C11       1.0  0.35427  0.86374  0.60462  1.0000
  C   C12       1.0  0.14577  0.39540  0.13623  1.0000
  C   C13       1.0  0.59480  0.26569  0.32864  1.0000
  C   C14       1.0  0.90518  0.67135  0.73431  1.0000
  C   C15       1.0  0.40520  0.73426  0.67140  1.0000
  C   C16       1.0  0.09482  0.32863  0.26570  1.0000
  C   C17       1.0  0.64012  0.33024  0.19846  1.0000
  C   C18       1.0  0.85988  0.80153  0.66976  1.0000
  C   C19       1.0  0.35983  0.66974  0.80156  1.0000
  C   C20       1.0  0.14016  0.19847  0.33024  1.0000
  C   C21       1.0  0.73603  0.26724  0.13490  1.0000
  C   C22       1.0  0.76396  0.86510  0.73277  1.0000
  C   C23       1.0  0.26392  0.73275  0.86512  1.0000
  C   C24       1.0  0.23606  0.13490  0.26723  1.0000
  C   C25       1.0  0.13643  0.78760  0.37985  1.0000
  C   C26       1.0  0.36359  0.62017  0.21242  1.0000
  C   C27       1.0  0.86357  0.21241  0.62014  1.0000
  C   C28       1.0  0.63642  0.37985  0.78756  1.0000
  N   N1        1.0  0.88321  0.06812  0.14302  1.0000
  N   N2        1.0  0.61679  0.85698  0.93188  1.0000
  N   N3        1.0  0.11680  0.93189  0.85697  1.0000
  N   N4        1.0  0.38321  0.14303  0.06811  1.0000
  N   N5        1.0  0.85091  0.10907  0.02603  1.0000
  N   N6        1.0  0.64910  0.97395  0.89094  1.0000
  N   N7        1.0  0.14909  0.89095  0.97395  1.0000
  N   N8        1.0  0.35091  0.02606  0.10905  1.0000
  N   N9        1.0  0.94176  0.05102  0.96562  1.0000
  N   N10       1.0  0.55825  0.03437  0.94899  1.0000
  N   N11       1.0  0.05825  0.94900  0.03436  1.0000
  N   N12       1.0  0.44175  0.96564  0.05100  1.0000
