data_image0
_chemical_formula_structural       Ag2H26C36S2N4O14
_chemical_formula_sum              "Ag2 H26 C36 S2 N4 O14"
_cell_length_a       7.83505
_cell_length_b       9.77543
_cell_length_c       11.6683
_cell_angle_alpha    82.4366
_cell_angle_beta     86.1129
_cell_angle_gamma    79.8961

_space_group_name_H-M_alt    "P 1"
_space_group_IT_number       1

loop_
  _space_group_symop_operation_xyz
  'x, y, z'

loop_
  _atom_site_type_symbol
  _atom_site_label
  _atom_site_symmetry_multiplicity
  _atom_site_fract_x
  _atom_site_fract_y
  _atom_site_fract_z
  _atom_site_occupancy
  Ag  Ag1       1.0  0.65563  0.57912  0.94623  1.0000
  Ag  Ag2       1.0  0.34436  0.42088  0.05377  1.0000
  H   H1        1.0  0.88217  0.38072  0.11844  1.0000
  H   H2        1.0  0.11783  0.61928  0.88156  1.0000
  H   H3        1.0  0.10275  0.16923  0.12748  1.0000
  H   H4        1.0  0.89725  0.83077  0.87252  1.0000
  H   H5        1.0  0.86340  0.40840  0.76217  1.0000
  H   H6        1.0  0.13660  0.59160  0.23784  1.0000
  H   H7        1.0  0.08132  0.19437  0.75365  1.0000
  H   H8        1.0  0.91868  0.80563  0.24635  1.0000
  H   H9        1.0  0.26074  0.98722  0.12960  1.0000
  H   H10       1.0  0.73925  0.01278  0.87040  1.0000
  H   H11       1.0  0.47047  0.76695  0.12379  1.0000
  H   H12       1.0  0.52953  0.23305  0.87621  1.0000
  H   H13       1.0  0.25832  0.01680  0.75479  1.0000
  H   H14       1.0  0.74168  0.98320  0.24521  1.0000
  H   H15       1.0  0.46106  0.79335  0.76784  1.0000
  H   H16       1.0  0.53894  0.20666  0.23216  1.0000
  H   H17       1.0  0.31618  0.69802  0.33350  1.0000
  H   H18       1.0  0.68382  0.30198  0.66650  1.0000
  H   H19       1.0  0.50841  0.89463  0.59595  1.0000
  H   H20       1.0  0.49159  0.10537  0.40405  1.0000
  H   H21       1.0  0.83511  0.55400  0.44919  1.0000
  H   H22       1.0  0.16489  0.44600  0.55081  1.0000
  H   H23       1.0  0.98903  0.94504  0.42288  1.0000
  H   H24       1.0  0.01097  0.05496  0.57712  1.0000
  H   H25       1.0  0.06435  0.64156  0.64593  1.0000
  H   H26       1.0  0.93565  0.35844  0.35407  1.0000
  C   C1        1.0  0.93026  0.33552  0.03959  1.0000
  C   C2        1.0  0.06974  0.66448  0.96040  1.0000
  C   C3        1.0  0.05470  0.21518  0.04309  1.0000
  C   C4        1.0  0.94530  0.78482  0.95691  1.0000
  C   C5        1.0  0.91924  0.35013  0.84077  1.0000
  C   C6        1.0  0.08077  0.64987  0.15923  1.0000
  C   C7        1.0  0.04218  0.22962  0.83754  1.0000
  C   C8        1.0  0.95782  0.77038  0.16246  1.0000
  C   C9        1.0  0.30062  0.95035  0.04623  1.0000
  C   C10       1.0  0.69938  0.04965  0.95377  1.0000
  C   C11       1.0  0.41745  0.82628  0.04473  1.0000
  C   C12       1.0  0.58255  0.17372  0.95527  1.0000
  C   C13       1.0  0.29953  0.96752  0.83982  1.0000
  C   C14       1.0  0.70047  0.03248  0.16018  1.0000
  C   C15       1.0  0.41478  0.84186  0.84536  1.0000
  C   C16       1.0  0.58522  0.15815  0.15464  1.0000
  C   C17       1.0  0.11192  0.15711  0.94048  1.0000
  C   C18       1.0  0.88808  0.84289  0.05952  1.0000
  C   C19       1.0  0.23819  0.02534  0.94191  1.0000
  C   C20       1.0  0.76181  0.97466  0.05809  1.0000
  C   C21       1.0  0.58003  0.61824  0.38051  1.0000
  C   C22       1.0  0.41997  0.38176  0.61949  1.0000
  C   C23       1.0  0.42103  0.70765  0.38676  1.0000
  C   C24       1.0  0.57896  0.29236  0.61324  1.0000
  C   C25       1.0  0.39509  0.80713  0.46496  1.0000
  C   C26       1.0  0.60491  0.19287  0.53504  1.0000
  C   C27       1.0  0.52859  0.81713  0.53539  1.0000
  C   C28       1.0  0.47141  0.18287  0.46461  1.0000
  C   C29       1.0  0.68623  0.72559  0.53039  1.0000
  C   C30       1.0  0.31377  0.27441  0.46961  1.0000
  C   C31       1.0  0.71260  0.62595  0.45207  1.0000
  C   C32       1.0  0.28740  0.37405  0.54793  1.0000
  C   C33       1.0  0.22242  0.89491  0.47983  1.0000
  C   C34       1.0  0.77759  0.10508  0.52016  1.0000
  C   C35       1.0  0.82276  0.73170  0.61217  1.0000
  C   C36       1.0  0.17724  0.26830  0.38784  1.0000
  S   S1        1.0  0.61276  0.49905  0.27407  1.0000
  S   S2        1.0  0.38724  0.50095  0.72593  1.0000
  N   N1        1.0  0.86112  0.40192  0.94049  1.0000
  N   N2        1.0  0.13888  0.59808  0.05951  1.0000
  N   N3        1.0  0.47394  0.77159  0.94602  1.0000
  N   N4        1.0  0.52606  0.22841  0.05398  1.0000
  O   O1        1.0  0.68410  0.57854  0.17165  1.0000
  O   O2        1.0  0.31589  0.42146  0.82835  1.0000
  O   O3        1.0  0.73728  0.37466  0.31830  1.0000
  O   O4        1.0  0.26272  0.62535  0.68170  1.0000
  O   O5        1.0  0.44095  0.46568  0.25964  1.0000
  O   O6        1.0  0.55905  0.53431  0.74036  1.0000
  O   O7        1.0  0.10736  0.88215  0.40622  1.0000
  O   O8        1.0  0.89265  0.11785  0.59378  1.0000
  O   O9        1.0  0.19055  0.97203  0.55870  1.0000
  O   O10       1.0  0.80945  0.02797  0.44130  1.0000
  O   O11       1.0  0.96249  0.63352  0.59955  1.0000
  O   O12       1.0  0.03751  0.36647  0.40046  1.0000
  O   O13       1.0  0.80707  0.81712  0.68249  1.0000
  O   O14       1.0  0.19294  0.18287  0.31750  1.0000
