data_image0
_chemical_formula_structural       HgH10C10N6Cl2O2
_chemical_formula_sum              "Hg1 H10 C10 N6 Cl2 O2"
_cell_length_a       3.92172
_cell_length_b       6.21271
_cell_length_c       14.5095
_cell_angle_alpha    98.8312
_cell_angle_beta     88.7128
_cell_angle_gamma    96.3791

_space_group_name_H-M_alt    "P 1"
_space_group_IT_number       1

loop_
  _space_group_symop_operation_xyz
  'x, y, z'

loop_
  _atom_site_type_symbol
  _atom_site_label
  _atom_site_symmetry_multiplicity
  _atom_site_fract_x
  _atom_site_fract_y
  _atom_site_fract_z
  _atom_site_occupancy
  Hg  Hg1       1.0  0.49998  0.99999  1.00000  1.0000
  H   H1        1.0  0.23029  0.66881  0.30854  1.0000
  H   H2        1.0  0.76976  0.33121  0.69145  1.0000
  H   H3        1.0  0.22728  0.48387  0.14057  1.0000
  H   H4        1.0  0.77274  0.51610  0.85943  1.0000
  H   H5        1.0  0.68546  0.96915  0.21944  1.0000
  H   H6        1.0  0.31446  0.03082  0.78056  1.0000
  H   H7        1.0  0.89983  0.16454  0.54027  1.0000
  H   H8        1.0  0.10018  0.83551  0.45973  1.0000
  H   H9        1.0  0.65892  0.36866  0.51076  1.0000
  H   H10       1.0  0.34110  0.63137  0.48923  1.0000
  C   C1        1.0  0.33633  0.51283  0.28916  1.0000
  C   C2        1.0  0.66371  0.48718  0.71084  1.0000
  C   C3        1.0  0.33139  0.41065  0.19614  1.0000
  C   C4        1.0  0.66861  0.58933  0.80386  1.0000
  C   C5        1.0  0.58310  0.12599  0.23932  1.0000
  C   C6        1.0  0.41686  0.87399  0.76068  1.0000
  C   C7        1.0  0.59431  0.23102  0.33181  1.0000
  C   C8        1.0  0.40568  0.76897  0.66819  1.0000
  C   C9        1.0  0.76526  0.12766  0.40283  1.0000
  C   C10       1.0  0.23475  0.87235  0.59717  1.0000
  N   N1        1.0  0.46854  0.42397  0.35714  1.0000
  N   N2        1.0  0.53149  0.57604  0.64286  1.0000
  N   N3        1.0  0.45406  0.21680  0.17198  1.0000
  N   N4        1.0  0.54591  0.78318  0.82802  1.0000
  N   N5        1.0  0.77699  0.23084  0.49028  1.0000
  N   N6        1.0  0.22303  0.76919  0.50972  1.0000
  Cl  Cl1       1.0  0.85153  0.74990  0.05653  1.0000
  Cl  Cl2       1.0  0.14843  0.25009  0.94347  1.0000
  O   O1        1.0  0.89697  0.95282  0.37609  1.0000
  O   O2        1.0  0.10303  0.04718  0.62392  1.0000
