data_image0
_chemical_formula_structural       Cd4H24C12N16O16
_chemical_formula_sum              "Cd4 H24 C12 N16 O16"
_cell_length_a       7.94028
_cell_length_b       8.69679
_cell_length_c       10.6871
_cell_angle_alpha    89.9993
_cell_angle_beta     92.6785
_cell_angle_gamma    90.0015

_space_group_name_H-M_alt    "P 1"
_space_group_IT_number       1

loop_
  _space_group_symop_operation_xyz
  'x, y, z'

loop_
  _atom_site_type_symbol
  _atom_site_label
  _atom_site_symmetry_multiplicity
  _atom_site_fract_x
  _atom_site_fract_y
  _atom_site_fract_z
  _atom_site_occupancy
  Cd  Cd1       1.0  0.23319  0.52526  0.29452  1.0000
  Cd  Cd2       1.0  0.26679  0.02528  0.20548  1.0000
  Cd  Cd3       1.0  0.76680  0.47473  0.70548  1.0000
  Cd  Cd4       1.0  0.73318  0.97472  0.79451  1.0000
  H   H1        1.0  0.92931  0.40022  0.37467  1.0000
  H   H2        1.0  0.57068  0.90021  0.12534  1.0000
  H   H3        1.0  0.07069  0.59978  0.62533  1.0000
  H   H4        1.0  0.42932  0.09979  0.87467  1.0000
  H   H5        1.0  0.89095  0.57265  0.36472  1.0000
  H   H6        1.0  0.60905  0.07264  0.13526  1.0000
  H   H7        1.0  0.10905  0.42735  0.63528  1.0000
  H   H8        1.0  0.39094  0.92735  0.86473  1.0000
  H   H9        1.0  0.58702  0.54215  0.37497  1.0000
  H   H10       1.0  0.91298  0.04214  0.12504  1.0000
  H   H11       1.0  0.41299  0.45784  0.62503  1.0000
  H   H12       1.0  0.08702  0.95784  0.87495  1.0000
  H   H13       1.0  0.57027  0.55669  0.22593  1.0000
  H   H14       1.0  0.92973  0.05669  0.27407  1.0000
  H   H15       1.0  0.42974  0.44330  0.77407  1.0000
  H   H16       1.0  0.07025  0.94330  0.72592  1.0000
  H   H17       1.0  0.43350  0.12868  0.58014  1.0000
  H   H18       1.0  0.06648  0.62870  0.91984  1.0000
  H   H19       1.0  0.56644  0.87131  0.41986  1.0000
  H   H20       1.0  0.93355  0.37130  0.08016  1.0000
  H   H21       1.0  0.23699  0.15995  0.64199  1.0000
  H   H22       1.0  0.26302  0.65995  0.85802  1.0000
  H   H23       1.0  0.76298  0.84005  0.35802  1.0000
  H   H24       1.0  0.73702  0.34004  0.14199  1.0000
  C   C1        1.0  0.24098  0.97370  0.51670  1.0000
  C   C2        1.0  0.25903  0.47370  0.98330  1.0000
  C   C3        1.0  0.75900  0.02630  0.48330  1.0000
  C   C4        1.0  0.74100  0.52630  0.01670  1.0000
  C   C5        1.0  0.29708  0.13047  0.55475  1.0000
  C   C6        1.0  0.20291  0.63047  0.94525  1.0000
  C   C7        1.0  0.70287  0.86954  0.44525  1.0000
  C   C8        1.0  0.79712  0.36954  0.05476  1.0000
  C   C9        1.0  0.26921  0.26006  0.46125  1.0000
  C   C10       1.0  0.23080  0.76006  0.03876  1.0000
  C   C11       1.0  0.73077  0.73994  0.53875  1.0000
  C   C12       1.0  0.76924  0.23996  0.96126  1.0000
  N   N1        1.0  0.15753  0.88209  0.59372  1.0000
  N   N2        1.0  0.34248  0.38210  0.90627  1.0000
  N   N3        1.0  0.84246  0.11790  0.40627  1.0000
  N   N4        1.0  0.65754  0.61789  0.09373  1.0000
  N   N5        1.0  0.13619  0.74839  0.53348  1.0000
  N   N6        1.0  0.36382  0.24840  0.96651  1.0000
  N   N7        1.0  0.86381  0.25160  0.46651  1.0000
  N   N8        1.0  0.63620  0.75160  0.03350  1.0000
  N   N9        1.0  0.20331  0.75710  0.42350  1.0000
  N   N10       1.0  0.29671  0.25710  0.07649  1.0000
  N   N11       1.0  0.79669  0.24290  0.57649  1.0000
  N   N12       1.0  0.70331  0.74290  0.92352  1.0000
  N   N13       1.0  0.27016  0.89861  0.40951  1.0000
  N   N14       1.0  0.22986  0.39861  0.09048  1.0000
  N   N15       1.0  0.72983  0.10139  0.59048  1.0000
  N   N16       1.0  0.77016  0.60140  0.90951  1.0000
  O   O1        1.0  0.24684  0.23604  0.34485  1.0000
  O   O2        1.0  0.25317  0.73602  0.15515  1.0000
  O   O3        1.0  0.75313  0.76397  0.65515  1.0000
  O   O4        1.0  0.74687  0.26400  0.84486  1.0000
  O   O5        1.0  0.95085  0.49212  0.32016  1.0000
  O   O6        1.0  0.54915  0.99211  0.17984  1.0000
  O   O7        1.0  0.04916  0.50789  0.67985  1.0000
  O   O8        1.0  0.45085  0.00789  0.82016  1.0000
  O   O9        1.0  0.27219  0.39661  0.50589  1.0000
  O   O10       1.0  0.22782  0.89661  0.99411  1.0000
  O   O11       1.0  0.72781  0.60339  0.49411  1.0000
  O   O12       1.0  0.77220  0.10340  0.00591  1.0000
  O   O13       1.0  0.51877  0.50667  0.30039  1.0000
  O   O14       1.0  0.98123  0.00667  0.19962  1.0000
  O   O15       1.0  0.48124  0.49332  0.69961  1.0000
  O   O16       1.0  0.01877  0.99333  0.80038  1.0000
