data_image0
_chemical_formula_structural       Zn4H24C12N16O16
_chemical_formula_sum              "Zn4 H24 C12 N16 O16"
_cell_length_a       8.181
_cell_length_b       9.4441
_cell_length_c       9.57682
_cell_angle_alpha    89.554
_cell_angle_beta     64.6857
_cell_angle_gamma    88.9588

_space_group_name_H-M_alt    "P 1"
_space_group_IT_number       1

loop_
  _space_group_symop_operation_xyz
  'x, y, z'

loop_
  _atom_site_type_symbol
  _atom_site_label
  _atom_site_symmetry_multiplicity
  _atom_site_fract_x
  _atom_site_fract_y
  _atom_site_fract_z
  _atom_site_occupancy
  Zn  Zn1       1.0  0.90652  0.31693  0.76564  1.0000
  Zn  Zn2       1.0  0.67215  0.81695  0.23432  1.0000
  Zn  Zn3       1.0  0.18316  0.44615  0.20510  1.0000
  Zn  Zn4       1.0  0.38858  0.94628  0.79482  1.0000
  H   H1        1.0  0.61614  0.38271  0.69118  1.0000
  H   H2        1.0  0.30744  0.88265  0.30873  1.0000
  H   H3        1.0  0.53095  0.29041  0.84806  1.0000
  H   H4        1.0  0.37902  0.79032  0.15184  1.0000
  H   H5        1.0  0.47255  0.53307  0.26518  1.0000
  H   H6        1.0  0.73798  0.03302  0.73497  1.0000
  H   H7        1.0  0.52802  0.38991  0.16515  1.0000
  H   H8        1.0  0.69337  0.88985  0.83502  1.0000
  H   H9        1.0  0.81397  0.44203  0.32843  1.0000
  H   H10       1.0  0.14299  0.94210  0.67138  1.0000
  H   H11       1.0  0.87808  0.46513  0.14949  1.0000
  H   H12       1.0  0.02790  0.96533  0.85032  1.0000
  H   H13       1.0  0.96216  0.76340  0.58810  1.0000
  H   H14       1.0  0.55016  0.26351  0.41166  1.0000
  H   H15       1.0  0.76114  0.68266  0.61414  1.0000
  H   H16       1.0  0.37501  0.18253  0.38613  1.0000
  H   H17       1.0  0.86300  0.05182  0.39548  1.0000
  H   H18       1.0  0.25761  0.55232  0.60496  1.0000
  H   H19       1.0  0.90995  0.23050  0.42184  1.0000
  H   H20       1.0  0.33137  0.73086  0.57851  1.0000
  H   H21       1.0  0.20944  0.36583  0.80596  1.0000
  H   H22       1.0  0.01547  0.86588  0.19400  1.0000
  H   H23       1.0  0.26321  0.22328  0.70196  1.0000
  H   H24       1.0  0.96497  0.72330  0.29801  1.0000
  C   C1        1.0  0.84553  0.64167  0.79199  1.0000
  C   C2        1.0  0.63726  0.14163  0.20792  1.0000
  C   C3        1.0  0.88759  0.66416  0.62641  1.0000
  C   C4        1.0  0.51389  0.16418  0.37356  1.0000
  C   C5        1.0  0.99273  0.55034  0.51102  1.0000
  C   C6        1.0  0.50399  0.05047  0.48890  1.0000
  C   C7        1.0  0.11009  0.12486  0.22642  1.0000
  C   C8        1.0  0.33624  0.62506  0.77370  1.0000
  C   C9        1.0  0.96994  0.12469  0.38808  1.0000
  C   C10       1.0  0.35745  0.62499  0.61217  1.0000
  C   C11       1.0  0.03100  0.07042  0.50974  1.0000
  C   C12       1.0  0.54017  0.57059  0.49037  1.0000
  N   N1        1.0  0.87648  0.52599  0.86083  1.0000
  N   N2        1.0  0.73725  0.02601  0.13904  1.0000
  N   N3        1.0  0.82677  0.56169  0.00913  1.0000
  N   N4        1.0  0.83585  0.06174  0.99072  1.0000
  N   N5        1.0  0.76618  0.69345  0.02834  1.0000
  N   N6        1.0  0.79426  0.19346  0.97155  1.0000
  N   N7        1.0  0.77513  0.74613  0.89548  1.0000
  N   N8        1.0  0.67021  0.24607  0.10444  1.0000
  N   N9        1.0  0.14754  0.01581  0.12884  1.0000
  N   N10       1.0  0.27616  0.51592  0.87119  1.0000
  N   N11       1.0  0.27975  0.06036  0.99647  1.0000
  N   N12       1.0  0.27626  0.56029  0.00347  1.0000
  N   N13       1.0  0.32429  0.19092  0.00959  1.0000
  N   N14       1.0  0.33403  0.69083  0.99038  1.0000
  N   N15       1.0  0.21867  0.23396  0.15398  1.0000
  N   N16       1.0  0.37262  0.73403  0.84609  1.0000
  O   O1        1.0  0.16843  0.29713  0.74932  1.0000
  O   O2        1.0  0.91774  0.79716  0.25055  1.0000
  O   O3        1.0  0.06567  0.59459  0.37032  1.0000
  O   O4        1.0  0.43677  0.09481  0.62954  1.0000
  O   O5        1.0  0.63963  0.33986  0.77572  1.0000
  O   O6        1.0  0.41547  0.83990  0.22398  1.0000
  O   O7        1.0  0.00713  0.42360  0.54648  1.0000
  O   O8        1.0  0.55362  0.92366  0.45344  1.0000
  O   O9        1.0  0.15016  0.97331  0.47706  1.0000
  O   O10       1.0  0.62650  0.47334  0.52302  1.0000
  O   O11       1.0  0.42402  0.45542  0.22642  1.0000
  O   O12       1.0  0.65054  0.95547  0.77396  1.0000
  O   O13       1.0  0.94602  0.12100  0.64569  1.0000
  O   O14       1.0  0.59131  0.62114  0.35442  1.0000
  O   O15       1.0  0.91050  0.41419  0.22630  1.0000
  O   O16       1.0  0.13738  0.91454  0.77357  1.0000
