data_image0
_chemical_formula_structural       Cu8H40C12I8N8
_chemical_formula_sum              "Cu8 H40 C12 I8 N8"
_cell_length_a       7.30073
_cell_length_b       8.92664
_cell_length_c       15.2763
_cell_angle_alpha    91.2729
_cell_angle_beta     89.9752
_cell_angle_gamma    114.131

_space_group_name_H-M_alt    "P 1"
_space_group_IT_number       1

loop_
  _space_group_symop_operation_xyz
  'x, y, z'

loop_
  _atom_site_type_symbol
  _atom_site_label
  _atom_site_symmetry_multiplicity
  _atom_site_fract_x
  _atom_site_fract_y
  _atom_site_fract_z
  _atom_site_occupancy
  Cu  Cu1       1.0  0.53516  0.93340  0.17377  1.0000
  Cu  Cu2       1.0  0.60142  0.06672  0.32606  1.0000
  Cu  Cu3       1.0  0.46483  0.06660  0.82623  1.0000
  Cu  Cu4       1.0  0.39859  0.93328  0.67394  1.0000
  Cu  Cu5       1.0  0.89493  0.14296  0.22269  1.0000
  Cu  Cu6       1.0  0.75123  0.85708  0.27744  1.0000
  Cu  Cu7       1.0  0.10507  0.85704  0.77731  1.0000
  Cu  Cu8       1.0  0.24878  0.14293  0.72257  1.0000
  H   H1        1.0  0.23321  0.89161  0.07700  1.0000
  H   H2        1.0  0.34113  0.10845  0.42283  1.0000
  H   H3        1.0  0.76680  0.10840  0.92299  1.0000
  H   H4        1.0  0.65887  0.89153  0.57718  1.0000
  H   H5        1.0  0.38959  0.84368  0.01746  1.0000
  H   H6        1.0  0.54535  0.15646  0.48237  1.0000
  H   H7        1.0  0.61042  0.15632  0.98254  1.0000
  H   H8        1.0  0.45466  0.84354  0.51763  1.0000
  H   H9        1.0  0.15040  0.43953  0.22442  1.0000
  H   H10       1.0  0.71067  0.56070  0.27564  1.0000
  H   H11       1.0  0.84959  0.56047  0.77557  1.0000
  H   H12       1.0  0.28932  0.43930  0.72436  1.0000
  H   H13       1.0  0.27161  0.32101  0.21744  1.0000
  H   H14       1.0  0.95040  0.67929  0.28269  1.0000
  H   H15       1.0  0.72838  0.67899  0.78256  1.0000
  H   H16       1.0  0.04960  0.32070  0.71731  1.0000
  H   H17       1.0  0.06749  0.61192  0.04086  1.0000
  H   H18       1.0  0.45461  0.38821  0.45876  1.0000
  H   H19       1.0  0.93252  0.38808  0.95913  1.0000
  H   H20       1.0  0.54539  0.61179  0.54125  1.0000
  H   H21       1.0  0.12860  0.63779  0.15334  1.0000
  H   H22       1.0  0.49082  0.36228  0.34636  1.0000
  H   H23       1.0  0.87139  0.36221  0.84665  1.0000
  H   H24       1.0  0.50917  0.63771  0.65365  1.0000
  H   H25       1.0  0.44833  0.59391  0.11547  1.0000
  H   H26       1.0  0.85410  0.40636  0.38461  1.0000
  H   H27       1.0  0.55167  0.40609  0.88453  1.0000
  H   H28       1.0  0.14589  0.59364  0.61539  1.0000
  H   H29       1.0  0.35821  0.55028  0.00624  1.0000
  H   H30       1.0  0.80677  0.44969  0.49382  1.0000
  H   H31       1.0  0.64180  0.44972  0.99376  1.0000
  H   H32       1.0  0.19324  0.55031  0.50617  1.0000
  H   H33       1.0  0.03440  0.32506  0.06584  1.0000
  H   H34       1.0  0.70853  0.67502  0.43420  1.0000
  H   H35       1.0  0.96560  0.67493  0.93416  1.0000
  H   H36       1.0  0.29146  0.32499  0.56581  1.0000
  H   H37       1.0  0.25111  0.28571  0.07209  1.0000
  H   H38       1.0  0.96463  0.71449  0.42808  1.0000
  H   H39       1.0  0.74889  0.71430  0.92791  1.0000
  H   H40       1.0  0.03536  0.28551  0.57192  1.0000
  C   C1        1.0  0.19413  0.65178  0.08757  1.0000
  C   C2        1.0  0.54180  0.34832  0.41222  1.0000
  C   C3        1.0  0.80587  0.34822  0.91242  1.0000
  C   C4        1.0  0.45820  0.65168  0.58778  1.0000
  C   C5        1.0  0.31044  0.54499  0.07500  1.0000
  C   C6        1.0  0.76474  0.45509  0.42503  1.0000
  C   C7        1.0  0.68956  0.45500  0.92500  1.0000
  C   C8        1.0  0.23524  0.54490  0.57496  1.0000
  C   C9        1.0  0.18302  0.36698  0.09726  1.0000
  C   C10       1.0  0.81543  0.63315  0.40283  1.0000
  C   C11       1.0  0.81697  0.63302  0.90274  1.0000
  C   C12       1.0  0.18456  0.36685  0.59717  1.0000
  I   I1        1.0  0.86230  0.89735  0.10895  1.0000
  I   I2        1.0  0.96449  0.10275  0.39114  1.0000
  I   I3        1.0  0.13769  0.10264  0.89105  1.0000
  I   I4        1.0  0.03552  0.89725  0.60886  1.0000
  I   I5        1.0  0.60947  0.25330  0.17731  1.0000
  I   I6        1.0  0.35586  0.74663  0.32286  1.0000
  I   I7        1.0  0.39053  0.74669  0.82270  1.0000
  I   I8        1.0  0.64414  0.25337  0.67714  1.0000
  N   N1        1.0  0.32362  0.82840  0.07794  1.0000
  N   N2        1.0  0.49472  0.17175  0.42192  1.0000
  N   N3        1.0  0.67641  0.17160  0.92205  1.0000
  N   N4        1.0  0.50531  0.82826  0.57809  1.0000
  N   N5        1.0  0.15119  0.33772  0.19221  1.0000
  N   N6        1.0  0.81317  0.66253  0.30786  1.0000
  N   N7        1.0  0.84880  0.66229  0.80779  1.0000
  N   N8        1.0  0.18682  0.33747  0.69213  1.0000
