data_image0
_chemical_formula_structural       Cd4H24C12N16O16
_chemical_formula_sum              "Cd4 H24 C12 N16 O16"
_cell_length_a       7.65166
_cell_length_b       7.65163
_cell_length_c       13.9638
_cell_angle_alpha    75.4477
_cell_angle_beta     75.4478
_cell_angle_gamma    64.5006

_space_group_name_H-M_alt    "P 1"
_space_group_IT_number       1

loop_
  _space_group_symop_operation_xyz
  'x, y, z'

loop_
  _atom_site_type_symbol
  _atom_site_label
  _atom_site_symmetry_multiplicity
  _atom_site_fract_x
  _atom_site_fract_y
  _atom_site_fract_z
  _atom_site_occupancy
  Cd  Cd1       1.0  0.94791  0.58021  0.27469  1.0000
  Cd  Cd2       1.0  0.41980  0.05209  0.22530  1.0000
  Cd  Cd3       1.0  0.05209  0.41980  0.72530  1.0000
  Cd  Cd4       1.0  0.58021  0.94791  0.77470  1.0000
  H   H1        1.0  0.98972  0.20768  0.38597  1.0000
  H   H2        1.0  0.79232  0.01028  0.11403  1.0000
  H   H3        1.0  0.01028  0.79232  0.61403  1.0000
  H   H4        1.0  0.20769  0.98972  0.88597  1.0000
  H   H5        1.0  0.97754  0.31889  0.46784  1.0000
  H   H6        1.0  0.68111  0.02247  0.03215  1.0000
  H   H7        1.0  0.02247  0.68111  0.53215  1.0000
  H   H8        1.0  0.31890  0.97753  0.96785  1.0000
  H   H9        1.0  0.16082  0.80583  0.14273  1.0000
  H   H10       1.0  0.19417  0.83918  0.35727  1.0000
  H   H11       1.0  0.83918  0.19417  0.85727  1.0000
  H   H12       1.0  0.80583  0.16082  0.64273  1.0000
  H   H13       1.0  0.04951  0.75788  0.07581  1.0000
  H   H14       1.0  0.24212  0.95049  0.42419  1.0000
  H   H15       1.0  0.95049  0.24212  0.92419  1.0000
  H   H16       1.0  0.75788  0.04951  0.57581  1.0000
  H   H17       1.0  0.59805  0.42418  0.34861  1.0000
  H   H18       1.0  0.57583  0.40194  0.15139  1.0000
  H   H19       1.0  0.40194  0.57583  0.65139  1.0000
  H   H20       1.0  0.42417  0.59805  0.84861  1.0000
  H   H21       1.0  0.45813  0.38590  0.46551  1.0000
  H   H22       1.0  0.61410  0.54186  0.03449  1.0000
  H   H23       1.0  0.54186  0.61410  0.53449  1.0000
  H   H24       1.0  0.38589  0.45814  0.96551  1.0000
  C   C1        1.0  0.61137  0.13307  0.39633  1.0000
  C   C2        1.0  0.86693  0.38862  0.10367  1.0000
  C   C3        1.0  0.38863  0.86692  0.60367  1.0000
  C   C4        1.0  0.13307  0.61137  0.89633  1.0000
  C   C5        1.0  0.49985  0.34893  0.38979  1.0000
  C   C6        1.0  0.65107  0.50014  0.11021  1.0000
  C   C7        1.0  0.50015  0.65107  0.61021  1.0000
  C   C8        1.0  0.34892  0.49985  0.88979  1.0000
  C   C9        1.0  0.31753  0.44372  0.34092  1.0000
  C   C10       1.0  0.55628  0.68247  0.15909  1.0000
  C   C11       1.0  0.68247  0.55628  0.65909  1.0000
  C   C12       1.0  0.44372  0.31752  0.84092  1.0000
  N   N1        1.0  0.63652  0.01772  0.33126  1.0000
  N   N2        1.0  0.98228  0.36349  0.16874  1.0000
  N   N3        1.0  0.36348  0.98228  0.66874  1.0000
  N   N4        1.0  0.01772  0.63652  0.83125  1.0000
  N   N5        1.0  0.75585  0.83612  0.36892  1.0000
  N   N6        1.0  0.16388  0.24415  0.13108  1.0000
  N   N7        1.0  0.24415  0.16388  0.63108  1.0000
  N   N8        1.0  0.83612  0.75585  0.86892  1.0000
  N   N9        1.0  0.80107  0.84048  0.45266  1.0000
  N   N10       1.0  0.15952  0.19893  0.04734  1.0000
  N   N11       1.0  0.19893  0.15952  0.54734  1.0000
  N   N12       1.0  0.84048  0.80107  0.95266  1.0000
  N   N13       1.0  0.71191  0.02463  0.47178  1.0000
  N   N14       1.0  0.97537  0.28808  0.02822  1.0000
  N   N15       1.0  0.28809  0.97537  0.52822  1.0000
  N   N16       1.0  0.02463  0.71192  0.97178  1.0000
  O   O1        1.0  0.19220  0.60869  0.36170  1.0000
  O   O2        1.0  0.39131  0.80778  0.13831  1.0000
  O   O3        1.0  0.80778  0.39131  0.63831  1.0000
  O   O4        1.0  0.60868  0.19221  0.86170  1.0000
  O   O5        1.0  0.91452  0.33456  0.41070  1.0000
  O   O6        1.0  0.66544  0.08549  0.08930  1.0000
  O   O7        1.0  0.08549  0.66545  0.58930  1.0000
  O   O8        1.0  0.33456  0.91451  0.91070  1.0000
  O   O9        1.0  0.29259  0.36103  0.27917  1.0000
  O   O10       1.0  0.63898  0.70741  0.22083  1.0000
  O   O11       1.0  0.70741  0.63898  0.72083  1.0000
  O   O12       1.0  0.36102  0.29259  0.77917  1.0000
  O   O13       1.0  0.03300  0.80195  0.14187  1.0000
  O   O14       1.0  0.19806  0.96700  0.35813  1.0000
  O   O15       1.0  0.96700  0.19805  0.85812  1.0000
  O   O16       1.0  0.80195  0.03300  0.64187  1.0000
