data_image0
_chemical_formula_structural       Cd4H24C32N20Cl4O8
_chemical_formula_sum              "Cd4 H24 C32 N20 Cl4 O8"
_cell_length_a       7.14891
_cell_length_b       8.99049
_cell_length_c       17.2873
_cell_angle_alpha    90.0002
_cell_angle_beta     90.0007
_cell_angle_gamma    102.101

_space_group_name_H-M_alt    "P 1"
_space_group_IT_number       1

loop_
  _space_group_symop_operation_xyz
  'x, y, z'

loop_
  _atom_site_type_symbol
  _atom_site_label
  _atom_site_symmetry_multiplicity
  _atom_site_fract_x
  _atom_site_fract_y
  _atom_site_fract_z
  _atom_site_occupancy
  Cd  Cd1       1.0  0.20521  0.71937  0.68289  1.0000
  Cd  Cd2       1.0  0.29479  0.28063  0.18289  1.0000
  Cd  Cd3       1.0  0.79480  0.28063  0.31711  1.0000
  Cd  Cd4       1.0  0.70521  0.71937  0.81711  1.0000
  H   H1        1.0  0.72417  0.91282  0.56808  1.0000
  H   H2        1.0  0.77583  0.08719  0.06808  1.0000
  H   H3        1.0  0.27584  0.08718  0.43192  1.0000
  H   H4        1.0  0.22417  0.91282  0.93192  1.0000
  H   H5        1.0  0.88456  0.69430  0.36270  1.0000
  H   H6        1.0  0.61544  0.30570  0.86270  1.0000
  H   H7        1.0  0.11544  0.30570  0.63729  1.0000
  H   H8        1.0  0.38455  0.69430  0.13730  1.0000
  H   H9        1.0  0.80420  0.68288  0.50474  1.0000
  H   H10       1.0  0.69580  0.31712  0.00474  1.0000
  H   H11       1.0  0.19580  0.31712  0.49526  1.0000
  H   H12       1.0  0.30420  0.68288  0.99526  1.0000
  H   H13       1.0  0.52224  0.50077  0.62364  1.0000
  H   H14       1.0  0.97776  0.49923  0.12364  1.0000
  H   H15       1.0  0.47776  0.49923  0.37636  1.0000
  H   H16       1.0  0.02224  0.50077  0.87636  1.0000
  H   H17       1.0  0.52023  0.33053  0.67643  1.0000
  H   H18       1.0  0.97977  0.66947  0.17643  1.0000
  H   H19       1.0  0.47978  0.66947  0.32357  1.0000
  H   H20       1.0  0.02023  0.33053  0.82357  1.0000
  H   H21       1.0  0.89188  0.93989  0.29132  1.0000
  H   H22       1.0  0.60812  0.06011  0.79132  1.0000
  H   H23       1.0  0.10812  0.06010  0.70867  1.0000
  H   H24       1.0  0.39187  0.93989  0.20868  1.0000
  C   C1        1.0  0.78715  0.50103  0.68217  1.0000
  C   C2        1.0  0.71284  0.49897  0.18216  1.0000
  C   C3        1.0  0.21286  0.49897  0.31783  1.0000
  C   C4        1.0  0.28716  0.50103  0.81784  1.0000
  C   C5        1.0  0.72254  0.18152  0.49541  1.0000
  C   C6        1.0  0.77747  0.81848  0.99541  1.0000
  C   C7        1.0  0.27747  0.81847  0.50459  1.0000
  C   C8        1.0  0.22253  0.18152  0.00459  1.0000
  C   C9        1.0  0.76686  0.04357  0.46228  1.0000
  C   C10       1.0  0.73314  0.95643  0.96228  1.0000
  C   C11       1.0  0.23315  0.95643  0.53772  1.0000
  C   C12       1.0  0.26685  0.04357  0.03772  1.0000
  C   C13       1.0  0.76181  0.91346  0.50695  1.0000
  C   C14       1.0  0.73819  0.08654  0.00695  1.0000
  C   C15       1.0  0.23819  0.08654  0.49305  1.0000
  C   C16       1.0  0.26180  0.91346  0.99305  1.0000
  C   C17       1.0  0.85195  0.79231  0.39284  1.0000
  C   C18       1.0  0.64806  0.20769  0.89284  1.0000
  C   C19       1.0  0.14805  0.20769  0.60715  1.0000
  C   C20       1.0  0.35194  0.79231  0.10716  1.0000
  C   C21       1.0  0.80601  0.78609  0.47144  1.0000
  C   C22       1.0  0.69399  0.21391  0.97144  1.0000
  C   C23       1.0  0.19399  0.21391  0.52856  1.0000
  C   C24       1.0  0.30601  0.78609  0.02856  1.0000
  C   C25       1.0  0.60665  0.41648  0.63927  1.0000
  C   C26       1.0  0.89335  0.58351  0.13927  1.0000
  C   C27       1.0  0.39335  0.58352  0.36073  1.0000
  C   C28       1.0  0.10666  0.41649  0.86074  1.0000
  C   C29       1.0  0.85495  0.92737  0.35261  1.0000
  C   C30       1.0  0.64505  0.07263  0.85261  1.0000
  C   C31       1.0  0.14505  0.07263  0.64739  1.0000
  C   C32       1.0  0.35494  0.92737  0.14739  1.0000
  N   N1        1.0  0.68093  0.20136  0.56969  1.0000
  N   N2        1.0  0.81907  0.79864  0.06969  1.0000
  N   N3        1.0  0.31907  0.79864  0.43031  1.0000
  N   N4        1.0  0.18093  0.20136  0.93031  1.0000
  N   N5        1.0  0.71753  0.30787  0.45301  1.0000
  N   N6        1.0  0.78247  0.69213  0.95301  1.0000
  N   N7        1.0  0.28247  0.69212  0.54699  1.0000
  N   N8        1.0  0.21753  0.30787  0.04699  1.0000
  N   N9        1.0  0.67160  0.40935  0.50019  1.0000
  N   N10       1.0  0.82840  0.59065  0.00019  1.0000
  N   N11       1.0  0.32840  0.59065  0.49981  1.0000
  N   N12       1.0  0.17160  0.40935  0.99981  1.0000
  N   N13       1.0  0.64984  0.34201  0.56922  1.0000
  N   N14       1.0  0.85016  0.65798  0.06922  1.0000
  N   N15       1.0  0.35016  0.65798  0.43078  1.0000
  N   N16       1.0  0.14984  0.34202  0.93078  1.0000
  N   N17       1.0  0.81383  0.05083  0.38655  1.0000
  N   N18       1.0  0.68617  0.94916  0.88655  1.0000
  N   N19       1.0  0.18617  0.94917  0.61345  1.0000
  N   N20       1.0  0.31382  0.05083  0.11345  1.0000
  Cl  Cl1       1.0  0.07906  0.83022  0.80455  1.0000
  Cl  Cl2       1.0  0.42094  0.16978  0.30456  1.0000
  Cl  Cl3       1.0  0.92094  0.16978  0.19544  1.0000
  Cl  Cl4       1.0  0.57906  0.83022  0.69544  1.0000
  O   O1        1.0  0.92776  0.56057  0.64006  1.0000
  O   O2        1.0  0.57224  0.43943  0.14007  1.0000
  O   O3        1.0  0.07224  0.43942  0.35994  1.0000
  O   O4        1.0  0.42776  0.56057  0.85994  1.0000
  O   O5        1.0  0.77242  0.50539  0.75500  1.0000
  O   O6        1.0  0.72759  0.49461  0.25501  1.0000
  O   O7        1.0  0.22758  0.49461  0.24500  1.0000
  O   O8        1.0  0.27242  0.50540  0.74499  1.0000
