data_image0
_chemical_formula_structural       Zn8Ge16H40C12N8O40
_chemical_formula_sum              "Zn8 Ge16 H40 C12 N8 O40"
_cell_length_a       9.83906
_cell_length_b       10.181
_cell_length_c       13.4847
_cell_angle_alpha    90
_cell_angle_beta     96.9727
_cell_angle_gamma    90

_space_group_name_H-M_alt    "P 1"
_space_group_IT_number       1

loop_
  _space_group_symop_operation_xyz
  'x, y, z'

loop_
  _atom_site_type_symbol
  _atom_site_label
  _atom_site_symmetry_multiplicity
  _atom_site_fract_x
  _atom_site_fract_y
  _atom_site_fract_z
  _atom_site_occupancy
  Zn  Zn1       1.0  0.05651  0.39960  0.76907  1.0000
  Zn  Zn2       1.0  0.44349  0.89960  0.23093  1.0000
  Zn  Zn3       1.0  0.94349  0.60040  0.23093  1.0000
  Zn  Zn4       1.0  0.55651  0.10040  0.76907  1.0000
  Zn  Zn5       1.0  0.86006  0.15023  0.73710  1.0000
  Zn  Zn6       1.0  0.63994  0.65023  0.26290  1.0000
  Zn  Zn7       1.0  0.13994  0.84977  0.26290  1.0000
  Zn  Zn8       1.0  0.36006  0.34977  0.73710  1.0000
  Ge  Ge1       1.0  0.81884  0.39248  0.56543  1.0000
  Ge  Ge2       1.0  0.68116  0.89248  0.43457  1.0000
  Ge  Ge3       1.0  0.18116  0.60752  0.43457  1.0000
  Ge  Ge4       1.0  0.31884  0.10752  0.56543  1.0000
  Ge  Ge5       1.0  0.11804  0.34141  0.52917  1.0000
  Ge  Ge6       1.0  0.38196  0.84141  0.47083  1.0000
  Ge  Ge7       1.0  0.88196  0.65859  0.47083  1.0000
  Ge  Ge8       1.0  0.61804  0.15859  0.52917  1.0000
  Ge  Ge9       1.0  0.28979  0.42416  0.97298  1.0000
  Ge  Ge10      1.0  0.21021  0.92417  0.02702  1.0000
  Ge  Ge11      1.0  0.71021  0.57583  0.02702  1.0000
  Ge  Ge12      1.0  0.78979  0.07583  0.97298  1.0000
  Ge  Ge13      1.0  0.08386  0.19505  0.95535  1.0000
  Ge  Ge14      1.0  0.41614  0.69505  0.04465  1.0000
  Ge  Ge15      1.0  0.91614  0.80495  0.04465  1.0000
  Ge  Ge16      1.0  0.58386  0.30495  0.95535  1.0000
  H   H1        1.0  0.88448  0.57630  0.74595  1.0000
  H   H2        1.0  0.61551  0.07631  0.25405  1.0000
  H   H3        1.0  0.11551  0.42370  0.25405  1.0000
  H   H4        1.0  0.38449  0.92370  0.74595  1.0000
  H   H5        1.0  0.94112  0.59092  0.86453  1.0000
  H   H6        1.0  0.55888  0.09092  0.13547  1.0000
  H   H7        1.0  0.05888  0.40908  0.13547  1.0000
  H   H8        1.0  0.44112  0.90908  0.86453  1.0000
  H   H9        1.0  0.91114  0.98185  0.59994  1.0000
  H   H10       1.0  0.58886  0.48185  0.40005  1.0000
  H   H11       1.0  0.08886  0.01815  0.40005  1.0000
  H   H12       1.0  0.41114  0.51815  0.59994  1.0000
  H   H13       1.0  0.03553  0.08762  0.61956  1.0000
  H   H14       1.0  0.46447  0.58762  0.38044  1.0000
  H   H15       1.0  0.96447  0.91238  0.38044  1.0000
  H   H16       1.0  0.53553  0.41238  0.61956  1.0000
  H   H17       1.0  0.11205  0.66322  0.70763  1.0000
  H   H18       1.0  0.38794  0.16322  0.29237  1.0000
  H   H19       1.0  0.88794  0.33679  0.29237  1.0000
  H   H20       1.0  0.61205  0.83678  0.70763  1.0000
  H   H21       1.0  0.13369  0.70947  0.83557  1.0000
  H   H22       1.0  0.36631  0.20947  0.16443  1.0000
  H   H23       1.0  0.86631  0.29054  0.16443  1.0000
  H   H24       1.0  0.63369  0.79053  0.83557  1.0000
  H   H25       1.0  0.89375  0.78845  0.67960  1.0000
  H   H26       1.0  0.60625  0.28845  0.32040  1.0000
  H   H27       1.0  0.10625  0.21155  0.32040  1.0000
  H   H28       1.0  0.39375  0.71155  0.67960  1.0000
  H   H29       1.0  0.91618  0.84432  0.80498  1.0000
  H   H30       1.0  0.58382  0.34432  0.19502  1.0000
  H   H31       1.0  0.08382  0.15568  0.19502  1.0000
  H   H32       1.0  0.41618  0.65568  0.80498  1.0000
  H   H33       1.0  0.13145  0.88596  0.66201  1.0000
  H   H34       1.0  0.36855  0.38596  0.33799  1.0000
  H   H35       1.0  0.86855  0.11404  0.33799  1.0000
  H   H36       1.0  0.63145  0.61404  0.66201  1.0000
  H   H37       1.0  0.11902  0.97141  0.77597  1.0000
  H   H38       1.0  0.38097  0.47141  0.22403  1.0000
  H   H39       1.0  0.88098  0.02859  0.22403  1.0000
  H   H40       1.0  0.61902  0.52859  0.77597  1.0000
  C   C1        1.0  0.05733  0.69150  0.77072  1.0000
  C   C2        1.0  0.44267  0.19150  0.22928  1.0000
  C   C3        1.0  0.94267  0.30850  0.22928  1.0000
  C   C4        1.0  0.55733  0.80850  0.77072  1.0000
  C   C5        1.0  0.97126  0.81341  0.74282  1.0000
  C   C6        1.0  0.52873  0.31341  0.25718  1.0000
  C   C7        1.0  0.02874  0.18659  0.25718  1.0000
  C   C8        1.0  0.47126  0.68659  0.74282  1.0000
  C   C9        1.0  0.05936  0.92501  0.71104  1.0000
  C   C10       1.0  0.44063  0.42501  0.28896  1.0000
  C   C11       1.0  0.94064  0.07499  0.28896  1.0000
  C   C12       1.0  0.55936  0.57499  0.71104  1.0000
  N   N1        1.0  0.97264  0.57789  0.79505  1.0000
  N   N2        1.0  0.52736  0.07790  0.20495  1.0000
  N   N3        1.0  0.02736  0.42211  0.20495  1.0000
  N   N4        1.0  0.47264  0.92211  0.79505  1.0000
  N   N5        1.0  0.97333  0.02819  0.65596  1.0000
  N   N6        1.0  0.52667  0.52819  0.34404  1.0000
  N   N7        1.0  0.02667  0.97181  0.34404  1.0000
  N   N8        1.0  0.47333  0.47181  0.65596  1.0000
  O   O1        1.0  0.86279  0.33986  0.68668  1.0000
  O   O2        1.0  0.63721  0.83986  0.31332  1.0000
  O   O3        1.0  0.13721  0.66014  0.31332  1.0000
  O   O4        1.0  0.36279  0.16014  0.68668  1.0000
  O   O5        1.0  0.65794  0.32853  0.50996  1.0000
  O   O6        1.0  0.84206  0.82853  0.49004  1.0000
  O   O7        1.0  0.34206  0.67147  0.49004  1.0000
  O   O8        1.0  0.15794  0.17147  0.50996  1.0000
  O   O9        1.0  0.79640  0.56692  0.55825  1.0000
  O   O10       1.0  0.70360  0.06692  0.44175  1.0000
  O   O11       1.0  0.20360  0.43308  0.44175  1.0000
  O   O12       1.0  0.29640  0.93308  0.55825  1.0000
  O   O13       1.0  0.94081  0.34832  0.48328  1.0000
  O   O14       1.0  0.55919  0.84832  0.51672  1.0000
  O   O15       1.0  0.05919  0.65168  0.51672  1.0000
  O   O16       1.0  0.44082  0.15168  0.48328  1.0000
  O   O17       1.0  0.16547  0.39091  0.65124  1.0000
  O   O18       1.0  0.33453  0.89091  0.34876  1.0000
  O   O19       1.0  0.83453  0.60909  0.34876  1.0000
  O   O20       1.0  0.66547  0.10909  0.65124  1.0000
  O   O21       1.0  0.25907  0.42706  0.84337  1.0000
  O   O22       1.0  0.24094  0.92706  0.15663  1.0000
  O   O23       1.0  0.74094  0.57294  0.15663  1.0000
  O   O24       1.0  0.75906  0.07294  0.84337  1.0000
  O   O25       1.0  0.27953  0.57870  0.03218  1.0000
  O   O26       1.0  0.22047  0.07870  0.96782  1.0000
  O   O27       1.0  0.72047  0.42130  0.96782  1.0000
  O   O28       1.0  0.77953  0.92130  0.03218  1.0000
  O   O29       1.0  0.45057  0.35650  0.02454  1.0000
  O   O30       1.0  0.04943  0.85650  0.97546  1.0000
  O   O31       1.0  0.54943  0.64349  0.97546  1.0000
  O   O32       1.0  0.95057  0.14349  0.02454  1.0000
  O   O33       1.0  0.15396  0.33704  0.02169  1.0000
  O   O34       1.0  0.34604  0.83703  0.97831  1.0000
  O   O35       1.0  0.84604  0.66296  0.97831  1.0000
  O   O36       1.0  0.65396  0.16296  0.02169  1.0000
  O   O37       1.0  0.02768  0.22560  0.83081  1.0000
  O   O38       1.0  0.47233  0.72560  0.16919  1.0000
  O   O39       1.0  0.97233  0.77440  0.16919  1.0000
  O   O40       1.0  0.52768  0.27440  0.83081  1.0000
