data_image0
_chemical_formula_structural       ZnH12C18N6O4
_chemical_formula_sum              "Zn1 H12 C18 N6 O4"
_cell_length_a       7.47878
_cell_length_b       7.6918
_cell_length_c       8.6615
_cell_angle_alpha    91.8109
_cell_angle_beta     90.0109
_cell_angle_gamma    119.106

_space_group_name_H-M_alt    "P 1"
_space_group_IT_number       1

loop_
  _space_group_symop_operation_xyz
  'x, y, z'

loop_
  _atom_site_type_symbol
  _atom_site_label
  _atom_site_symmetry_multiplicity
  _atom_site_fract_x
  _atom_site_fract_y
  _atom_site_fract_z
  _atom_site_occupancy
  Zn  Zn1       1.0  0.42613  0.00027  0.49988  1.0000
  H   H1        1.0  0.60046  0.28679  0.93579  1.0000
  H   H2        1.0  0.31276  0.71277  0.06463  1.0000
  H   H3        1.0  0.84411  0.33995  0.72116  1.0000
  H   H4        1.0  0.50380  0.65988  0.27901  1.0000
  H   H5        1.0  0.23763  0.25516  0.04086  1.0000
  H   H6        1.0  0.98152  0.74492  0.95888  1.0000
  H   H7        1.0  0.98885  0.19650  0.25014  1.0000
  H   H8        1.0  0.79108  0.80340  0.74978  1.0000
  H   H9        1.0  0.17174  0.50716  0.58586  1.0000
  H   H10       1.0  0.66491  0.49250  0.41384  1.0000
  H   H11       1.0  0.24542  0.06215  0.80987  1.0000
  H   H12       1.0  0.18281  0.93869  0.18989  1.0000
  C   C1        1.0  0.61353  0.17497  0.22241  1.0000
  C   C2        1.0  0.43719  0.82475  0.77801  1.0000
  C   C3        1.0  0.77698  0.23303  0.10383  1.0000
  C   C4        1.0  0.54269  0.76657  0.89632  1.0000
  C   C5        1.0  0.74079  0.28083  0.95650  1.0000
  C   C6        1.0  0.45898  0.71865  0.04370  1.0000
  C   C7        1.0  0.87589  0.31045  0.83733  1.0000
  C   C8        1.0  0.56479  0.68925  0.16277  1.0000
  C   C9        1.0  0.04931  0.29271  0.86831  1.0000
  C   C10       1.0  0.75597  0.70720  0.13161  1.0000
  C   C11       1.0  0.09628  0.25887  0.01684  1.0000
  C   C12       1.0  0.83640  0.74096  0.98299  1.0000
  C   C13       1.0  0.95827  0.22783  0.13432  1.0000
  C   C14       1.0  0.72920  0.77186  0.86560  1.0000
  C   C15       1.0  0.22226  0.39980  0.61011  1.0000
  C   C16       1.0  0.82268  0.60023  0.38959  1.0000
  C   C17       1.0  0.26074  0.17507  0.73037  1.0000
  C   C18       1.0  0.08545  0.82573  0.26945  1.0000
  N   N1        1.0  0.35434  0.20480  0.59649  1.0000
  N   N2        1.0  0.14970  0.79603  0.40320  1.0000
  N   N3        1.0  0.33188  0.34846  0.51974  1.0000
  N   N4        1.0  0.98385  0.65186  0.47987  1.0000
  N   N5        1.0  0.17545  0.29553  0.74410  1.0000
  N   N6        1.0  0.87970  0.70477  0.25572  1.0000
  O   O1        1.0  0.64680  0.10955  0.34979  1.0000
  O   O2        1.0  0.53585  0.89038  0.65068  1.0000
  O   O3        1.0  0.45613  0.18750  0.19289  1.0000
  O   O4        1.0  0.26734  0.81220  0.80786  1.0000
