data_image0
_chemical_formula_structural       Mn2H48C44N10O8
_chemical_formula_sum              "Mn2 H48 C44 N10 O8"
_cell_length_a       9.94243
_cell_length_b       10.4453
_cell_length_c       10.9332
_cell_angle_alpha    96.8
_cell_angle_beta     103.43
_cell_angle_gamma    99.4111

_space_group_name_H-M_alt    "P 1"
_space_group_IT_number       1

loop_
  _space_group_symop_operation_xyz
  'x, y, z'

loop_
  _atom_site_type_symbol
  _atom_site_label
  _atom_site_symmetry_multiplicity
  _atom_site_fract_x
  _atom_site_fract_y
  _atom_site_fract_z
  _atom_site_occupancy
  Mn  Mn1       1.0  0.50005  0.99999  0.50007  1.0000
  Mn  Mn2       1.0  0.49999  0.99999  0.00001  1.0000
  H   H1        1.0  0.51877  0.29805  0.36638  1.0000
  H   H2        1.0  0.48123  0.70194  0.63362  1.0000
  H   H3        1.0  0.58294  0.43930  0.30145  1.0000
  H   H4        1.0  0.41706  0.56070  0.69855  1.0000
  H   H5        1.0  0.65801  0.18146  0.26809  1.0000
  H   H6        1.0  0.34199  0.81855  0.73191  1.0000
  H   H7        1.0  0.29039  0.05700  0.67161  1.0000
  H   H8        1.0  0.70960  0.94300  0.32840  1.0000
  H   H9        1.0  0.07461  0.94797  0.74546  1.0000
  H   H10       1.0  0.92539  0.05203  0.25454  1.0000
  H   H11       1.0  0.14798  0.31181  0.10546  1.0000
  H   H12       1.0  0.85202  0.68818  0.89454  1.0000
  H   H13       1.0  0.25610  0.32974  0.70853  1.0000
  H   H14       1.0  0.74390  0.67026  0.29147  1.0000
  H   H15       1.0  0.35615  0.24990  0.82384  1.0000
  H   H16       1.0  0.64386  0.75011  0.17616  1.0000
  H   H17       1.0  0.90332  0.22852  0.46977  1.0000
  H   H18       1.0  0.09668  0.77148  0.53023  1.0000
  H   H19       1.0  0.70589  0.48184  0.77621  1.0000
  H   H20       1.0  0.29411  0.51816  0.22380  1.0000
  H   H21       1.0  0.17310  0.04137  0.44866  1.0000
  H   H22       1.0  0.82690  0.95863  0.55134  1.0000
  H   H23       1.0  0.08784  0.12744  0.54689  1.0000
  H   H24       1.0  0.91217  0.87256  0.45311  1.0000
  H   H25       1.0  0.28815  0.25354  0.39703  1.0000
  H   H26       1.0  0.71186  0.74646  0.60297  1.0000
  H   H27       1.0  0.20403  0.34427  0.49428  1.0000
  H   H28       1.0  0.79597  0.65574  0.50572  1.0000
  H   H29       1.0  0.10322  0.23600  0.35492  1.0000
  H   H30       1.0  0.89679  0.76400  0.64508  1.0000
  H   H31       1.0  0.95106  0.56182  0.76178  1.0000
  H   H32       1.0  0.04894  0.43818  0.23822  1.0000
  H   H33       1.0  0.04717  0.43680  0.60370  1.0000
  H   H34       1.0  0.95283  0.56320  0.39630  1.0000
  H   H35       1.0  0.87790  0.05925  0.76787  1.0000
  H   H36       1.0  0.12210  0.94075  0.23213  1.0000
  H   H37       1.0  0.80732  0.38124  0.24132  1.0000
  H   H38       1.0  0.19268  0.61876  0.75868  1.0000
  H   H39       1.0  0.77845  0.25229  0.11239  1.0000
  H   H40       1.0  0.22155  0.74771  0.88761  1.0000
  H   H41       1.0  0.61526  0.48057  0.10034  1.0000
  H   H42       1.0  0.38474  0.51943  0.89966  1.0000
  H   H43       1.0  0.61059  0.35635  0.97237  1.0000
  H   H44       1.0  0.38941  0.64365  0.02763  1.0000
  H   H45       1.0  0.76664  0.47561  0.04219  1.0000
  H   H46       1.0  0.23336  0.52439  0.95781  1.0000
  H   H47       1.0  0.91236  0.24217  0.94827  1.0000
  H   H48       1.0  0.08764  0.75783  0.05173  1.0000
  C   C1        1.0  0.53524  0.33444  0.27988  1.0000
  C   C2        1.0  0.46476  0.66556  0.72012  1.0000
  C   C3        1.0  0.61213  0.24805  0.20749  1.0000
  C   C4        1.0  0.38787  0.75195  0.79251  1.0000
  C   C5        1.0  0.30768  0.14469  0.62679  1.0000
  C   C6        1.0  0.69233  0.85531  0.37322  1.0000
  C   C7        1.0  0.08946  0.02850  0.82344  1.0000
  C   C8        1.0  0.91054  0.97149  0.17656  1.0000
  C   C9        1.0  0.38023  0.21678  0.10176  1.0000
  C   C10       1.0  0.61977  0.78322  0.89824  1.0000
  C   C11       1.0  0.22352  0.06601  0.91076  1.0000
  C   C12       1.0  0.77649  0.93399  0.08924  1.0000
  C   C13       1.0  0.13015  0.23284  0.02553  1.0000
  C   C14       1.0  0.86985  0.76715  0.97447  1.0000
  C   C15       1.0  0.24353  0.17109  0.01324  1.0000
  C   C16       1.0  0.75647  0.82890  0.98676  1.0000
  C   C17       1.0  0.33761  0.27008  0.72586  1.0000
  C   C18       1.0  0.66239  0.72992  0.27414  1.0000
  C   C19       1.0  0.52576  0.26519  0.64361  1.0000
  C   C20       1.0  0.47424  0.73482  0.35640  1.0000
  C   C21       1.0  0.72465  0.23389  0.54810  1.0000
  C   C22       1.0  0.27536  0.76611  0.45191  1.0000
  C   C23       1.0  0.66756  0.30954  0.63413  1.0000
  C   C24       1.0  0.33245  0.69046  0.36588  1.0000
  C   C25       1.0  0.86167  0.28480  0.53764  1.0000
  C   C26       1.0  0.13833  0.71520  0.46236  1.0000
  C   C27       1.0  0.75105  0.42694  0.71034  1.0000
  C   C28       1.0  0.24895  0.57306  0.28966  1.0000
  C   C29       1.0  0.18318  0.13484  0.51101  1.0000
  C   C30       1.0  0.81683  0.86517  0.48899  1.0000
  C   C31       1.0  0.19573  0.24850  0.43620  1.0000
  C   C32       1.0  0.80428  0.75150  0.56381  1.0000
  C   C33       1.0  0.88714  0.47169  0.70165  1.0000
  C   C34       1.0  0.11286  0.52831  0.29835  1.0000
  C   C35       1.0  0.94137  0.40069  0.61347  1.0000
  C   C36       1.0  0.05863  0.59931  0.38653  1.0000
  C   C37       1.0  0.98013  0.09148  0.83684  1.0000
  C   C38       1.0  0.01987  0.90851  0.16316  1.0000
  C   C39       1.0  0.72734  0.32405  0.15685  1.0000
  C   C40       1.0  0.27266  0.67596  0.84315  1.0000
  C   C41       1.0  0.67667  0.41402  0.06305  1.0000
  C   C42       1.0  0.32333  0.58598  0.93695  1.0000
  C   C43       1.0  0.99961  0.19437  0.93843  1.0000
  C   C44       1.0  0.00039  0.80563  0.06157  1.0000
  N   N1        1.0  0.49394  0.16828  0.10373  1.0000
  N   N2        1.0  0.50606  0.83172  0.89627  1.0000
  N   N3        1.0  0.44401  0.15095  0.59213  1.0000
  N   N4        1.0  0.55600  0.84904  0.40790  1.0000
  N   N5        1.0  0.36369  0.02221  0.31407  1.0000
  N   N6        1.0  0.63622  0.97782  0.68584  1.0000
  N   N7        1.0  0.37346  0.95599  0.22093  1.0000
  N   N8        1.0  0.62652  0.04402  0.77903  1.0000
  N   N9        1.0  0.37898  0.89297  0.12607  1.0000
  N   N10       1.0  0.62105  0.10701  0.87392  1.0000
  O   O1        1.0  0.32471  0.00457  0.89066  1.0000
  O   O2        1.0  0.67529  0.99544  0.10934  1.0000
  O   O3        1.0  0.46912  0.34752  0.71394  1.0000
  O   O4        1.0  0.53087  0.65249  0.28605  1.0000
  O   O5        1.0  0.39540  0.32082  0.19271  1.0000
  O   O6        1.0  0.60460  0.67918  0.80728  1.0000
  O   O7        1.0  0.65521  0.12084  0.47613  1.0000
  O   O8        1.0  0.34479  0.87915  0.52388  1.0000
