data_image0
_chemical_formula_structural       Mn2P2H30C40N4O10
_chemical_formula_sum              "Mn2 P2 H30 C40 N4 O10"
_cell_length_a       9.34428
_cell_length_b       10.2191
_cell_length_c       10.7152
_cell_angle_alpha    74.9516
_cell_angle_beta     69.2472
_cell_angle_gamma    84.0529

_space_group_name_H-M_alt    "P 1"
_space_group_IT_number       1

loop_
  _space_group_symop_operation_xyz
  'x, y, z'

loop_
  _atom_site_type_symbol
  _atom_site_label
  _atom_site_symmetry_multiplicity
  _atom_site_fract_x
  _atom_site_fract_y
  _atom_site_fract_z
  _atom_site_occupancy
  Mn  Mn1       1.0  0.58605  0.12680  0.13954  1.0000
  Mn  Mn2       1.0  0.41395  0.87320  0.86047  1.0000
  P   P1        1.0  0.28092  0.11515  0.04107  1.0000
  P   P2        1.0  0.71908  0.88485  0.95892  1.0000
  H   H1        1.0  0.15514  0.91704  0.16650  1.0000
  H   H2        1.0  0.84487  0.08296  0.83350  1.0000
  H   H3        1.0  0.21424  0.31324  0.89592  1.0000
  H   H4        1.0  0.78576  0.68677  0.10408  1.0000
  H   H5        1.0  0.05615  0.20433  0.99181  1.0000
  H   H6        1.0  0.94386  0.79567  0.00819  1.0000
  H   H7        1.0  0.94508  0.19160  0.26061  1.0000
  H   H8        1.0  0.05492  0.80840  0.73939  1.0000
  H   H9        1.0  0.85575  0.33852  0.42605  1.0000
  H   H10       1.0  0.14426  0.66148  0.57395  1.0000
  H   H11       1.0  0.95647  0.57505  0.35700  1.0000
  H   H12       1.0  0.04353  0.42495  0.64301  1.0000
  H   H13       1.0  0.23481  0.51206  0.96182  1.0000
  H   H14       1.0  0.76518  0.48794  0.03818  1.0000
  H   H15       1.0  0.82387  0.89563  0.22779  1.0000
  H   H16       1.0  0.17613  0.10437  0.77220  1.0000
  H   H17       1.0  0.93767  0.82439  0.41361  1.0000
  H   H18       1.0  0.06232  0.17561  0.58638  1.0000
  H   H19       1.0  0.84730  0.94146  0.61065  1.0000
  H   H20       1.0  0.15270  0.05854  0.38935  1.0000
  H   H21       1.0  0.49136  0.30750  0.70434  1.0000
  H   H22       1.0  0.50864  0.69250  0.29565  1.0000
  H   H23       1.0  0.68071  0.12050  0.71508  1.0000
  H   H24       1.0  0.31929  0.87950  0.28491  1.0000
  H   H25       1.0  0.32826  0.45610  0.57613  1.0000
  H   H26       1.0  0.67174  0.54390  0.42387  1.0000
  H   H27       1.0  0.24030  0.51008  0.37211  1.0000
  H   H28       1.0  0.75969  0.48992  0.62789  1.0000
  H   H29       1.0  0.33906  0.36771  0.19944  1.0000
  H   H30       1.0  0.66094  0.63229  0.80057  1.0000
  C   C1        1.0  0.15193  0.25253  0.99904  1.0000
  C   C2        1.0  0.84807  0.74747  0.00095  1.0000
  C   C3        1.0  0.09596  0.34089  0.09952  1.0000
  C   C4        1.0  0.90404  0.65911  0.90048  1.0000
  C   C5        1.0  0.98857  0.29411  0.23120  1.0000
  C   C6        1.0  0.01143  0.70590  0.76880  1.0000
  C   C7        1.0  0.93865  0.37714  0.32394  1.0000
  C   C8        1.0  0.06135  0.62286  0.67606  1.0000
  C   C9        1.0  0.99416  0.50852  0.28634  1.0000
  C   C10       1.0  0.00584  0.49148  0.71366  1.0000
  C   C11       1.0  0.10124  0.55664  0.15529  1.0000
  C   C12       1.0  0.89877  0.44337  0.84471  1.0000
  C   C13       1.0  0.16225  0.69758  0.11188  1.0000
  C   C14       1.0  0.83775  0.30243  0.88813  1.0000
  C   C15       1.0  0.15159  0.47231  0.06337  1.0000
  C   C16       1.0  0.84841  0.52769  0.93664  1.0000
  C   C17       1.0  0.78976  0.94584  0.31229  1.0000
  C   C18       1.0  0.21024  0.05416  0.68770  1.0000
  C   C19       1.0  0.85212  0.90556  0.41853  1.0000
  C   C20       1.0  0.14787  0.09444  0.58147  1.0000
  C   C21       1.0  0.80393  0.97026  0.52512  1.0000
  C   C22       1.0  0.19607  0.02973  0.47487  1.0000
  C   C23       1.0  0.69483  0.07706  0.52350  1.0000
  C   C24       1.0  0.30517  0.92294  0.47650  1.0000
  C   C25       1.0  0.63976  0.11149  0.41141  1.0000
  C   C26       1.0  0.36024  0.88851  0.58859  1.0000
  C   C27       1.0  0.52967  0.22018  0.40477  1.0000
  C   C28       1.0  0.47033  0.77982  0.59522  1.0000
  C   C29       1.0  0.47772  0.29196  0.51018  1.0000
  C   C30       1.0  0.52228  0.70804  0.48982  1.0000
  C   C31       1.0  0.53428  0.25366  0.62249  1.0000
  C   C32       1.0  0.46572  0.74634  0.37751  1.0000
  C   C33       1.0  0.63850  0.15021  0.62912  1.0000
  C   C34       1.0  0.36150  0.84978  0.37088  1.0000
  C   C35       1.0  0.37101  0.39857  0.49733  1.0000
  C   C36       1.0  0.62899  0.60142  0.50267  1.0000
  C   C37       1.0  0.32212  0.42831  0.38534  1.0000
  C   C38       1.0  0.67787  0.57169  0.61467  1.0000
  C   C39       1.0  0.37770  0.34991  0.28733  1.0000
  C   C40       1.0  0.62230  0.65009  0.71266  1.0000
  N   N1        1.0  0.68642  0.04564  0.30828  1.0000
  N   N2        1.0  0.31358  0.95436  0.69172  1.0000
  N   N3        1.0  0.47845  0.24876  0.29682  1.0000
  N   N4        1.0  0.52155  0.75124  0.70318  1.0000
  O   O1        1.0  0.17537  0.01343  0.17309  1.0000
  O   O2        1.0  0.82464  0.98658  0.82691  1.0000
  O   O3        1.0  0.39823  0.17401  0.07921  1.0000
  O   O4        1.0  0.60177  0.82600  0.92080  1.0000
  O   O5        1.0  0.34308  0.05081  0.91883  1.0000
  O   O6        1.0  0.65692  0.94919  0.08117  1.0000
  O   O7        1.0  0.26156  0.73069  0.99148  1.0000
  O   O8        1.0  0.73844  0.26931  0.00852  1.0000
  O   O9        1.0  0.11100  0.77378  0.19522  1.0000
  O   O10       1.0  0.88899  0.22622  0.80478  1.0000
