data_image0
_chemical_formula_structural       Ni4P2H38C36N4O16
_chemical_formula_sum              "Ni4 P2 H38 C36 N4 O16"
_cell_length_a       8.37949
_cell_length_b       11.4345
_cell_length_c       12.489
_cell_angle_alpha    112.933
_cell_angle_beta     96.8397
_cell_angle_gamma    96.0861

_space_group_name_H-M_alt    "P 1"
_space_group_IT_number       1

loop_
  _space_group_symop_operation_xyz
  'x, y, z'

loop_
  _atom_site_type_symbol
  _atom_site_label
  _atom_site_symmetry_multiplicity
  _atom_site_fract_x
  _atom_site_fract_y
  _atom_site_fract_z
  _atom_site_occupancy
  Ni  Ni1       1.0  0.47878  0.64468  0.53758  1.0000
  Ni  Ni2       1.0  0.52393  0.35440  0.46195  1.0000
  Ni  Ni3       1.0  0.24533  0.44522  0.32274  1.0000
  Ni  Ni4       1.0  0.75314  0.55428  0.67342  1.0000
  P   P1        1.0  0.14703  0.29704  0.49379  1.0000
  P   P2        1.0  0.85243  0.70008  0.50418  1.0000
  H   H1        1.0  0.56659  0.50833  0.34965  1.0000
  H   H2        1.0  0.42440  0.48466  0.64195  1.0000
  H   H3        1.0  0.21186  0.51728  0.54130  1.0000
  H   H4        1.0  0.79107  0.48037  0.45364  1.0000
  H   H5        1.0  0.14670  0.63524  0.51487  1.0000
  H   H6        1.0  0.85734  0.36339  0.48181  1.0000
  H   H7        1.0  0.97730  0.34863  0.33221  1.0000
  H   H8        1.0  0.02617  0.65249  0.66823  1.0000
  H   H9        1.0  0.94207  0.47630  0.31729  1.0000
  H   H10       1.0  0.05891  0.52552  0.68367  1.0000
  H   H11       1.0  0.10963  0.69443  0.16094  1.0000
  H   H12       1.0  0.89685  0.30706  0.83913  1.0000
  H   H13       1.0  0.94559  0.85834  0.14212  1.0000
  H   H14       1.0  0.05345  0.14025  0.85967  1.0000
  H   H15       1.0  0.96769  0.06968  0.31192  1.0000
  H   H16       1.0  0.02770  0.92764  0.69075  1.0000
  H   H17       1.0  0.33087  0.96020  0.51211  1.0000
  H   H18       1.0  0.66991  0.04016  0.48938  1.0000
  H   H19       1.0  0.29147  0.18080  0.58347  1.0000
  H   H20       1.0  0.70404  0.81820  0.41963  1.0000
  H   H21       1.0  0.07954  0.15478  0.58458  1.0000
  H   H22       1.0  0.91536  0.84494  0.41645  1.0000
  H   H23       1.0  0.38922  0.43697  0.11563  1.0000
  H   H24       1.0  0.60683  0.56447  0.88499  1.0000
  H   H25       1.0  0.45119  0.26368  0.93789  1.0000
  H   H26       1.0  0.54829  0.73732  0.06393  1.0000
  H   H27       1.0  0.18248  0.98917  0.03951  1.0000
  H   H28       1.0  0.81567  0.01186  0.96170  1.0000
  H   H29       1.0  0.13822  0.17325  0.21256  1.0000
  H   H30       1.0  0.85731  0.82805  0.78778  1.0000
  H   H31       1.0  0.49167  0.11558  0.79316  1.0000
  H   H32       1.0  0.50580  0.88596  0.20810  1.0000
  H   H33       1.0  0.55526  0.92864  0.63219  1.0000
  H   H34       1.0  0.44234  0.07330  0.36874  1.0000
  H   H35       1.0  0.32455  0.67265  0.74764  1.0000
  H   H36       1.0  0.67750  0.32860  0.25434  1.0000
  H   H37       1.0  0.24895  0.84565  0.91260  1.0000
  H   H38       1.0  0.75206  0.15518  0.08934  1.0000
  C   C1        1.0  0.31924  0.71649  0.35156  1.0000
  C   C2        1.0  0.68999  0.28604  0.64650  1.0000
  C   C3        1.0  0.23111  0.81873  0.33728  1.0000
  C   C4        1.0  0.77274  0.18259  0.66339  1.0000
  C   C5        1.0  0.12287  0.78966  0.23235  1.0000
  C   C6        1.0  0.88050  0.21108  0.76840  1.0000
  C   C7        1.0  0.03112  0.88108  0.22315  1.0000
  C   C8        1.0  0.96849  0.11798  0.77846  1.0000
  C   C9        1.0  0.04398  0.00023  0.31809  1.0000
  C   C10       1.0  0.95317  0.99795  0.68412  1.0000
  C   C11       1.0  0.15308  0.03174  0.42359  1.0000
  C   C12       1.0  0.84470  0.96713  0.57853  1.0000
  C   C13       1.0  0.24664  0.93970  0.43106  1.0000
  C   C14       1.0  0.75391  0.06050  0.57049  1.0000
  C   C15       1.0  0.17025  0.15910  0.52878  1.0000
  C   C16       1.0  0.82611  0.83986  0.47312  1.0000
  C   C17       1.0  0.34696  0.33555  0.09405  1.0000
  C   C18       1.0  0.65008  0.66576  0.90655  1.0000
  C   C19       1.0  0.37989  0.23754  0.99502  1.0000
  C   C20       1.0  0.61861  0.76352  0.00639  1.0000
  C   C21       1.0  0.32454  0.10786  0.97146  1.0000
  C   C22       1.0  0.67428  0.89315  0.03006  1.0000
  C   C23       1.0  0.23177  0.08592  0.05052  1.0000
  C   C24       1.0  0.76598  0.91519  0.95056  1.0000
  C   C25       1.0  0.20371  0.18849  0.14765  1.0000
  C   C26       1.0  0.79227  0.81260  0.85279  1.0000
  C   C27       1.0  0.36350  0.00004  0.87086  1.0000
  C   C28       1.0  0.63613  0.00102  0.13086  1.0000
  C   C29       1.0  0.45102  0.01976  0.78834  1.0000
  C   C30       1.0  0.54786  0.98175  0.21324  1.0000
  C   C31       1.0  0.48812  0.91535  0.69702  1.0000
  C   C32       1.0  0.51096  0.08639  0.30452  1.0000
  C   C33       1.0  0.35981  0.77240  0.76088  1.0000
  C   C34       1.0  0.64144  0.22896  0.24107  1.0000
  C   C35       1.0  0.31758  0.87152  0.85416  1.0000
  C   C36       1.0  0.68307  0.12958  0.14780  1.0000
  N   N1        1.0  0.26243  0.31182  0.17066  1.0000
  N   N2        1.0  0.73335  0.68925  0.82932  1.0000
  N   N3        1.0  0.44367  0.79274  0.68268  1.0000
  N   N4        1.0  0.55680  0.20900  0.31915  1.0000
  O   O1        1.0  0.26909  0.60170  0.27460  1.0000
  O   O2        1.0  0.74955  0.40173  0.71885  1.0000
  O   O3        1.0  0.43336  0.75225  0.44123  1.0000
  O   O4        1.0  0.57218  0.25010  0.55956  1.0000
  O   O5        1.0  0.97060  0.27763  0.42883  1.0000
  O   O6        1.0  0.02893  0.71924  0.56832  1.0000
  O   O7        1.0  0.26668  0.30071  0.40876  1.0000
  O   O8        1.0  0.73232  0.69197  0.58900  1.0000
  O   O9        1.0  0.18780  0.42104  0.60973  1.0000
  O   O10       1.0  0.81173  0.57897  0.38628  1.0000
  O   O11       1.0  0.48122  0.48032  0.38638  1.0000
  O   O12       1.0  0.51313  0.51171  0.60712  1.0000
  O   O13       1.0  0.22936  0.57101  0.49401  1.0000
  O   O14       1.0  0.77645  0.42914  0.50276  1.0000
  O   O15       1.0  0.99698  0.39946  0.28352  1.0000
  O   O16       1.0  0.00643  0.60328  0.71805  1.0000
