data_image0
_chemical_formula_structural       Zn4H24C36N12Cl4O8
_chemical_formula_sum              "Zn4 H24 C36 N12 Cl4 O8"
_cell_length_a       7.29763
_cell_length_b       9.01718
_cell_length_c       17.6161
_cell_angle_alpha    90
_cell_angle_beta     89.9997
_cell_angle_gamma    90.4181

_space_group_name_H-M_alt    "P 1"
_space_group_IT_number       1

loop_
  _space_group_symop_operation_xyz
  'x, y, z'

loop_
  _atom_site_type_symbol
  _atom_site_label
  _atom_site_symmetry_multiplicity
  _atom_site_fract_x
  _atom_site_fract_y
  _atom_site_fract_z
  _atom_site_occupancy
  Zn  Zn1       1.0  0.12346  0.82445  0.04613  1.0000
  Zn  Zn2       1.0  0.37654  0.17555  0.54613  1.0000
  Zn  Zn3       1.0  0.87654  0.17555  0.95387  1.0000
  Zn  Zn4       1.0  0.62345  0.82445  0.45387  1.0000
  H   H1        1.0  0.53308  0.68916  0.19711  1.0000
  H   H2        1.0  0.96690  0.31085  0.69712  1.0000
  H   H3        1.0  0.46690  0.31085  0.80289  1.0000
  H   H4        1.0  0.03309  0.68915  0.30289  1.0000
  H   H5        1.0  0.42724  0.51160  0.09739  1.0000
  H   H6        1.0  0.07276  0.48840  0.59739  1.0000
  H   H7        1.0  0.57277  0.48840  0.90261  1.0000
  H   H8        1.0  0.92723  0.51160  0.40261  1.0000
  H   H9        1.0  0.23809  0.21240  0.27327  1.0000
  H   H10       1.0  0.26192  0.78759  0.77327  1.0000
  H   H11       1.0  0.76191  0.78760  0.72673  1.0000
  H   H12       1.0  0.73810  0.21240  0.22673  1.0000
  H   H13       1.0  0.34354  0.39058  0.37142  1.0000
  H   H14       1.0  0.15647  0.60941  0.87142  1.0000
  H   H15       1.0  0.65645  0.60942  0.62858  1.0000
  H   H16       1.0  0.84355  0.39058  0.12858  1.0000
  H   H17       1.0  0.31702  0.03375  0.17166  1.0000
  H   H18       1.0  0.18298  0.96625  0.67166  1.0000
  H   H19       1.0  0.68298  0.96625  0.82834  1.0000
  H   H20       1.0  0.81703  0.03375  0.32834  1.0000
  H   H21       1.0  0.13269  0.40301  0.04401  1.0000
  H   H22       1.0  0.36731  0.59699  0.54402  1.0000
  H   H23       1.0  0.86732  0.59698  0.95598  1.0000
  H   H24       1.0  0.63269  0.40301  0.45598  1.0000
  C   C1        1.0  0.51405  0.65189  0.35088  1.0000
  C   C2        1.0  0.98595  0.34810  0.85088  1.0000
  C   C3        1.0  0.48594  0.34811  0.64912  1.0000
  C   C4        1.0  0.01406  0.65190  0.14912  1.0000
  C   C5        1.0  0.44948  0.54908  0.29014  1.0000
  C   C6        1.0  0.05052  0.45092  0.79014  1.0000
  C   C7        1.0  0.55051  0.45093  0.70986  1.0000
  C   C8        1.0  0.94948  0.54907  0.20986  1.0000
  C   C9        1.0  0.46982  0.58396  0.21313  1.0000
  C   C10       1.0  0.03018  0.41604  0.71313  1.0000
  C   C11       1.0  0.53017  0.41605  0.78687  1.0000
  C   C12       1.0  0.96982  0.58396  0.28687  1.0000
  C   C13       1.0  0.41101  0.48483  0.15738  1.0000
  C   C14       1.0  0.08899  0.51517  0.65738  1.0000
  C   C15       1.0  0.58899  0.51517  0.84262  1.0000
  C   C16       1.0  0.91101  0.48483  0.34262  1.0000
  C   C17       1.0  0.33085  0.35097  0.18012  1.0000
  C   C18       1.0  0.16915  0.64903  0.68012  1.0000
  C   C19       1.0  0.66915  0.64903  0.81988  1.0000
  C   C20       1.0  0.83086  0.35097  0.31988  1.0000
  C   C21       1.0  0.30889  0.31418  0.25669  1.0000
  C   C22       1.0  0.19111  0.68582  0.75670  1.0000
  C   C23       1.0  0.69111  0.68583  0.74331  1.0000
  C   C24       1.0  0.80889  0.31418  0.24330  1.0000
  C   C25       1.0  0.36762  0.41412  0.31155  1.0000
  C   C26       1.0  0.13238  0.58587  0.81155  1.0000
  C   C27       1.0  0.63237  0.58588  0.68845  1.0000
  C   C28       1.0  0.86763  0.41412  0.18845  1.0000
  C   C29       1.0  0.25094  0.10053  0.12863  1.0000
  C   C30       1.0  0.24906  0.89947  0.62863  1.0000
  C   C31       1.0  0.74906  0.89946  0.87137  1.0000
  C   C32       1.0  0.75095  0.10053  0.37137  1.0000
  C   C33       1.0  0.16099  0.28967  0.06141  1.0000
  C   C34       1.0  0.33901  0.71033  0.56141  1.0000
  C   C35       1.0  0.83901  0.71033  0.93859  1.0000
  C   C36       1.0  0.66100  0.28966  0.43859  1.0000
  N   N1        1.0  0.15375  0.04881  0.07134  1.0000
  N   N2        1.0  0.34625  0.95119  0.57134  1.0000
  N   N3        1.0  0.84625  0.95119  0.92866  1.0000
  N   N4        1.0  0.65375  0.04881  0.42866  1.0000
  N   N5        1.0  0.09656  0.16779  0.02907  1.0000
  N   N6        1.0  0.40344  0.83221  0.52907  1.0000
  N   N7        1.0  0.90345  0.83221  0.97093  1.0000
  N   N8        1.0  0.59656  0.16779  0.47093  1.0000
  N   N9        1.0  0.25729  0.25164  0.12477  1.0000
  N   N10       1.0  0.24271  0.74836  0.62477  1.0000
  N   N11       1.0  0.74271  0.74836  0.87523  1.0000
  N   N12       1.0  0.75729  0.25164  0.37523  1.0000
  Cl  Cl1       1.0  0.37965  0.75604  0.98748  1.0000
  Cl  Cl2       1.0  0.12036  0.24396  0.48748  1.0000
  Cl  Cl3       1.0  0.62035  0.24396  0.01252  1.0000
  Cl  Cl4       1.0  0.87964  0.75604  0.51252  1.0000
  O   O1        1.0  0.50912  0.60673  0.41961  1.0000
  O   O2        1.0  0.99089  0.39327  0.91961  1.0000
  O   O3        1.0  0.49088  0.39328  0.58039  1.0000
  O   O4        1.0  0.00912  0.60673  0.08039  1.0000
  O   O5        1.0  0.57437  0.78181  0.33474  1.0000
  O   O6        1.0  0.92563  0.21819  0.83475  1.0000
  O   O7        1.0  0.42563  0.21820  0.66525  1.0000
  O   O8        1.0  0.07437  0.78180  0.16526  1.0000
