data_image0
_chemical_formula_structural       La2H20C8Cl6O4
_chemical_formula_sum              "La2 H20 C8 Cl6 O4"
_cell_length_a       6.6563
_cell_length_b       7.40529
_cell_length_c       10.1117
_cell_angle_alpha    84.4345
_cell_angle_beta     76.914
_cell_angle_gamma    75.6581

_space_group_name_H-M_alt    "P 1"
_space_group_IT_number       1

loop_
  _space_group_symop_operation_xyz
  'x, y, z'

loop_
  _atom_site_type_symbol
  _atom_site_label
  _atom_site_symmetry_multiplicity
  _atom_site_fract_x
  _atom_site_fract_y
  _atom_site_fract_z
  _atom_site_occupancy
  La  La1       1.0  0.72025  0.70793  0.93956  1.0000
  La  La2       1.0  0.27976  0.29206  0.06044  1.0000
  H   H1        1.0  0.03852  0.78433  0.60365  1.0000
  H   H2        1.0  0.96149  0.21566  0.39634  1.0000
  H   H3        1.0  0.80543  0.96755  0.60293  1.0000
  H   H4        1.0  0.19457  0.03245  0.39707  1.0000
  H   H5        1.0  0.88591  0.87574  0.36699  1.0000
  H   H6        1.0  0.11408  0.12426  0.63302  1.0000
  H   H7        1.0  0.97895  0.63795  0.41321  1.0000
  H   H8        1.0  0.02103  0.36204  0.58679  1.0000
  H   H9        1.0  0.52036  0.86780  0.46721  1.0000
  H   H10       1.0  0.47964  0.13221  0.53281  1.0000
  H   H11       1.0  0.61980  0.64362  0.39975  1.0000
  H   H12       1.0  0.38016  0.35640  0.60025  1.0000
  H   H13       1.0  0.64812  0.49624  0.62147  1.0000
  H   H14       1.0  0.35186  0.50378  0.37853  1.0000
  H   H15       1.0  0.44620  0.69654  0.67910  1.0000
  H   H16       1.0  0.55381  0.30347  0.32091  1.0000
  H   H17       1.0  0.09028  0.93629  0.86077  1.0000
  H   H18       1.0  0.90976  0.06370  0.13922  1.0000
  H   H19       1.0  0.86666  0.07764  0.86873  1.0000
  H   H20       1.0  0.13337  0.92235  0.13126  1.0000
  C   C1        1.0  0.87753  0.81897  0.58415  1.0000
  C   C2        1.0  0.12247  0.18104  0.41585  1.0000
  C   C3        1.0  0.86134  0.76663  0.44611  1.0000
  C   C4        1.0  0.13863  0.23338  0.55389  1.0000
  C   C5        1.0  0.63637  0.73491  0.47359  1.0000
  C   C6        1.0  0.36362  0.26510  0.52641  1.0000
  C   C7        1.0  0.60669  0.64936  0.61774  1.0000
  C   C8        1.0  0.39330  0.35064  0.38226  1.0000
  Cl  Cl1       1.0  0.60603  0.99049  0.14755  1.0000
  Cl  Cl2       1.0  0.39397  0.00950  0.85245  1.0000
  Cl  Cl3       1.0  0.67342  0.34706  0.88504  1.0000
  Cl  Cl4       1.0  0.32660  0.65293  0.11495  1.0000
  Cl  Cl5       1.0  0.85471  0.48772  0.16410  1.0000
  Cl  Cl6       1.0  0.14531  0.51227  0.83590  1.0000
  O   O1        1.0  0.75583  0.70748  0.68211  1.0000
  O   O2        1.0  0.24417  0.29251  0.31788  1.0000
  O   O3        1.0  0.94053  0.94411  0.85876  1.0000
  O   O4        1.0  0.05949  0.05588  0.14124  1.0000
