data_image0
_chemical_formula_structural       Zn2H32C44N4O12
_chemical_formula_sum              "Zn2 H32 C44 N4 O12"
_cell_length_a       7.93832
_cell_length_b       7.93806
_cell_length_c       16.4314
_cell_angle_alpha    99.6199
_cell_angle_beta     99.619
_cell_angle_gamma    108.043

_space_group_name_H-M_alt    "P 1"
_space_group_IT_number       1

loop_
  _space_group_symop_operation_xyz
  'x, y, z'

loop_
  _atom_site_type_symbol
  _atom_site_label
  _atom_site_symmetry_multiplicity
  _atom_site_fract_x
  _atom_site_fract_y
  _atom_site_fract_z
  _atom_site_occupancy
  Zn  Zn1       1.0  0.48885  0.48849  0.99987  1.0000
  Zn  Zn2       1.0  0.73850  0.23886  0.49988  1.0000
  H   H1        1.0  0.49638  0.47961  0.18498  1.0000
  H   H2        1.0  0.29525  0.31060  0.81440  1.0000
  H   H3        1.0  0.56057  0.04527  0.31440  1.0000
  H   H4        1.0  0.72960  0.24640  0.68498  1.0000
  H   H5        1.0  0.59736  0.54721  0.34238  1.0000
  H   H6        1.0  0.20548  0.25488  0.65704  1.0000
  H   H7        1.0  0.50486  0.95547  0.15703  1.0000
  H   H8        1.0  0.79720  0.34738  0.84238  1.0000
  H   H9        1.0  0.15800  0.02730  0.42353  1.0000
  H   H10       1.0  0.60432  0.73547  0.57668  1.0000
  H   H11       1.0  0.98549  0.35431  0.07669  1.0000
  H   H12       1.0  0.27732  0.90801  0.92354  1.0000
  H   H13       1.0  0.35705  0.20979  0.34750  1.0000
  H   H14       1.0  0.86259  0.01077  0.65310  1.0000
  H   H15       1.0  0.26080  0.61255  0.15313  1.0000
  H   H16       1.0  0.45982  0.10706  0.84751  1.0000
  H   H17       1.0  0.28057  0.14360  0.18902  1.0000
  H   H18       1.0  0.95385  0.09280  0.81163  1.0000
  H   H19       1.0  0.34279  0.70382  0.31165  1.0000
  H   H20       1.0  0.39361  0.03058  0.68903  1.0000
  H   H21       1.0  0.98964  0.89687  0.10788  1.0000
  H   H22       1.0  0.78832  0.88236  0.89239  1.0000
  H   H23       1.0  0.13230  0.53831  0.39240  1.0000
  H   H24       1.0  0.14687  0.73965  0.60788  1.0000
  H   H25       1.0  0.79283  0.66430  0.45881  1.0000
  H   H26       1.0  0.20532  0.33506  0.54097  1.0000
  H   H27       1.0  0.58502  0.95531  0.04098  1.0000
  H   H28       1.0  0.91430  0.54282  0.95881  1.0000
  H   H29       1.0  0.02595  0.77800  0.46108  1.0000
  H   H30       1.0  0.31732  0.56594  0.53890  1.0000
  H   H31       1.0  0.81590  0.06726  0.03889  1.0000
  H   H32       1.0  0.02802  0.77595  0.96109  1.0000
  C   C1        1.0  0.73531  0.68840  0.17041  1.0000
  C   C2        1.0  0.51805  0.56483  0.82936  1.0000
  C   C3        1.0  0.81481  0.26805  0.32937  1.0000
  C   C4        1.0  0.93840  0.48532  0.67041  1.0000
  C   C5        1.0  0.62494  0.58733  0.21744  1.0000
  C   C6        1.0  0.37029  0.40721  0.78213  1.0000
  C   C7        1.0  0.65718  0.12028  0.28213  1.0000
  C   C8        1.0  0.83733  0.37497  0.71745  1.0000
  C   C9        1.0  0.67919  0.62296  0.30452  1.0000
  C   C10       1.0  0.31881  0.37471  0.69508  1.0000
  C   C11       1.0  0.62469  0.06883  0.19508  1.0000
  C   C12       1.0  0.87295  0.42920  0.80452  1.0000
  C   C13       1.0  0.95497  0.85898  0.30878  1.0000
  C   C14       1.0  0.55014  0.64700  0.69124  1.0000
  C   C15       1.0  0.89700  0.30014  0.19124  1.0000
  C   C16       1.0  0.10900  0.70497  0.80879  1.0000
  C   C17       1.0  0.11952  0.99784  0.35453  1.0000
  C   C18       1.0  0.64349  0.76594  0.64567  1.0000
  C   C19       1.0  0.01594  0.39347  0.14569  1.0000
  C   C20       1.0  0.24786  0.86953  0.85454  1.0000
  C   C21       1.0  0.23306  0.09935  0.31128  1.0000
  C   C22       1.0  0.78805  0.92287  0.68914  1.0000
  C   C23       1.0  0.17288  0.53803  0.18915  1.0000
  C   C24       1.0  0.34937  0.98307  0.81130  1.0000
  C   C25       1.0  0.18902  0.06391  0.22217  1.0000
  C   C26       1.0  0.84132  0.96788  0.77828  1.0000
  C   C27       1.0  0.21788  0.59130  0.27830  1.0000
  C   C28       1.0  0.31392  0.93902  0.72217  1.0000
  C   C29       1.0  0.02817  0.92832  0.17693  1.0000
  C   C30       1.0  0.75093  0.85199  0.82334  1.0000
  C   C31       1.0  0.10196  0.50091  0.32335  1.0000
  C   C32       1.0  0.17833  0.77817  0.67693  1.0000
  C   C33       1.0  0.90743  0.82562  0.21892  1.0000
  C   C34       1.0  0.60649  0.68908  0.78111  1.0000
  C   C35       1.0  0.93906  0.35649  0.28111  1.0000
  C   C36       1.0  0.07563  0.65744  0.71893  1.0000
  C   C37       1.0  0.88754  0.77949  0.44205  1.0000
  C   C38       1.0  0.33748  0.44634  0.55781  1.0000
  C   C39       1.0  0.69632  0.08745  0.05781  1.0000
  C   C40       1.0  0.02949  0.63754  0.94205  1.0000
  C   C41       1.0  0.87691  0.95774  0.49015  1.0000
  C   C42       1.0  0.46756  0.38737  0.50980  1.0000
  C   C43       1.0  0.63738  0.21756  0.00980  1.0000
  C   C44       1.0  0.20773  0.62688  0.99014  1.0000
  N   N1        1.0  0.83795  0.75302  0.34968  1.0000
  N   N2        1.0  0.40344  0.48894  0.65016  1.0000
  N   N3        1.0  0.73891  0.15344  0.15016  1.0000
  N   N4        1.0  0.00302  0.58795  0.84968  1.0000
  O   O1        1.0  0.69324  0.66968  0.08969  1.0000
  O   O2        1.0  0.58000  0.60319  0.91010  1.0000
  O   O3        1.0  0.85318  0.32999  0.41011  1.0000
  O   O4        1.0  0.91968  0.44327  0.58970  1.0000
  O   O5        1.0  0.72405  0.98250  0.46747  1.0000
  O   O6        1.0  0.51472  0.25707  0.53246  1.0000
  O   O7        1.0  0.50707  0.26473  0.03245  1.0000
  O   O8        1.0  0.23249  0.47401  0.96745  1.0000
  O   O9        1.0  0.01068  0.06249  0.54724  1.0000
  O   O10       1.0  0.51545  0.46402  0.45278  1.0000
  O   O11       1.0  0.71404  0.26545  0.95278  1.0000
  O   O12       1.0  0.31249  0.76064  0.04724  1.0000
