data_image0
_chemical_formula_structural       Cd2H56C64N8O16
_chemical_formula_sum              "Cd2 H56 C64 N8 O16"
_cell_length_a       11.6736
_cell_length_b       12.3219
_cell_length_c       13.1981
_cell_angle_alpha    102.564
_cell_angle_beta     90.0064
_cell_angle_gamma    118.262

_space_group_name_H-M_alt    "P 1"
_space_group_IT_number       1

loop_
  _space_group_symop_operation_xyz
  'x, y, z'

loop_
  _atom_site_type_symbol
  _atom_site_label
  _atom_site_symmetry_multiplicity
  _atom_site_fract_x
  _atom_site_fract_y
  _atom_site_fract_z
  _atom_site_occupancy
  Cd  Cd1       1.0  0.79926  0.99996  0.74991  1.0000
  Cd  Cd2       1.0  0.20074  0.00004  0.25009  1.0000
  H   H1        1.0  0.55116  0.60433  0.85243  1.0000
  H   H2        1.0  0.94699  0.39566  0.64754  1.0000
  H   H3        1.0  0.44884  0.39567  0.14757  1.0000
  H   H4        1.0  0.05301  0.60434  0.35246  1.0000
  H   H5        1.0  0.70698  0.62747  0.88925  1.0000
  H   H6        1.0  0.07967  0.37257  0.61070  1.0000
  H   H7        1.0  0.29302  0.37253  0.11074  1.0000
  H   H8        1.0  0.92033  0.62743  0.38930  1.0000
  H   H9        1.0  0.76477  0.62651  0.04314  1.0000
  H   H10       1.0  0.13834  0.37344  0.45687  1.0000
  H   H11       1.0  0.23523  0.37349  0.95686  1.0000
  H   H12       1.0  0.86166  0.62657  0.54313  1.0000
  H   H13       1.0  0.73253  0.61726  0.22654  1.0000
  H   H14       1.0  0.11546  0.38294  0.27346  1.0000
  H   H15       1.0  0.26747  0.38274  0.77346  1.0000
  H   H16       1.0  0.88453  0.61706  0.72654  1.0000
  H   H17       1.0  0.34380  0.65597  0.26841  1.0000
  H   H18       1.0  0.68814  0.34449  0.23163  1.0000
  H   H19       1.0  0.65620  0.34403  0.73159  1.0000
  H   H20       1.0  0.31186  0.65551  0.76837  1.0000
  H   H21       1.0  0.19182  0.67963  0.15075  1.0000
  H   H22       1.0  0.51236  0.32054  0.34909  1.0000
  H   H23       1.0  0.80818  0.32037  0.84924  1.0000
  H   H24       1.0  0.48763  0.67946  0.65092  1.0000
  H   H25       1.0  0.24352  0.69753  0.96852  1.0000
  H   H26       1.0  0.54609  0.30273  0.53138  1.0000
  H   H27       1.0  0.75648  0.30247  0.03148  1.0000
  H   H28       1.0  0.45390  0.69727  0.46863  1.0000
  H   H29       1.0  0.43951  0.69245  0.90708  1.0000
  H   H30       1.0  0.74720  0.30794  0.59299  1.0000
  H   H31       1.0  0.56049  0.30755  0.09292  1.0000
  H   H32       1.0  0.25279  0.69205  0.40701  1.0000
  H   H33       1.0  0.94673  0.88222  0.85154  1.0000
  H   H34       1.0  0.06426  0.11758  0.64826  1.0000
  H   H35       1.0  0.05327  0.11778  0.14846  1.0000
  H   H36       1.0  0.93574  0.88242  0.35173  1.0000
  H   H37       1.0  0.15673  0.87571  0.85506  1.0000
  H   H38       1.0  0.28099  0.12432  0.64482  1.0000
  H   H39       1.0  0.84327  0.12429  0.14494  1.0000
  H   H40       1.0  0.71902  0.87568  0.35517  1.0000
  H   H41       1.0  0.37549  0.99048  0.91149  1.0000
  H   H42       1.0  0.38475  0.00937  0.58858  1.0000
  H   H43       1.0  0.62451  0.00952  0.08851  1.0000
  H   H44       1.0  0.61525  0.99063  0.41142  1.0000
  H   H45       1.0  0.58973  0.99063  0.90463  1.0000
  H   H46       1.0  0.59889  0.00931  0.59529  1.0000
  H   H47       1.0  0.41027  0.00937  0.09537  1.0000
  H   H48       1.0  0.40111  0.99069  0.40471  1.0000
  H   H49       1.0  0.81610  0.02997  0.95836  1.0000
  H   H50       1.0  0.78633  0.97011  0.54146  1.0000
  H   H51       1.0  0.18391  0.97003  0.04163  1.0000
  H   H52       1.0  0.21367  0.02989  0.45854  1.0000
  H   H53       1.0  0.93035  0.17329  0.96190  1.0000
  H   H54       1.0  0.75705  0.82670  0.53798  1.0000
  H   H55       1.0  0.06965  0.82671  0.03809  1.0000
  H   H56       1.0  0.24295  0.17330  0.46202  1.0000
  C   C1        1.0  0.70276  0.80110  0.89482  1.0000
  C   C2        1.0  0.90189  0.19893  0.60513  1.0000
  C   C3        1.0  0.29724  0.19890  0.10518  1.0000
  C   C4        1.0  0.09812  0.80107  0.39487  1.0000
  C   C5        1.0  0.63901  0.66496  0.90905  1.0000
  C   C6        1.0  0.97422  0.33506  0.59092  1.0000
  C   C7        1.0  0.36099  0.33504  0.09095  1.0000
  C   C8        1.0  0.02578  0.66494  0.40909  1.0000
  C   C9        1.0  0.68550  0.63759  0.07878  1.0000
  C   C10       1.0  0.04805  0.36245  0.42121  1.0000
  C   C11       1.0  0.31450  0.36241  0.92122  1.0000
  C   C12       1.0  0.95195  0.63756  0.57879  1.0000
  C   C13       1.0  0.66630  0.63177  0.18007  1.0000
  C   C14       1.0  0.03470  0.36837  0.31994  1.0000
  C   C15       1.0  0.33370  0.36823  0.81993  1.0000
  C   C16       1.0  0.96529  0.63163  0.68006  1.0000
  C   C17       1.0  0.56106  0.64565  0.22686  1.0000
  C   C18       1.0  0.91565  0.35467  0.27321  1.0000
  C   C19       1.0  0.43894  0.35435  0.77314  1.0000
  C   C20       1.0  0.08434  0.64533  0.72679  1.0000
  C   C21       1.0  0.47415  0.65878  0.15480  1.0000
  C   C22       1.0  0.81566  0.34162  0.34527  1.0000
  C   C23       1.0  0.52585  0.34122  0.84520  1.0000
  C   C24       1.0  0.18434  0.65837  0.65473  1.0000
  C   C25       1.0  0.36181  0.66346  0.18854  1.0000
  C   C26       1.0  0.69867  0.33699  0.31150  1.0000
  C   C27       1.0  0.63819  0.33654  0.81146  1.0000
  C   C28       1.0  0.30132  0.66300  0.68850  1.0000
  C   C29       1.0  0.27850  0.67633  0.12322  1.0000
  C   C30       1.0  0.60240  0.32401  0.37673  1.0000
  C   C31       1.0  0.72150  0.32367  0.87678  1.0000
  C   C32       1.0  0.39760  0.67599  0.62327  1.0000
  C   C33       1.0  0.30789  0.68740  0.02127  1.0000
  C   C34       1.0  0.62069  0.31293  0.47870  1.0000
  C   C35       1.0  0.69211  0.31260  0.97872  1.0000
  C   C36       1.0  0.37931  0.68707  0.52130  1.0000
  C   C37       1.0  0.41815  0.68353  0.98600  1.0000
  C   C38       1.0  0.73483  0.31684  0.51403  1.0000
  C   C39       1.0  0.58185  0.31647  0.01400  1.0000
  C   C40       1.0  0.26517  0.68316  0.48597  1.0000
  C   C41       1.0  0.50127  0.66676  0.05108  1.0000
  C   C42       1.0  0.83472  0.33353  0.44897  1.0000
  C   C43       1.0  0.49873  0.33324  0.94891  1.0000
  C   C44       1.0  0.16527  0.66646  0.55104  1.0000
  C   C45       1.0  0.02386  0.93464  0.80709  1.0000
  C   C46       1.0  0.08911  0.06523  0.69273  1.0000
  C   C47       1.0  0.97615  0.06537  0.19291  1.0000
  C   C48       1.0  0.91089  0.93477  0.30727  1.0000
  C   C49       1.0  0.14136  0.93239  0.80943  1.0000
  C   C50       1.0  0.20893  0.06757  0.69044  1.0000
  C   C51       1.0  0.85864  0.06761  0.19057  1.0000
  C   C52       1.0  0.79107  0.93243  0.30955  1.0000
  C   C53       1.0  0.23688  0.99999  0.74996  1.0000
  C   C54       1.0  0.76312  0.00001  0.25003  1.0000
  C   C55       1.0  0.36272  0.99997  0.75001  1.0000
  C   C56       1.0  0.63728  0.00003  0.24999  1.0000
  C   C57       1.0  0.42118  0.99314  0.83950  1.0000
  C   C58       1.0  0.42791  0.00674  0.66051  1.0000
  C   C59       1.0  0.57882  0.00686  0.16050  1.0000
  C   C60       1.0  0.57209  0.99327  0.33949  1.0000
  C   C61       1.0  0.54031  0.99394  0.83626  1.0000
  C   C62       1.0  0.54626  0.00600  0.66369  1.0000
  C   C63       1.0  0.45969  0.00606  0.16374  1.0000
  C   C64       1.0  0.45375  0.99401  0.33631  1.0000
  N   N1        1.0  0.60785  0.65509  0.01458  1.0000
  N   N2        1.0  0.95291  0.34499  0.48541  1.0000
  N   N3        1.0  0.39215  0.34491  0.98542  1.0000
  N   N4        1.0  0.04708  0.65501  0.51459  1.0000
  N   N5        1.0  0.99757  0.99993  0.74990  1.0000
  N   N6        1.0  0.00243  0.00007  0.25010  1.0000
  N   N7        1.0  0.60194  1.00000  0.74997  1.0000
  N   N8        1.0  0.39807  0.00001  0.25003  1.0000
  O   O1        1.0  0.70551  0.80766  0.79994  1.0000
  O   O2        1.0  0.89796  0.19232  0.70000  1.0000
  O   O3        1.0  0.29449  0.19234  0.20006  1.0000
  O   O4        1.0  0.10205  0.80768  0.30000  1.0000
  O   O5        1.0  0.74857  0.89199  0.97600  1.0000
  O   O6        1.0  0.85690  0.10804  0.52393  1.0000
  O   O7        1.0  0.25143  0.10801  0.02400  1.0000
  O   O8        1.0  0.14310  0.89196  0.47607  1.0000
  O   O9        1.0  0.54382  0.64689  0.32106  1.0000
  O   O10       1.0  0.89719  0.35355  0.17904  1.0000
  O   O11       1.0  0.45618  0.35311  0.67894  1.0000
  O   O12       1.0  0.10280  0.64644  0.82096  1.0000
  O   O13       1.0  0.84169  0.10927  0.93164  1.0000
  O   O14       1.0  0.73250  0.89082  0.56818  1.0000
  O   O15       1.0  0.15831  0.89073  0.06836  1.0000
  O   O16       1.0  0.26750  0.10918  0.43182  1.0000
