data_image0
_chemical_formula_structural       La2H30C44S4N4O16
_chemical_formula_sum              "La2 H30 C44 S4 N4 O16"
_cell_length_a       8.90428
_cell_length_b       11.9873
_cell_length_c       12.812
_cell_angle_alpha    104.972
_cell_angle_beta     108.356
_cell_angle_gamma    101.32

_space_group_name_H-M_alt    "P 1"
_space_group_IT_number       1

loop_
  _space_group_symop_operation_xyz
  'x, y, z'

loop_
  _atom_site_type_symbol
  _atom_site_label
  _atom_site_symmetry_multiplicity
  _atom_site_fract_x
  _atom_site_fract_y
  _atom_site_fract_z
  _atom_site_occupancy
  La  La1       1.0  0.54372  0.42358  0.35668  1.0000
  La  La2       1.0  0.45628  0.57642  0.64332  1.0000
  H   H1        1.0  0.88557  0.30529  0.77622  1.0000
  H   H2        1.0  0.11444  0.69471  0.22378  1.0000
  H   H3        1.0  0.81291  0.12274  0.84215  1.0000
  H   H4        1.0  0.18709  0.87725  0.15786  1.0000
  H   H5        1.0  0.32980  0.85948  0.65056  1.0000
  H   H6        1.0  0.67019  0.14052  0.34944  1.0000
  H   H7        1.0  0.25000  0.98162  0.52225  1.0000
  H   H8        1.0  0.75001  0.01838  0.47775  1.0000
  H   H9        1.0  0.30351  0.16756  0.48045  1.0000
  H   H10       1.0  0.69649  0.83244  0.51955  1.0000
  H   H11       1.0  0.93049  0.63171  0.49767  1.0000
  H   H12       1.0  0.06952  0.36829  0.50232  1.0000
  H   H13       1.0  0.10508  0.83000  0.51656  1.0000
  H   H14       1.0  0.89493  0.16999  0.48343  1.0000
  H   H15       1.0  0.00809  0.92188  0.36031  1.0000
  H   H16       1.0  0.99192  0.07812  0.63969  1.0000
  H   H17       1.0  0.78620  0.90737  0.17369  1.0000
  H   H18       1.0  0.21380  0.09263  0.82630  1.0000
  H   H19       1.0  0.50737  0.80253  0.02033  1.0000
  H   H20       1.0  0.49263  0.19747  0.97966  1.0000
  H   H21       1.0  0.24495  0.62558  0.93010  1.0000
  H   H22       1.0  0.75505  0.37443  0.06989  1.0000
  H   H23       1.0  0.09119  0.42791  0.92868  1.0000
  H   H24       1.0  0.90881  0.57210  0.07131  1.0000
  H   H25       1.0  0.22496  0.34530  0.08377  1.0000
  H   H26       1.0  0.77504  0.65471  0.91622  1.0000
  H   H27       1.0  0.83186  0.38462  0.26652  1.0000
  H   H28       1.0  0.16814  0.61538  0.73348  1.0000
  H   H29       1.0  0.67780  0.25708  0.21007  1.0000
  H   H30       1.0  0.32219  0.74292  0.78993  1.0000
  C   C1        1.0  0.70183  0.34539  0.64959  1.0000
  C   C2        1.0  0.29818  0.65461  0.35041  1.0000
  C   C3        1.0  0.75702  0.27523  0.71430  1.0000
  C   C4        1.0  0.24298  0.72477  0.28570  1.0000
  C   C5        1.0  0.64707  0.16394  0.69996  1.0000
  C   C6        1.0  0.35293  0.83606  0.30004  1.0000
  C   C7        1.0  0.69075  0.09277  0.77134  1.0000
  C   C8        1.0  0.30925  0.90723  0.22866  1.0000
  C   C9        1.0  0.57585  0.98690  0.75371  1.0000
  C   C10       1.0  0.42415  0.01309  0.24630  1.0000
  C   C11       1.0  0.41628  0.94435  0.66243  1.0000
  C   C12       1.0  0.58372  0.05565  0.33757  1.0000
  C   C13       1.0  0.37205  0.01132  0.59248  1.0000
  C   C14       1.0  0.62795  0.98868  0.40752  1.0000
  C   C15       1.0  0.48272  0.12354  0.61073  1.0000
  C   C16       1.0  0.51728  0.87646  0.38927  1.0000
  C   C17       1.0  0.42984  0.19681  0.54577  1.0000
  C   C18       1.0  0.57016  0.80319  0.45423  1.0000
  C   C19       1.0  0.53312  0.30999  0.56781  1.0000
  C   C20       1.0  0.46688  0.69001  0.43219  1.0000
  C   C21       1.0  0.88965  0.67354  0.43201  1.0000
  C   C22       1.0  0.11035  0.32645  0.56798  1.0000
  C   C23       1.0  0.98818  0.78543  0.44166  1.0000
  C   C24       1.0  0.01182  0.21457  0.55834  1.0000
  C   C25       1.0  0.93453  0.83517  0.35605  1.0000
  C   C26       1.0  0.06547  0.16483  0.64394  1.0000
  C   C27       1.0  0.78050  0.77347  0.26114  1.0000
  C   C28       1.0  0.21950  0.22653  0.73886  1.0000
  C   C29       1.0  0.71329  0.82179  0.17188  1.0000
  C   C30       1.0  0.28671  0.17821  0.82811  1.0000
  C   C31       1.0  0.55844  0.76338  0.08642  1.0000
  C   C32       1.0  0.44156  0.23662  0.91357  1.0000
  C   C33       1.0  0.46175  0.65044  0.08202  1.0000
  C   C34       1.0  0.53825  0.34956  0.91798  1.0000
  C   C35       1.0  0.30073  0.58750  0.99570  1.0000
  C   C36       1.0  0.69927  0.41251  0.00430  1.0000
  C   C37       1.0  0.21512  0.47765  0.99491  1.0000
  C   C38       1.0  0.78488  0.52236  0.00509  1.0000
  C   C39       1.0  0.28969  0.43129  0.08128  1.0000
  C   C40       1.0  0.71031  0.56872  0.91871  1.0000
  C   C41       1.0  0.52651  0.59742  0.16680  1.0000
  C   C42       1.0  0.47349  0.40258  0.83320  1.0000
  C   C43       1.0  0.68780  0.66122  0.25938  1.0000
  C   C44       1.0  0.31220  0.33879  0.74062  1.0000
  S   S1        1.0  0.83032  0.48343  0.65775  1.0000
  S   S2        1.0  0.16968  0.51656  0.34225  1.0000
  S   S3        1.0  0.61628  0.89899  0.84611  1.0000
  S   S4        1.0  0.38373  0.10102  0.15391  1.0000
  N   N1        1.0  0.74380  0.61309  0.34389  1.0000
  N   N2        1.0  0.25620  0.38691  0.65610  1.0000
  N   N3        1.0  0.44001  0.48979  0.16574  1.0000
  N   N4        1.0  0.55998  0.51022  0.83426  1.0000
  O   O1        1.0  0.00006  0.50343  0.73695  1.0000
  O   O2        1.0  0.99994  0.49655  0.26305  1.0000
  O   O3        1.0  0.76001  0.57948  0.69964  1.0000
  O   O4        1.0  0.24000  0.42051  0.30037  1.0000
  O   O5        1.0  0.81404  0.46432  0.53476  1.0000
  O   O6        1.0  0.18597  0.53569  0.46524  1.0000
  O   O7        1.0  0.47009  0.87642  0.87778  1.0000
  O   O8        1.0  0.52989  0.12358  0.12222  1.0000
  O   O9        1.0  0.61480  0.78198  0.76525  1.0000
  O   O10       1.0  0.38521  0.21802  0.23477  1.0000
  O   O11       1.0  0.77448  0.96212  0.94214  1.0000
  O   O12       1.0  0.22550  0.03788  0.05788  1.0000
  O   O13       1.0  0.47816  0.38668  0.51699  1.0000
  O   O14       1.0  0.52184  0.61331  0.48301  1.0000
  O   O15       1.0  0.73390  0.33780  0.27422  1.0000
  O   O16       1.0  0.26610  0.66220  0.72578  1.0000
