data_image0
_chemical_formula_structural       Pr2H30C44S4N4O16
_chemical_formula_sum              "Pr2 H30 C44 S4 N4 O16"
_cell_length_a       8.89588
_cell_length_b       11.9347
_cell_length_c       12.7888
_cell_angle_alpha    104.928
_cell_angle_beta     108.581
_cell_angle_gamma    100.918

_space_group_name_H-M_alt    "P 1"
_space_group_IT_number       1

loop_
  _space_group_symop_operation_xyz
  'x, y, z'

loop_
  _atom_site_type_symbol
  _atom_site_label
  _atom_site_symmetry_multiplicity
  _atom_site_fract_x
  _atom_site_fract_y
  _atom_site_fract_z
  _atom_site_occupancy
  Pr  Pr1       1.0  0.54645  0.42640  0.35879  1.0000
  Pr  Pr2       1.0  0.45355  0.57361  0.64121  1.0000
  H   H1        1.0  0.88500  0.30229  0.77556  1.0000
  H   H2        1.0  0.11500  0.69771  0.22444  1.0000
  H   H3        1.0  0.81331  0.11897  0.84148  1.0000
  H   H4        1.0  0.18669  0.88104  0.15853  1.0000
  H   H5        1.0  0.33012  0.85743  0.65016  1.0000
  H   H6        1.0  0.66988  0.14257  0.34984  1.0000
  H   H7        1.0  0.24872  0.98117  0.52238  1.0000
  H   H8        1.0  0.75129  0.01883  0.47762  1.0000
  H   H9        1.0  0.30234  0.16696  0.47952  1.0000
  H   H10       1.0  0.69766  0.83304  0.52048  1.0000
  H   H11       1.0  0.93185  0.63230  0.50203  1.0000
  H   H12       1.0  0.06814  0.36770  0.49797  1.0000
  H   H13       1.0  0.10589  0.82943  0.51831  1.0000
  H   H14       1.0  0.89411  0.17057  0.48170  1.0000
  H   H15       1.0  0.00738  0.92009  0.36004  1.0000
  H   H16       1.0  0.99262  0.07990  0.63996  1.0000
  H   H17       1.0  0.78440  0.90452  0.17222  1.0000
  H   H18       1.0  0.21561  0.09547  0.82777  1.0000
  H   H19       1.0  0.50587  0.79888  0.01862  1.0000
  H   H20       1.0  0.49413  0.20112  0.98138  1.0000
  H   H21       1.0  0.24435  0.62138  0.92909  1.0000
  H   H22       1.0  0.75565  0.37862  0.07090  1.0000
  H   H23       1.0  0.09287  0.42409  0.92983  1.0000
  H   H24       1.0  0.90713  0.57592  0.07017  1.0000
  H   H25       1.0  0.22726  0.34392  0.08821  1.0000
  H   H26       1.0  0.77274  0.65609  0.91179  1.0000
  H   H27       1.0  0.83138  0.38742  0.26871  1.0000
  H   H28       1.0  0.16861  0.61258  0.73129  1.0000
  H   H29       1.0  0.67636  0.26047  0.21149  1.0000
  H   H30       1.0  0.32363  0.73952  0.78851  1.0000
  C   C1        1.0  0.70074  0.34328  0.64832  1.0000
  C   C2        1.0  0.29926  0.65673  0.35168  1.0000
  C   C3        1.0  0.75644  0.27270  0.71337  1.0000
  C   C4        1.0  0.24355  0.72729  0.28662  1.0000
  C   C5        1.0  0.64667  0.16151  0.69925  1.0000
  C   C6        1.0  0.35332  0.83849  0.30074  1.0000
  C   C7        1.0  0.69083  0.08964  0.77071  1.0000
  C   C8        1.0  0.30917  0.91036  0.22930  1.0000
  C   C9        1.0  0.57603  0.98392  0.75305  1.0000
  C   C10       1.0  0.42397  0.01608  0.24695  1.0000
  C   C11       1.0  0.41608  0.94234  0.66194  1.0000
  C   C12       1.0  0.58392  0.05765  0.33806  1.0000
  C   C13       1.0  0.37123  0.01011  0.59225  1.0000
  C   C14       1.0  0.62877  0.98989  0.40775  1.0000
  C   C15       1.0  0.48202  0.12195  0.61008  1.0000
  C   C16       1.0  0.51799  0.87805  0.38991  1.0000
  C   C17       1.0  0.42890  0.19554  0.54469  1.0000
  C   C18       1.0  0.57110  0.80446  0.45530  1.0000
  C   C19       1.0  0.53187  0.30865  0.56653  1.0000
  C   C20       1.0  0.46814  0.69134  0.43347  1.0000
  C   C21       1.0  0.89046  0.67362  0.43550  1.0000
  C   C22       1.0  0.10954  0.32637  0.56450  1.0000
  C   C23       1.0  0.98861  0.78486  0.44356  1.0000
  C   C24       1.0  0.01138  0.21514  0.55644  1.0000
  C   C25       1.0  0.93419  0.83386  0.35683  1.0000
  C   C26       1.0  0.06581  0.16614  0.64317  1.0000
  C   C27       1.0  0.77976  0.77205  0.26221  1.0000
  C   C28       1.0  0.22024  0.22795  0.73779  1.0000
  C   C29       1.0  0.71190  0.81941  0.17158  1.0000
  C   C30       1.0  0.28810  0.18058  0.82842  1.0000
  C   C31       1.0  0.55707  0.76056  0.08598  1.0000
  C   C32       1.0  0.44293  0.23944  0.91402  1.0000
  C   C33       1.0  0.46119  0.64799  0.08272  1.0000
  C   C34       1.0  0.53881  0.35202  0.91728  1.0000
  C   C35       1.0  0.30071  0.58416  0.99593  1.0000
  C   C36       1.0  0.69928  0.41584  0.00408  1.0000
  C   C37       1.0  0.21630  0.47460  0.99639  1.0000
  C   C38       1.0  0.78370  0.52540  0.00361  1.0000
  C   C39       1.0  0.29122  0.42945  0.08447  1.0000
  C   C40       1.0  0.70878  0.57056  0.91553  1.0000
  C   C41       1.0  0.52657  0.59617  0.16923  1.0000
  C   C42       1.0  0.47343  0.40383  0.83077  1.0000
  C   C43       1.0  0.68766  0.66039  0.26193  1.0000
  C   C44       1.0  0.31233  0.33961  0.73807  1.0000
  S   S1        1.0  0.82774  0.48187  0.65644  1.0000
  S   S2        1.0  0.17226  0.51813  0.34355  1.0000
  S   S3        1.0  0.61683  0.89400  0.84428  1.0000
  S   S4        1.0  0.38317  0.10600  0.15572  1.0000
  N   N1        1.0  0.74424  0.61298  0.34768  1.0000
  N   N2        1.0  0.25576  0.38702  0.65232  1.0000
  N   N3        1.0  0.44097  0.48896  0.16950  1.0000
  N   N4        1.0  0.55903  0.51104  0.83051  1.0000
  O   O1        1.0  0.99822  0.50222  0.73538  1.0000
  O   O2        1.0  0.00178  0.49778  0.26461  1.0000
  O   O3        1.0  0.75635  0.57787  0.69813  1.0000
  O   O4        1.0  0.24365  0.42213  0.30187  1.0000
  O   O5        1.0  0.81087  0.46292  0.53296  1.0000
  O   O6        1.0  0.18912  0.53707  0.46703  1.0000
  O   O7        1.0  0.47098  0.87185  0.87634  1.0000
  O   O8        1.0  0.52902  0.12815  0.12367  1.0000
  O   O9        1.0  0.61450  0.77722  0.76214  1.0000
  O   O10       1.0  0.38550  0.22277  0.23786  1.0000
  O   O11       1.0  0.77523  0.95579  0.94074  1.0000
  O   O12       1.0  0.22477  0.04422  0.05927  1.0000
  O   O13       1.0  0.47645  0.38593  0.51582  1.0000
  O   O14       1.0  0.52355  0.61407  0.48418  1.0000
  O   O15       1.0  0.73308  0.34111  0.27606  1.0000
  O   O16       1.0  0.26691  0.65889  0.72394  1.0000
