data_image0
_chemical_formula_structural       Sm2H30C44S4N4O16
_chemical_formula_sum              "Sm2 H30 C44 S4 N4 O16"
_cell_length_a       8.85316
_cell_length_b       11.8512
_cell_length_c       12.6774
_cell_angle_alpha    105.771
_cell_angle_beta     108.853
_cell_angle_gamma    100.002

_space_group_name_H-M_alt    "P 1"
_space_group_IT_number       1

loop_
  _space_group_symop_operation_xyz
  'x, y, z'

loop_
  _atom_site_type_symbol
  _atom_site_label
  _atom_site_symmetry_multiplicity
  _atom_site_fract_x
  _atom_site_fract_y
  _atom_site_fract_z
  _atom_site_occupancy
  Sm  Sm1       1.0  0.54260  0.42708  0.35815  1.0000
  Sm  Sm2       1.0  0.45740  0.57292  0.64185  1.0000
  H   H1        1.0  0.88239  0.29884  0.77435  1.0000
  H   H2        1.0  0.11761  0.70116  0.22565  1.0000
  H   H3        1.0  0.81138  0.11757  0.84165  1.0000
  H   H4        1.0  0.18861  0.88244  0.15835  1.0000
  H   H5        1.0  0.32646  0.85658  0.64906  1.0000
  H   H6        1.0  0.67354  0.14341  0.35094  1.0000
  H   H7        1.0  0.24366  0.97774  0.51744  1.0000
  H   H8        1.0  0.75634  0.02226  0.48255  1.0000
  H   H9        1.0  0.29786  0.16322  0.47199  1.0000
  H   H10       1.0  0.70213  0.83678  0.52801  1.0000
  H   H11       1.0  0.92609  0.62852  0.50842  1.0000
  H   H12       1.0  0.07392  0.37148  0.49158  1.0000
  H   H13       1.0  0.10069  0.82680  0.52807  1.0000
  H   H14       1.0  0.89931  0.17320  0.47193  1.0000
  H   H15       1.0  0.00370  0.91715  0.36764  1.0000
  H   H16       1.0  0.99630  0.08285  0.63236  1.0000
  H   H17       1.0  0.78163  0.90223  0.17738  1.0000
  H   H18       1.0  0.21837  0.09777  0.82262  1.0000
  H   H19       1.0  0.50277  0.79688  0.01979  1.0000
  H   H20       1.0  0.49723  0.20312  0.98021  1.0000
  H   H21       1.0  0.24136  0.61845  0.92569  1.0000
  H   H22       1.0  0.75863  0.38155  0.07431  1.0000
  H   H23       1.0  0.08936  0.42028  0.92340  1.0000
  H   H24       1.0  0.91064  0.57973  0.07660  1.0000
  H   H25       1.0  0.22281  0.33912  0.08342  1.0000
  H   H26       1.0  0.77719  0.66088  0.91658  1.0000
  H   H27       1.0  0.82604  0.38958  0.26945  1.0000
  H   H28       1.0  0.17396  0.61042  0.73056  1.0000
  H   H29       1.0  0.67263  0.26094  0.20895  1.0000
  H   H30       1.0  0.32737  0.73906  0.79106  1.0000
  C   C1        1.0  0.69742  0.33974  0.64469  1.0000
  C   C2        1.0  0.30258  0.66026  0.35531  1.0000
  C   C3        1.0  0.75340  0.26943  0.71100  1.0000
  C   C4        1.0  0.24660  0.73057  0.28900  1.0000
  C   C5        1.0  0.64310  0.15888  0.69693  1.0000
  C   C6        1.0  0.35690  0.84112  0.30307  1.0000
  C   C7        1.0  0.68800  0.08794  0.77011  1.0000
  C   C8        1.0  0.31200  0.91206  0.22989  1.0000
  C   C9        1.0  0.57291  0.98292  0.75286  1.0000
  C   C10       1.0  0.42710  0.01708  0.24714  1.0000
  C   C11       1.0  0.41217  0.94117  0.66045  1.0000
  C   C12       1.0  0.58783  0.05883  0.33955  1.0000
  C   C13       1.0  0.36672  0.00769  0.58867  1.0000
  C   C14       1.0  0.63328  0.99231  0.41133  1.0000
  C   C15       1.0  0.47775  0.11910  0.60603  1.0000
  C   C16       1.0  0.52226  0.88090  0.39397  1.0000
  C   C17       1.0  0.42454  0.19239  0.53903  1.0000
  C   C18       1.0  0.57546  0.80761  0.46097  1.0000
  C   C19       1.0  0.52783  0.30576  0.56168  1.0000
  C   C20       1.0  0.47217  0.69424  0.43832  1.0000
  C   C21       1.0  0.88566  0.66987  0.44118  1.0000
  C   C22       1.0  0.11434  0.33013  0.55882  1.0000
  C   C23       1.0  0.98415  0.78156  0.45103  1.0000
  C   C24       1.0  0.01585  0.21844  0.54897  1.0000
  C   C25       1.0  0.93063  0.83038  0.36315  1.0000
  C   C26       1.0  0.06937  0.16962  0.63685  1.0000
  C   C27       1.0  0.77681  0.76806  0.26583  1.0000
  C   C28       1.0  0.22318  0.23194  0.73417  1.0000
  C   C29       1.0  0.70920  0.81627  0.17480  1.0000
  C   C30       1.0  0.29079  0.18373  0.82520  1.0000
  C   C31       1.0  0.55427  0.75761  0.08708  1.0000
  C   C32       1.0  0.44573  0.24239  0.91292  1.0000
  C   C33       1.0  0.45821  0.64438  0.08198  1.0000
  C   C34       1.0  0.54179  0.35562  0.91802  1.0000
  C   C35       1.0  0.29755  0.58078  0.99309  1.0000
  C   C36       1.0  0.70245  0.41922  0.00691  1.0000
  C   C37       1.0  0.21276  0.47072  0.99199  1.0000
  C   C38       1.0  0.78724  0.52928  0.00801  1.0000
  C   C39       1.0  0.28723  0.42502  0.08092  1.0000
  C   C40       1.0  0.71277  0.57498  0.91908  1.0000
  C   C41       1.0  0.52329  0.59181  0.16892  1.0000
  C   C42       1.0  0.47671  0.40819  0.83108  1.0000
  C   C43       1.0  0.68432  0.65603  0.26398  1.0000
  C   C44       1.0  0.31568  0.34397  0.73602  1.0000
  S   S1        1.0  0.82407  0.47764  0.65265  1.0000
  S   S2        1.0  0.17593  0.52236  0.34735  1.0000
  S   S3        1.0  0.61404  0.89342  0.84516  1.0000
  S   S4        1.0  0.38596  0.10659  0.15484  1.0000
  N   N1        1.0  0.73994  0.60872  0.35085  1.0000
  N   N2        1.0  0.26006  0.39128  0.64915  1.0000
  N   N3        1.0  0.43712  0.48442  0.16814  1.0000
  N   N4        1.0  0.56288  0.51558  0.83186  1.0000
  O   O1        1.0  0.99631  0.49678  0.73000  1.0000
  O   O2        1.0  0.00369  0.50322  0.27000  1.0000
  O   O3        1.0  0.75457  0.57611  0.69740  1.0000
  O   O4        1.0  0.24543  0.42389  0.30260  1.0000
  O   O5        1.0  0.80222  0.45706  0.52663  1.0000
  O   O6        1.0  0.19778  0.54294  0.47337  1.0000
  O   O7        1.0  0.46876  0.87404  0.87838  1.0000
  O   O8        1.0  0.53125  0.12597  0.12163  1.0000
  O   O9        1.0  0.60970  0.77431  0.76103  1.0000
  O   O10       1.0  0.39030  0.22569  0.23897  1.0000
  O   O11       1.0  0.77396  0.95433  0.94247  1.0000
  O   O12       1.0  0.22605  0.04568  0.05753  1.0000
  O   O13       1.0  0.47294  0.38452  0.51148  1.0000
  O   O14       1.0  0.52706  0.61548  0.48852  1.0000
  O   O15       1.0  0.72554  0.34347  0.27359  1.0000
  O   O16       1.0  0.27447  0.65653  0.72641  1.0000
