data_image0
_chemical_formula_structural       Nd2H30C44S4N4O16
_chemical_formula_sum              "Nd2 H30 C44 S4 N4 O16"
_cell_length_a       8.88764
_cell_length_b       11.8762
_cell_length_c       12.7098
_cell_angle_alpha    105.84
_cell_angle_beta     108.76
_cell_angle_gamma    100.151

_space_group_name_H-M_alt    "P 1"
_space_group_IT_number       1

loop_
  _space_group_symop_operation_xyz
  'x, y, z'

loop_
  _atom_site_type_symbol
  _atom_site_label
  _atom_site_symmetry_multiplicity
  _atom_site_fract_x
  _atom_site_fract_y
  _atom_site_fract_z
  _atom_site_occupancy
  Nd  Nd1       1.0  0.54294  0.42469  0.35631  1.0000
  Nd  Nd2       1.0  0.45706  0.57531  0.64369  1.0000
  H   H1        1.0  0.87989  0.30034  0.77648  1.0000
  H   H2        1.0  0.12011  0.69966  0.22352  1.0000
  H   H3        1.0  0.80692  0.12068  0.84476  1.0000
  H   H4        1.0  0.19308  0.87932  0.15524  1.0000
  H   H5        1.0  0.32481  0.85790  0.65017  1.0000
  H   H6        1.0  0.67519  0.14210  0.34983  1.0000
  H   H7        1.0  0.24448  0.97740  0.51747  1.0000
  H   H8        1.0  0.75552  0.02260  0.48253  1.0000
  H   H9        1.0  0.29898  0.16313  0.47272  1.0000
  H   H10       1.0  0.70102  0.83687  0.52728  1.0000
  H   H11       1.0  0.92566  0.62755  0.50507  1.0000
  H   H12       1.0  0.07434  0.37245  0.49494  1.0000
  H   H13       1.0  0.10161  0.82524  0.52515  1.0000
  H   H14       1.0  0.89839  0.17477  0.47486  1.0000
  H   H15       1.0  0.00597  0.91642  0.36614  1.0000
  H   H16       1.0  0.99403  0.08357  0.63386  1.0000
  H   H17       1.0  0.78506  0.90282  0.17712  1.0000
  H   H18       1.0  0.21495  0.09718  0.82287  1.0000
  H   H19       1.0  0.50599  0.79925  0.02070  1.0000
  H   H20       1.0  0.49402  0.20075  0.97929  1.0000
  H   H21       1.0  0.24367  0.62297  0.92737  1.0000
  H   H22       1.0  0.75633  0.37703  0.07263  1.0000
  H   H23       1.0  0.08947  0.42531  0.92406  1.0000
  H   H24       1.0  0.91053  0.57469  0.07594  1.0000
  H   H25       1.0  0.22168  0.34205  0.08170  1.0000
  H   H26       1.0  0.77832  0.65795  0.91831  1.0000
  H   H27       1.0  0.83011  0.38817  0.26784  1.0000
  H   H28       1.0  0.16989  0.61183  0.73216  1.0000
  H   H29       1.0  0.67857  0.25886  0.20857  1.0000
  H   H30       1.0  0.32143  0.74114  0.79143  1.0000
  C   C1        1.0  0.69669  0.34033  0.64609  1.0000
  C   C2        1.0  0.30331  0.65967  0.35391  1.0000
  C   C3        1.0  0.75162  0.27053  0.71269  1.0000
  C   C4        1.0  0.24838  0.72947  0.28731  1.0000
  C   C5        1.0  0.64122  0.16006  0.69846  1.0000
  C   C6        1.0  0.35877  0.83994  0.30154  1.0000
  C   C7        1.0  0.68476  0.09010  0.77234  1.0000
  C   C8        1.0  0.31524  0.90990  0.22765  1.0000
  C   C9        1.0  0.56987  0.98508  0.75497  1.0000
  C   C10       1.0  0.43013  0.01492  0.24503  1.0000
  C   C11       1.0  0.41069  0.94230  0.66161  1.0000
  C   C12       1.0  0.58931  0.05770  0.33839  1.0000
  C   C13       1.0  0.36644  0.00802  0.58928  1.0000
  C   C14       1.0  0.63356  0.99198  0.41072  1.0000
  C   C15       1.0  0.47714  0.11955  0.60698  1.0000
  C   C16       1.0  0.52286  0.88045  0.39302  1.0000
  C   C17       1.0  0.42485  0.19243  0.53992  1.0000
  C   C18       1.0  0.57515  0.80757  0.46009  1.0000
  C   C19       1.0  0.52793  0.30583  0.56273  1.0000
  C   C20       1.0  0.47207  0.69417  0.43727  1.0000
  C   C21       1.0  0.88587  0.66926  0.43838  1.0000
  C   C22       1.0  0.11413  0.33074  0.56162  1.0000
  C   C23       1.0  0.98509  0.78064  0.44855  1.0000
  C   C24       1.0  0.01491  0.21936  0.55145  1.0000
  C   C25       1.0  0.93228  0.82990  0.36142  1.0000
  C   C26       1.0  0.06772  0.17010  0.63858  1.0000
  C   C27       1.0  0.77848  0.76847  0.26457  1.0000
  C   C28       1.0  0.22153  0.23152  0.73543  1.0000
  C   C29       1.0  0.71187  0.81724  0.17441  1.0000
  C   C30       1.0  0.28814  0.18276  0.82559  1.0000
  C   C31       1.0  0.55699  0.75954  0.08727  1.0000
  C   C32       1.0  0.44301  0.24046  0.91273  1.0000
  C   C33       1.0  0.45995  0.64676  0.08193  1.0000
  C   C34       1.0  0.54006  0.35324  0.91807  1.0000
  C   C35       1.0  0.29903  0.58445  0.99377  1.0000
  C   C36       1.0  0.70098  0.41555  0.00623  1.0000
  C   C37       1.0  0.21306  0.47463  0.99211  1.0000
  C   C38       1.0  0.78694  0.52537  0.00789  1.0000
  C   C39       1.0  0.28677  0.42793  0.07979  1.0000
  C   C40       1.0  0.71323  0.57207  0.92021  1.0000
  C   C41       1.0  0.52401  0.59345  0.16787  1.0000
  C   C42       1.0  0.47600  0.40655  0.83213  1.0000
  C   C43       1.0  0.68514  0.65673  0.26234  1.0000
  C   C44       1.0  0.31486  0.34327  0.73766  1.0000
  S   S1        1.0  0.82456  0.47807  0.65453  1.0000
  S   S2        1.0  0.17544  0.52194  0.34547  1.0000
  S   S3        1.0  0.60987  0.89762  0.84896  1.0000
  S   S4        1.0  0.39014  0.10239  0.15105  1.0000
  N   N1        1.0  0.74026  0.60896  0.34839  1.0000
  N   N2        1.0  0.25974  0.39104  0.65161  1.0000
  N   N3        1.0  0.43690  0.48616  0.16630  1.0000
  N   N4        1.0  0.56311  0.51384  0.83370  1.0000
  O   O1        1.0  0.99550  0.49700  0.73279  1.0000
  O   O2        1.0  0.00451  0.50300  0.26721  1.0000
  O   O3        1.0  0.75561  0.57677  0.69862  1.0000
  O   O4        1.0  0.24439  0.42323  0.30138  1.0000
  O   O5        1.0  0.80482  0.45733  0.52918  1.0000
  O   O6        1.0  0.19518  0.54267  0.47082  1.0000
  O   O7        1.0  0.46224  0.87635  0.87881  1.0000
  O   O8        1.0  0.53775  0.12364  0.12119  1.0000
  O   O9        1.0  0.61112  0.77890  0.76777  1.0000
  O   O10       1.0  0.38889  0.22110  0.23223  1.0000
  O   O11       1.0  0.76673  0.96151  0.94794  1.0000
  O   O12       1.0  0.23326  0.03850  0.05205  1.0000
  O   O13       1.0  0.47334  0.38404  0.51236  1.0000
  O   O14       1.0  0.52667  0.61596  0.48764  1.0000
  O   O15       1.0  0.73105  0.34150  0.27293  1.0000
  O   O16       1.0  0.26894  0.65850  0.72707  1.0000
