data_image0
_chemical_formula_structural       Cd2H26C36N8O8
_chemical_formula_sum              "Cd2 H26 C36 N8 O8"
_cell_length_a       9.84599
_cell_length_b       10.3991
_cell_length_c       10.7013
_cell_angle_alpha    61.2835
_cell_angle_beta     65.0661
_cell_angle_gamma    76.3744

_space_group_name_H-M_alt    "P 1"
_space_group_IT_number       1

loop_
  _space_group_symop_operation_xyz
  'x, y, z'

loop_
  _atom_site_type_symbol
  _atom_site_label
  _atom_site_symmetry_multiplicity
  _atom_site_fract_x
  _atom_site_fract_y
  _atom_site_fract_z
  _atom_site_occupancy
  Cd  Cd1       1.0  0.61404  0.99389  0.63180  1.0000
  Cd  Cd2       1.0  0.38596  0.00611  0.36820  1.0000
  H   H1        1.0  0.97290  0.92003  0.83128  1.0000
  H   H2        1.0  0.02709  0.07997  0.16872  1.0000
  H   H3        1.0  0.10254  0.56772  0.19602  1.0000
  H   H4        1.0  0.89745  0.43228  0.80398  1.0000
  H   H5        1.0  0.72994  0.52524  0.10450  1.0000
  H   H6        1.0  0.27006  0.47476  0.89551  1.0000
  H   H7        1.0  0.14396  0.83031  0.17967  1.0000
  H   H8        1.0  0.85604  0.16969  0.82033  1.0000
  H   H9        1.0  0.40498  0.98062  0.99924  1.0000
  H   H10       1.0  0.59502  0.01938  0.00077  1.0000
  H   H11       1.0  0.27913  0.87496  0.72881  1.0000
  H   H12       1.0  0.72087  0.12504  0.27119  1.0000
  H   H13       1.0  0.09481  0.33912  0.33518  1.0000
  H   H14       1.0  0.90519  0.66088  0.66482  1.0000
  H   H15       1.0  0.95099  0.08717  0.56762  1.0000
  H   H16       1.0  0.04901  0.91283  0.43238  1.0000
  H   H17       1.0  0.65956  0.35024  0.33472  1.0000
  H   H18       1.0  0.34044  0.64976  0.66528  1.0000
  H   H19       1.0  0.63154  0.43251  0.67805  1.0000
  H   H20       1.0  0.36846  0.56749  0.32195  1.0000
  H   H21       1.0  0.55822  0.72927  0.25912  1.0000
  H   H22       1.0  0.44178  0.27073  0.74088  1.0000
  H   H23       1.0  0.77275  0.75723  0.30093  1.0000
  H   H24       1.0  0.22725  0.24277  0.69907  1.0000
  H   H25       1.0  0.81736  0.62819  0.46177  1.0000
  H   H26       1.0  0.18264  0.37181  0.53822  1.0000
  C   C1        1.0  0.84024  0.72820  0.96205  1.0000
  C   C2        1.0  0.15975  0.27180  0.03795  1.0000
  C   C3        1.0  0.95638  0.81064  0.92526  1.0000
  C   C4        1.0  0.04362  0.18936  0.07474  1.0000
  C   C5        1.0  0.04982  0.75041  0.00957  1.0000
  C   C6        1.0  0.95018  0.24959  0.99043  1.0000
  C   C7        1.0  0.02674  0.61204  0.13334  1.0000
  C   C8        1.0  0.97326  0.38796  0.86666  1.0000
  C   C9        1.0  0.90916  0.53139  0.17033  1.0000
  C   C10       1.0  0.09083  0.46861  0.82967  1.0000
  C   C11       1.0  0.81818  0.58794  0.08279  1.0000
  C   C12       1.0  0.18182  0.41206  0.91720  1.0000
  C   C13       1.0  0.74033  0.78934  0.86885  1.0000
  C   C14       1.0  0.25967  0.21066  0.13115  1.0000
  C   C15       1.0  0.21290  0.86009  0.06050  1.0000
  C   C16       1.0  0.78709  0.13991  0.93950  1.0000
  C   C17       1.0  0.34290  0.93470  0.96849  1.0000
  C   C18       1.0  0.65710  0.06530  0.03152  1.0000
  C   C19       1.0  0.28004  0.88595  0.82401  1.0000
  C   C20       1.0  0.71996  0.11405  0.17599  1.0000
  C   C21       1.0  0.98223  0.30764  0.37235  1.0000
  C   C22       1.0  0.01777  0.69237  0.62765  1.0000
  C   C23       1.0  0.91131  0.18096  0.48497  1.0000
  C   C24       1.0  0.08869  0.81904  0.51503  1.0000
  C   C25       1.0  0.75884  0.31211  0.36456  1.0000
  C   C26       1.0  0.24116  0.68789  0.63544  1.0000
  C   C27       1.0  0.60905  0.59298  0.46344  1.0000
  C   C28       1.0  0.39095  0.40702  0.53656  1.0000
  C   C29       1.0  0.57423  0.46295  0.59909  1.0000
  C   C30       1.0  0.42578  0.53705  0.40091  1.0000
  C   C31       1.0  0.53301  0.62844  0.36517  1.0000
  C   C32       1.0  0.46699  0.37156  0.63483  1.0000
  C   C33       1.0  0.72364  0.69205  0.42546  1.0000
  C   C34       1.0  0.27636  0.30795  0.57454  1.0000
  C   C35       1.0  0.66514  0.80274  0.49420  1.0000
  C   C36       1.0  0.33487  0.19726  0.50579  1.0000
  N   N1        1.0  0.38382  0.94955  0.82187  1.0000
  N   N2        1.0  0.61618  0.05044  0.17813  1.0000
  N   N3        1.0  0.17399  0.83005  0.96695  1.0000
  N   N4        1.0  0.82601  0.16995  0.03305  1.0000
  N   N5        1.0  0.77257  0.18540  0.47882  1.0000
  N   N6        1.0  0.22743  0.81460  0.52118  1.0000
  N   N7        1.0  0.88458  0.39062  0.29573  1.0000
  N   N8        1.0  0.11542  0.60938  0.70427  1.0000
  O   O1        1.0  0.73616  0.93054  0.79503  1.0000
  O   O2        1.0  0.26384  0.06946  0.20497  1.0000
  O   O3        1.0  0.67230  0.70263  0.86747  1.0000
  O   O4        1.0  0.32770  0.29737  0.13253  1.0000
  O   O5        1.0  0.76379  0.86459  0.49247  1.0000
  O   O6        1.0  0.23621  0.13541  0.50752  1.0000
  O   O7        1.0  0.52514  0.83076  0.54724  1.0000
  O   O8        1.0  0.47486  0.16924  0.45276  1.0000
