data_image0
_chemical_formula_structural       La2H22C30O18
_chemical_formula_sum              "La2 H22 C30 O18"
_cell_length_a       9.29708
_cell_length_b       9.99934
_cell_length_c       11.2631
_cell_angle_alpha    91.722
_cell_angle_beta     98.6816
_cell_angle_gamma    110.013

_space_group_name_H-M_alt    "P 1"
_space_group_IT_number       1

loop_
  _space_group_symop_operation_xyz
  'x, y, z'

loop_
  _atom_site_type_symbol
  _atom_site_label
  _atom_site_symmetry_multiplicity
  _atom_site_fract_x
  _atom_site_fract_y
  _atom_site_fract_z
  _atom_site_occupancy
  La  La1       1.0  0.28479  0.04382  0.98345  1.0000
  La  La2       1.0  0.71520  0.95618  0.01656  1.0000
  H   H1        1.0  0.67010  0.51247  0.96625  1.0000
  H   H2        1.0  0.32988  0.48752  0.03374  1.0000
  H   H3        1.0  0.80458  0.20436  0.77589  1.0000
  H   H4        1.0  0.19542  0.79564  0.22411  1.0000
  H   H5        1.0  0.10478  0.64685  0.83499  1.0000
  H   H6        1.0  0.89521  0.35315  0.16501  1.0000
  H   H7        1.0  0.82274  0.41044  0.57685  1.0000
  H   H8        1.0  0.17726  0.58956  0.42316  1.0000
  H   H9        1.0  0.72450  0.27705  0.37498  1.0000
  H   H10       1.0  0.27550  0.72295  0.62502  1.0000
  H   H11       1.0  0.08751  0.09841  0.42894  1.0000
  H   H12       1.0  0.91251  0.90161  0.57107  1.0000
  H   H13       1.0  0.18562  0.23141  0.63430  1.0000
  H   H14       1.0  0.81440  0.76861  0.36570  1.0000
  H   H15       1.0  0.58136  0.18294  0.19307  1.0000
  H   H16       1.0  0.41864  0.81706  0.80693  1.0000
  H   H17       1.0  0.52949  0.31381  0.15428  1.0000
  H   H18       1.0  0.47050  0.68618  0.84571  1.0000
  H   H19       1.0  0.26853  0.11989  0.24453  1.0000
  H   H20       1.0  0.73146  0.88011  0.75547  1.0000
  H   H21       1.0  0.08733  0.02887  0.21534  1.0000
  H   H22       1.0  0.91267  0.97113  0.78466  1.0000
  C   C1        1.0  0.92777  0.74092  0.96535  1.0000
  C   C2        1.0  0.07223  0.25908  0.03464  1.0000
  C   C3        1.0  0.89179  0.59363  0.90829  1.0000
  C   C4        1.0  0.10820  0.40636  0.09171  1.0000
  C   C5        1.0  0.75188  0.48648  0.91844  1.0000
  C   C6        1.0  0.24811  0.51352  0.08156  1.0000
  C   C7        1.0  0.72097  0.34625  0.87216  1.0000
  C   C8        1.0  0.27903  0.65375  0.12783  1.0000
  C   C9        1.0  0.57630  0.23306  0.89429  1.0000
  C   C10       1.0  0.42369  0.76693  0.10570  1.0000
  C   C11       1.0  0.82617  0.31397  0.81018  1.0000
  C   C12       1.0  0.17383  0.68603  0.18982  1.0000
  C   C13       1.0  0.96031  0.42454  0.79354  1.0000
  C   C14       1.0  0.03968  0.57546  0.20646  1.0000
  C   C15       1.0  0.99669  0.56304  0.84463  1.0000
  C   C16       1.0  0.00330  0.43695  0.15537  1.0000
  C   C17       1.0  0.00881  0.32646  0.61696  1.0000
  C   C18       1.0  0.99121  0.67355  0.38304  1.0000
  C   C19       1.0  0.87968  0.34128  0.54428  1.0000
  C   C20       1.0  0.12033  0.65872  0.45572  1.0000
  C   C21       1.0  0.82557  0.26676  0.43120  1.0000
  C   C22       1.0  0.17444  0.73325  0.56880  1.0000
  C   C23       1.0  0.89901  0.17801  0.38856  1.0000
  C   C24       1.0  0.10101  0.82200  0.61144  1.0000
  C   C25       1.0  0.83458  0.09388  0.27002  1.0000
  C   C26       1.0  0.16543  0.90612  0.72999  1.0000
  C   C27       1.0  0.03136  0.16845  0.46119  1.0000
  C   C28       1.0  0.96866  0.83157  0.53881  1.0000
  C   C29       1.0  0.08681  0.24207  0.57503  1.0000
  C   C30       1.0  0.91321  0.75794  0.42497  1.0000
  O   O1        1.0  0.06468  0.83020  0.97361  1.0000
  O   O2        1.0  0.93531  0.16979  0.02640  1.0000
  O   O3        1.0  0.81818  0.76872  0.00307  1.0000
  O   O4        1.0  0.18181  0.23128  0.99693  1.0000
  O   O5        1.0  0.45399  0.26253  0.89148  1.0000
  O   O6        1.0  0.54601  0.73746  0.10852  1.0000
  O   O7        1.0  0.57988  0.10942  0.92095  1.0000
  O   O8        1.0  0.42012  0.89057  0.07904  1.0000
  O   O9        1.0  0.06649  0.39669  0.73059  1.0000
  O   O10       1.0  0.93351  0.60331  0.26941  1.0000
  O   O11       1.0  0.71358  0.10608  0.20544  1.0000
  O   O12       1.0  0.28642  0.89392  0.79458  1.0000
  O   O13       1.0  0.89657  0.00894  0.23083  1.0000
  O   O14       1.0  0.10344  0.99106  0.76917  1.0000
  O   O15       1.0  0.48945  0.21361  0.16945  1.0000
  O   O16       1.0  0.51055  0.78638  0.83055  1.0000
  O   O17       1.0  0.19135  0.03537  0.19793  1.0000
  O   O18       1.0  0.80864  0.96462  0.80207  1.0000
