data_image0
_chemical_formula_structural       La2H22C30O18
_chemical_formula_sum              "La2 H22 C30 O18"
_cell_length_a       9.31394
_cell_length_b       10.018
_cell_length_c       11.2405
_cell_angle_alpha    92.0081
_cell_angle_beta     98.1813
_cell_angle_gamma    110.08

_space_group_name_H-M_alt    "P 1"
_space_group_IT_number       1

loop_
  _space_group_symop_operation_xyz
  'x, y, z'

loop_
  _atom_site_type_symbol
  _atom_site_label
  _atom_site_symmetry_multiplicity
  _atom_site_fract_x
  _atom_site_fract_y
  _atom_site_fract_z
  _atom_site_occupancy
  La  La1       1.0  0.28628  0.04566  0.98481  1.0000
  La  La2       1.0  0.71372  0.95434  0.01519  1.0000
  H   H1        1.0  0.32664  0.48668  0.03219  1.0000
  H   H2        1.0  0.67337  0.51332  0.96781  1.0000
  H   H3        1.0  0.19138  0.79565  0.22143  1.0000
  H   H4        1.0  0.80862  0.20435  0.77857  1.0000
  H   H5        1.0  0.89340  0.35333  0.16658  1.0000
  H   H6        1.0  0.10661  0.64667  0.83343  1.0000
  H   H7        1.0  0.17657  0.59081  0.42117  1.0000
  H   H8        1.0  0.82342  0.40919  0.57883  1.0000
  H   H9        1.0  0.27729  0.72417  0.62317  1.0000
  H   H10       1.0  0.72270  0.27582  0.37683  1.0000
  H   H11       1.0  0.91627  0.90357  0.57524  1.0000
  H   H12       1.0  0.08372  0.09643  0.42476  1.0000
  H   H13       1.0  0.81521  0.77007  0.37009  1.0000
  H   H14       1.0  0.18479  0.22993  0.62991  1.0000
  H   H15       1.0  0.58091  0.18227  0.19378  1.0000
  H   H16       1.0  0.41909  0.81773  0.80622  1.0000
  H   H17       1.0  0.08300  0.02634  0.21337  1.0000
  H   H18       1.0  0.91700  0.97366  0.78663  1.0000
  H   H19       1.0  0.53274  0.31447  0.15589  1.0000
  H   H20       1.0  0.46726  0.68553  0.84411  1.0000
  H   H21       1.0  0.26355  0.11665  0.24677  1.0000
  H   H22       1.0  0.73645  0.88335  0.75323  1.0000
  C   C1        1.0  0.07007  0.25831  0.03519  1.0000
  C   C2        1.0  0.92994  0.74169  0.96481  1.0000
  C   C3        1.0  0.10556  0.40590  0.09161  1.0000
  C   C4        1.0  0.89445  0.59410  0.90839  1.0000
  C   C5        1.0  0.24479  0.51290  0.08012  1.0000
  C   C6        1.0  0.75521  0.48710  0.91988  1.0000
  C   C7        1.0  0.27516  0.65335  0.12540  1.0000
  C   C8        1.0  0.72484  0.34666  0.87460  1.0000
  C   C9        1.0  0.41966  0.76603  0.10249  1.0000
  C   C10       1.0  0.58034  0.23397  0.89752  1.0000
  C   C11       1.0  0.17018  0.68593  0.18794  1.0000
  C   C12       1.0  0.82982  0.31407  0.81206  1.0000
  C   C13       1.0  0.03692  0.57563  0.20624  1.0000
  C   C14       1.0  0.96308  0.42437  0.79376  1.0000
  C   C15       1.0  0.00096  0.43691  0.15591  1.0000
  C   C16       1.0  0.99904  0.56309  0.84409  1.0000
  C   C17       1.0  0.99085  0.67450  0.38424  1.0000
  C   C18       1.0  0.00915  0.32550  0.61576  1.0000
  C   C19       1.0  0.12015  0.65963  0.45520  1.0000
  C   C20       1.0  0.87984  0.34037  0.54479  1.0000
  C   C21       1.0  0.17583  0.73423  0.56836  1.0000
  C   C22       1.0  0.82417  0.26577  0.43164  1.0000
  C   C23       1.0  0.10355  0.82321  0.61268  1.0000
  C   C24       1.0  0.89644  0.17679  0.38731  1.0000
  C   C25       1.0  0.16860  0.90786  0.73108  1.0000
  C   C26       1.0  0.83140  0.09214  0.26892  1.0000
  C   C27       1.0  0.97117  0.83299  0.54173  1.0000
  C   C28       1.0  0.02883  0.16701  0.45827  1.0000
  C   C29       1.0  0.91414  0.75919  0.42794  1.0000
  C   C30       1.0  0.08585  0.24081  0.57206  1.0000
  O   O1        1.0  0.93348  0.16925  0.02775  1.0000
  O   O2        1.0  0.06652  0.83075  0.97225  1.0000
  O   O3        1.0  0.17965  0.23019  0.99737  1.0000
  O   O4        1.0  0.82036  0.76981  0.00263  1.0000
  O   O5        1.0  0.54022  0.73486  0.10151  1.0000
  O   O6        1.0  0.45978  0.26514  0.89849  1.0000
  O   O7        1.0  0.41831  0.89107  0.07992  1.0000
  O   O8        1.0  0.58169  0.10893  0.92008  1.0000
  O   O9        1.0  0.93187  0.60404  0.27073  1.0000
  O   O10       1.0  0.06813  0.39596  0.72927  1.0000
  O   O11       1.0  0.28889  0.89557  0.79507  1.0000
  O   O12       1.0  0.71110  0.10443  0.20493  1.0000
  O   O13       1.0  0.10747  0.99351  0.77067  1.0000
  O   O14       1.0  0.89253  0.00649  0.22933  1.0000
  O   O15       1.0  0.49044  0.21458  0.17115  1.0000
  O   O16       1.0  0.50956  0.78542  0.82885  1.0000
  O   O17       1.0  0.18800  0.03337  0.19776  1.0000
  O   O18       1.0  0.81200  0.96663  0.80224  1.0000
