data_image0
_chemical_formula_structural       La2H46C42N4O20
_chemical_formula_sum              "La2 H46 C42 N4 O20"
_cell_length_a       8.7301
_cell_length_b       11.1942
_cell_length_c       12.6141
_cell_angle_alpha    73.7127
_cell_angle_beta     85.8526
_cell_angle_gamma    76.2878

_space_group_name_H-M_alt    "P 1"
_space_group_IT_number       1

loop_
  _space_group_symop_operation_xyz
  'x, y, z'

loop_
  _atom_site_type_symbol
  _atom_site_label
  _atom_site_symmetry_multiplicity
  _atom_site_fract_x
  _atom_site_fract_y
  _atom_site_fract_z
  _atom_site_occupancy
  La  La1       1.0  0.66138  0.11557  0.61682  1.0000
  La  La2       1.0  0.33862  0.88443  0.38318  1.0000
  H   H1        1.0  0.44464  0.40623  0.42340  1.0000
  H   H2        1.0  0.55537  0.59377  0.57660  1.0000
  H   H3        1.0  0.30798  0.65016  0.09924  1.0000
  H   H4        1.0  0.69201  0.34984  0.90076  1.0000
  H   H5        1.0  0.35461  0.24230  0.17018  1.0000
  H   H6        1.0  0.64538  0.75770  0.82982  1.0000
  H   H7        1.0  0.02426  0.58143  0.07962  1.0000
  H   H8        1.0  0.97573  0.41856  0.92038  1.0000
  H   H9        1.0  0.85367  0.78027  0.96220  1.0000
  H   H10       1.0  0.14632  0.21972  0.03780  1.0000
  H   H11       1.0  0.19485  0.78085  0.69892  1.0000
  H   H12       1.0  0.80514  0.21914  0.30108  1.0000
  H   H13       1.0  0.35997  0.57784  0.81321  1.0000
  H   H14       1.0  0.64003  0.42216  0.18679  1.0000
  H   H15       1.0  0.20123  0.84927  0.98093  1.0000
  H   H16       1.0  0.79877  0.15073  0.01907  1.0000
  H   H17       1.0  0.23980  0.95173  0.05777  1.0000
  H   H18       1.0  0.76020  0.04827  0.94222  1.0000
  H   H19       1.0  0.39924  0.85336  0.00413  1.0000
  H   H20       1.0  0.60076  0.14665  0.99586  1.0000
  H   H21       1.0  0.03220  0.04201  0.87106  1.0000
  H   H22       1.0  0.96780  0.95799  0.12894  1.0000
  H   H23       1.0  0.12831  0.12384  0.75269  1.0000
  H   H24       1.0  0.87169  0.87616  0.24731  1.0000
  H   H25       1.0  0.09795  0.17992  0.87348  1.0000
  H   H26       1.0  0.90205  0.82008  0.12652  1.0000
  H   H27       1.0  0.51758  0.95854  0.86784  1.0000
  H   H28       1.0  0.48242  0.04146  0.13215  1.0000
  H   H29       1.0  0.66427  0.45186  0.45413  1.0000
  H   H30       1.0  0.33573  0.54814  0.54587  1.0000
  H   H31       1.0  0.13240  0.42736  0.40257  1.0000
  H   H32       1.0  0.86761  0.57265  0.59744  1.0000
  H   H33       1.0  0.07008  0.37973  0.29250  1.0000
  H   H34       1.0  0.92993  0.62027  0.70751  1.0000
  H   H35       1.0  0.06476  0.28188  0.43087  1.0000
  H   H36       1.0  0.93525  0.71812  0.56914  1.0000
  H   H37       1.0  0.92826  0.63414  0.36739  1.0000
  H   H38       1.0  0.07174  0.36586  0.63262  1.0000
  H   H39       1.0  0.72630  0.62743  0.35754  1.0000
  H   H40       1.0  0.27370  0.37258  0.64246  1.0000
  H   H41       1.0  0.86303  0.60262  0.24935  1.0000
  H   H42       1.0  0.13697  0.39738  0.75066  1.0000
  H   H43       1.0  0.86812  0.02136  0.40841  1.0000
  H   H44       1.0  0.13188  0.97864  0.59159  1.0000
  H   H45       1.0  0.71141  0.96485  0.43521  1.0000
  H   H46       1.0  0.28859  0.03515  0.56480  1.0000
  C   C1        1.0  0.42308  0.18353  0.38716  1.0000
  C   C2        1.0  0.57693  0.81647  0.61284  1.0000
  C   C3        1.0  0.40557  0.31181  0.30392  1.0000
  C   C4        1.0  0.59444  0.68820  0.69607  1.0000
  C   C5        1.0  0.41629  0.41833  0.33781  1.0000
  C   C6        1.0  0.58371  0.58168  0.66219  1.0000
  C   C7        1.0  0.38028  0.53993  0.26358  1.0000
  C   C8        1.0  0.61972  0.46008  0.73642  1.0000
  C   C9        1.0  0.37776  0.65668  0.30024  1.0000
  C   C10       1.0  0.62224  0.34333  0.69976  1.0000
  C   C11       1.0  0.33740  0.55466  0.15528  1.0000
  C   C12       1.0  0.66260  0.44534  0.84472  1.0000
  C   C13       1.0  0.33219  0.44741  0.12110  1.0000
  C   C14       1.0  0.66781  0.55259  0.87890  1.0000
  C   C15       1.0  0.36532  0.32570  0.19493  1.0000
  C   C16       1.0  0.63468  0.67430  0.80507  1.0000
  C   C17       1.0  0.20298  0.57034  0.95289  1.0000
  C   C18       1.0  0.79702  0.42965  0.04712  1.0000
  C   C19       1.0  0.06053  0.62599  0.99632  1.0000
  C   C20       1.0  0.93946  0.37401  0.00369  1.0000
  C   C21       1.0  0.96686  0.73696  0.93137  1.0000
  C   C22       1.0  0.03313  0.26303  0.06862  1.0000
  C   C23       1.0  0.01463  0.79512  0.82438  1.0000
  C   C24       1.0  0.98537  0.20487  0.17562  1.0000
  C   C25       1.0  0.91004  0.91538  0.75869  1.0000
  C   C26       1.0  0.08995  0.08461  0.24131  1.0000
  C   C27       1.0  0.15696  0.73736  0.78206  1.0000
  C   C28       1.0  0.84304  0.26263  0.21795  1.0000
  C   C29       1.0  0.25011  0.62424  0.84556  1.0000
  C   C30       1.0  0.74988  0.37575  0.15444  1.0000
  C   C31       1.0  0.27861  0.91116  0.98784  1.0000
  C   C32       1.0  0.72139  0.08884  0.01216  1.0000
  C   C33       1.0  0.12551  0.09421  0.84308  1.0000
  C   C34       1.0  0.87449  0.90579  0.15692  1.0000
  C   C35       1.0  0.41047  0.02847  0.83053  1.0000
  C   C36       1.0  0.58952  0.97153  0.16946  1.0000
  C   C37       1.0  0.78091  0.38911  0.44872  1.0000
  C   C38       1.0  0.21909  0.61089  0.55128  1.0000
  C   C39       1.0  0.04834  0.38045  0.37924  1.0000
  C   C40       1.0  0.95166  0.61955  0.62077  1.0000
  C   C41       1.0  0.84892  0.58630  0.33938  1.0000
  C   C42       1.0  0.15109  0.41370  0.66063  1.0000
  N   N1        1.0  0.27670  0.01116  0.88468  1.0000
  N   N2        1.0  0.72329  0.98884  0.11532  1.0000
  N   N3        1.0  0.88888  0.44983  0.39329  1.0000
  N   N4        1.0  0.11113  0.55018  0.60671  1.0000
  O   O1        1.0  0.41756  0.08966  0.35176  1.0000
  O   O2        1.0  0.58246  0.91034  0.64824  1.0000
  O   O3        1.0  0.43709  0.17807  0.48868  1.0000
  O   O4        1.0  0.56292  0.82193  0.51131  1.0000
  O   O5        1.0  0.46533  0.64733  0.38040  1.0000
  O   O6        1.0  0.53467  0.35267  0.61960  1.0000
  O   O7        1.0  0.28420  0.76104  0.25134  1.0000
  O   O8        1.0  0.71580  0.23897  0.74866  1.0000
  O   O9        1.0  0.29824  0.45704  0.01290  1.0000
  O   O10       1.0  0.70176  0.54296  0.98710  1.0000
  O   O11       1.0  0.77614  0.95505  0.79982  1.0000
  O   O12       1.0  0.22385  0.04495  0.20018  1.0000
  O   O13       1.0  0.95304  0.97575  0.66303  1.0000
  O   O14       1.0  0.04696  0.02424  0.33696  1.0000
  O   O15       1.0  0.41757  0.11597  0.74400  1.0000
  O   O16       1.0  0.58242  0.88402  0.25600  1.0000
  O   O17       1.0  0.80866  0.27032  0.49192  1.0000
  O   O18       1.0  0.19134  0.72968  0.50807  1.0000
  O   O19       1.0  0.76558  0.02609  0.44904  1.0000
  O   O20       1.0  0.23442  0.97392  0.55097  1.0000
