data_image0
_chemical_formula_structural       La2H22C30O18
_chemical_formula_sum              "La2 H22 C30 O18"
_cell_length_a       9.33222
_cell_length_b       10.1205
_cell_length_c       11.3418
_cell_angle_alpha    93.2483
_cell_angle_beta     100.362
_cell_angle_gamma    111.455

_space_group_name_H-M_alt    "P 1"
_space_group_IT_number       1

loop_
  _space_group_symop_operation_xyz
  'x, y, z'

loop_
  _atom_site_type_symbol
  _atom_site_label
  _atom_site_symmetry_multiplicity
  _atom_site_fract_x
  _atom_site_fract_y
  _atom_site_fract_z
  _atom_site_occupancy
  La  La1       1.0  0.78200  0.53933  0.98678  1.0000
  La  La2       1.0  0.21800  0.46067  0.01321  1.0000
  H   H1        1.0  0.15315  0.00156  0.95425  1.0000
  H   H2        1.0  0.84685  0.99845  0.04575  1.0000
  H   H3        1.0  0.30024  0.69596  0.78138  1.0000
  H   H4        1.0  0.69975  0.30404  0.21862  1.0000
  H   H5        1.0  0.59933  0.14515  0.84654  1.0000
  H   H6        1.0  0.40067  0.85485  0.15346  1.0000
  H   H7        1.0  0.32947  0.90880  0.58467  1.0000
  H   H8        1.0  0.67053  0.09119  0.41533  1.0000
  H   H9        1.0  0.23982  0.78532  0.37441  1.0000
  H   H10       1.0  0.76017  0.21467  0.62560  1.0000
  H   H11       1.0  0.59584  0.60634  0.43907  1.0000
  H   H12       1.0  0.40416  0.39365  0.56093  1.0000
  H   H13       1.0  0.68676  0.73108  0.65253  1.0000
  H   H14       1.0  0.31324  0.26891  0.34747  1.0000
  H   H15       1.0  0.10053  0.69422  0.18996  1.0000
  H   H16       1.0  0.89946  0.30578  0.81003  1.0000
  H   H17       1.0  0.04624  0.82200  0.15582  1.0000
  H   H18       1.0  0.95377  0.17800  0.84418  1.0000
  H   H19       1.0  0.78760  0.62857  0.24969  1.0000
  H   H20       1.0  0.21241  0.37144  0.75032  1.0000
  H   H21       1.0  0.60267  0.53800  0.21855  1.0000
  H   H22       1.0  0.39734  0.46200  0.78145  1.0000
  C   C1        1.0  0.41198  0.23695  0.96184  1.0000
  C   C2        1.0  0.58803  0.76306  0.03816  1.0000
  C   C3        1.0  0.37998  0.08806  0.90747  1.0000
  C   C4        1.0  0.62002  0.91194  0.09252  1.0000
  C   C5        1.0  0.23852  0.97739  0.91240  1.0000
  C   C6        1.0  0.76148  0.02262  0.08759  1.0000
  C   C7        1.0  0.21052  0.83620  0.86886  1.0000
  C   C8        1.0  0.78948  0.16380  0.13114  1.0000
  C   C9        1.0  0.06578  0.71994  0.88786  1.0000
  C   C10       1.0  0.93421  0.28006  0.11213  1.0000
  C   C11       1.0  0.31994  0.80590  0.81428  1.0000
  C   C12       1.0  0.68006  0.19411  0.18571  1.0000
  C   C13       1.0  0.45590  0.91908  0.80324  1.0000
  C   C14       1.0  0.54409  0.08092  0.19676  1.0000
  C   C15       1.0  0.48972  0.05910  0.85194  1.0000
  C   C16       1.0  0.51028  0.94090  0.14806  1.0000
  C   C17       1.0  0.51265  0.82563  0.63018  1.0000
  C   C18       1.0  0.48736  0.17437  0.36983  1.0000
  C   C19       1.0  0.38728  0.84231  0.55251  1.0000
  C   C20       1.0  0.61272  0.15769  0.44749  1.0000
  C   C21       1.0  0.33784  0.77323  0.43471  1.0000
  C   C22       1.0  0.66215  0.22677  0.56530  1.0000
  C   C23       1.0  0.41194  0.68736  0.39263  1.0000
  C   C24       1.0  0.58805  0.31264  0.60737  1.0000
  C   C25       1.0  0.35168  0.60819  0.26865  1.0000
  C   C26       1.0  0.64831  0.39180  0.73135  1.0000
  C   C27       1.0  0.53985  0.67475  0.47114  1.0000
  C   C28       1.0  0.46015  0.32525  0.52886  1.0000
  C   C29       1.0  0.59113  0.74364  0.58950  1.0000
  C   C30       1.0  0.40887  0.25635  0.41050  1.0000
  O   O1        1.0  0.55096  0.33101  0.97875  1.0000
  O   O2        1.0  0.44904  0.66899  0.02124  1.0000
  O   O3        1.0  0.29675  0.26116  0.98876  1.0000
  O   O4        1.0  0.70326  0.73885  0.01124  1.0000
  O   O5        1.0  0.94006  0.74249  0.88067  1.0000
  O   O6        1.0  0.05994  0.25750  0.11932  1.0000
  O   O7        1.0  0.07399  0.60121  0.91744  1.0000
  O   O8        1.0  0.92602  0.39879  0.08256  1.0000
  O   O9        1.0  0.56619  0.89174  0.74812  1.0000
  O   O10       1.0  0.43380  0.10826  0.25188  1.0000
  O   O11       1.0  0.23460  0.62358  0.19932  1.0000
  O   O12       1.0  0.76538  0.37642  0.80068  1.0000
  O   O13       1.0  0.41203  0.52407  0.22955  1.0000
  O   O14       1.0  0.58797  0.47592  0.77045  1.0000
  O   O15       1.0  0.70575  0.54109  0.20361  1.0000
  O   O16       1.0  0.29426  0.45891  0.79639  1.0000
  O   O17       1.0  0.00683  0.72179  0.16832  1.0000
  O   O18       1.0  0.99317  0.27821  0.83168  1.0000
