data_image0
_chemical_formula_structural       K2H30C14S4N2O2
_chemical_formula_sum              "K2 H30 C14 S4 N2 O2"
_cell_length_a       5.23289
_cell_length_b       10.0433
_cell_length_c       11.7427
_cell_angle_alpha    64.5136
_cell_angle_beta     90.4312
_cell_angle_gamma    78.7192

_space_group_name_H-M_alt    "P 1"
_space_group_IT_number       1

loop_
  _space_group_symop_operation_xyz
  'x, y, z'

loop_
  _atom_site_type_symbol
  _atom_site_label
  _atom_site_symmetry_multiplicity
  _atom_site_fract_x
  _atom_site_fract_y
  _atom_site_fract_z
  _atom_site_occupancy
  K   K1        1.0  0.25010  0.52794  0.10798  1.0000
  K   K2        1.0  0.74987  0.47207  0.89202  1.0000
  H   H1        1.0  0.76779  0.54296  0.49023  1.0000
  H   H2        1.0  0.23213  0.45703  0.50976  1.0000
  H   H3        1.0  0.68675  0.38642  0.61773  1.0000
  H   H4        1.0  0.31319  0.61357  0.38227  1.0000
  H   H5        1.0  0.83687  0.15254  0.46298  1.0000
  H   H6        1.0  0.16310  0.84745  0.53701  1.0000
  H   H7        1.0  0.29792  0.24464  0.54129  1.0000
  H   H8        1.0  0.70207  0.75534  0.45873  1.0000
  H   H9        1.0  0.42757  0.06425  0.54973  1.0000
  H   H10       1.0  0.57242  0.93574  0.45027  1.0000
  H   H11       1.0  0.36082  0.22499  0.39953  1.0000
  H   H12       1.0  0.63913  0.77500  0.60048  1.0000
  H   H13       1.0  0.00274  0.16654  0.66541  1.0000
  H   H14       1.0  0.99726  0.83347  0.33458  1.0000
  H   H15       1.0  0.86987  0.00850  0.68660  1.0000
  H   H16       1.0  0.13015  0.99149  0.31340  1.0000
  H   H17       1.0  0.68037  0.15890  0.71245  1.0000
  H   H18       1.0  0.31964  0.84110  0.28755  1.0000
  H   H19       1.0  0.28553  0.10310  0.08243  1.0000
  H   H20       1.0  0.71454  0.89692  0.91757  1.0000
  H   H21       1.0  0.44673  0.14284  0.19417  1.0000
  H   H22       1.0  0.55329  0.85720  0.80582  1.0000
  H   H23       1.0  0.69385  0.11882  0.96417  1.0000
  H   H24       1.0  0.30624  0.88118  0.03585  1.0000
  H   H25       1.0  0.75212  0.97123  0.12173  1.0000
  H   H26       1.0  0.24795  0.02877  0.87831  1.0000
  H   H27       1.0  0.85424  0.14144  0.08804  1.0000
  H   H28       1.0  0.14581  0.85858  0.91198  1.0000
  H   H29       1.0  0.30393  0.33832  0.92868  1.0000
  H   H30       1.0  0.69608  0.66169  0.07131  1.0000
  C   C1        1.0  0.64559  0.45957  0.51584  1.0000
  C   C2        1.0  0.35436  0.54042  0.48415  1.0000
  C   C3        1.0  0.71116  0.20499  0.51378  1.0000
  C   C4        1.0  0.28883  0.79500  0.48621  1.0000
  C   C5        1.0  0.43290  0.18432  0.49943  1.0000
  C   C6        1.0  0.56709  0.81567  0.50058  1.0000
  C   C7        1.0  0.82256  0.13171  0.65284  1.0000
  C   C8        1.0  0.17744  0.86828  0.34715  1.0000
  C   C9        1.0  0.77408  0.43191  0.32548  1.0000
  C   C10       1.0  0.22587  0.56808  0.67451  1.0000
  C   C11       1.0  0.43563  0.16006  0.09514  1.0000
  C   C12       1.0  0.56441  0.83997  0.90485  1.0000
  C   C13       1.0  0.69916  0.09466  0.06498  1.0000
  C   C14       1.0  0.30090  0.90535  0.93504  1.0000
  S   S1        1.0  0.77839  0.62307  0.25521  1.0000
  S   S2        1.0  0.22153  0.37693  0.74479  1.0000
  S   S3        1.0  0.83518  0.32675  0.24167  1.0000
  S   S4        1.0  0.16482  0.67325  0.75832  1.0000
  N   N1        1.0  0.72000  0.36756  0.44803  1.0000
  N   N2        1.0  0.27995  0.63243  0.55196  1.0000
  O   O1        1.0  0.35228  0.32058  0.01845  1.0000
  O   O2        1.0  0.64779  0.67944  0.98153  1.0000
