data_image0
_chemical_formula_structural       K2H22C10S4N2O2
_chemical_formula_sum              "K2 H22 C10 S4 N2 O2"
_cell_length_a       6.31801
_cell_length_b       7.17085
_cell_length_c       11.5012
_cell_angle_alpha    80.3517
_cell_angle_beta     76.0913
_cell_angle_gamma    67.2962

_space_group_name_H-M_alt    "P 1"
_space_group_IT_number       1

loop_
  _space_group_symop_operation_xyz
  'x, y, z'

loop_
  _atom_site_type_symbol
  _atom_site_label
  _atom_site_symmetry_multiplicity
  _atom_site_fract_x
  _atom_site_fract_y
  _atom_site_fract_z
  _atom_site_occupancy
  K   K1        1.0  0.31419  0.80090  0.94734  1.0000
  K   K2        1.0  0.68584  0.19909  0.05266  1.0000
  H   H1        1.0  0.20719  0.43191  0.85078  1.0000
  H   H2        1.0  0.79283  0.56809  0.14918  1.0000
  H   H3        1.0  0.44362  0.21807  0.79015  1.0000
  H   H4        1.0  0.55641  0.78195  0.20982  1.0000
  H   H5        1.0  0.29218  0.65564  0.67113  1.0000
  H   H6        1.0  0.70785  0.34437  0.32885  1.0000
  H   H7        1.0  0.25461  0.44626  0.62580  1.0000
  H   H8        1.0  0.74543  0.55376  0.37416  1.0000
  H   H9        1.0  0.54057  0.45075  0.60862  1.0000
  H   H10       1.0  0.45945  0.54927  0.39136  1.0000
  H   H11       1.0  0.87674  0.20313  0.55691  1.0000
  H   H12       1.0  0.12323  0.79688  0.44312  1.0000
  H   H13       1.0  0.74295  0.08236  0.48779  1.0000
  H   H14       1.0  0.25703  0.91763  0.51223  1.0000
  H   H15       1.0  0.78509  0.66352  0.70929  1.0000
  H   H16       1.0  0.21484  0.33648  0.29074  1.0000
  H   H17       1.0  0.77389  0.75087  0.55435  1.0000
  H   H18       1.0  0.22603  0.24914  0.44569  1.0000
  H   H19       1.0  0.53383  0.86780  0.67004  1.0000
  H   H20       1.0  0.46611  0.13224  0.32998  1.0000
  H   H21       1.0  0.69414  0.36440  0.80782  1.0000
  H   H22       1.0  0.30588  0.63559  0.19217  1.0000
  C   C1        1.0  0.89323  0.96288  0.75288  1.0000
  C   C2        1.0  0.10678  0.03709  0.24715  1.0000
  C   C3        1.0  0.38103  0.38391  0.79225  1.0000
  C   C4        1.0  0.61900  0.61607  0.20771  1.0000
  C   C5        1.0  0.36675  0.49039  0.66701  1.0000
  C   C6        1.0  0.63331  0.50962  0.33296  1.0000
  C   C7        1.0  0.88102  0.05697  0.53768  1.0000
  C   C8        1.0  0.11894  0.94299  0.46234  1.0000
  C   C9        1.0  0.72601  0.79671  0.64644  1.0000
  C   C10       1.0  0.27393  0.20331  0.35359  1.0000
  S   S1        1.0  0.03598  0.12865  0.74712  1.0000
  S   S2        1.0  0.96402  0.87132  0.25289  1.0000
  S   S3        1.0  0.82692  0.82662  0.88463  1.0000
  S   S4        1.0  0.17314  0.17337  0.11539  1.0000
  N   N1        1.0  0.83563  0.94026  0.65115  1.0000
  N   N2        1.0  0.16433  0.05973  0.34887  1.0000
  O   O1        1.0  0.53025  0.43556  0.84857  1.0000
  O   O2        1.0  0.46979  0.56444  0.15141  1.0000
