data_image0
_chemical_formula_structural       Cd2H60C60N8O8
_chemical_formula_sum              "Cd2 H60 C60 N8 O8"
_cell_length_a       9.15421
_cell_length_b       11.8424
_cell_length_c       16.2122
_cell_angle_alpha    78.5161
_cell_angle_beta     86.0586
_cell_angle_gamma    76.9121

_space_group_name_H-M_alt    "P 1"
_space_group_IT_number       1

loop_
  _space_group_symop_operation_xyz
  'x, y, z'

loop_
  _atom_site_type_symbol
  _atom_site_label
  _atom_site_symmetry_multiplicity
  _atom_site_fract_x
  _atom_site_fract_y
  _atom_site_fract_z
  _atom_site_occupancy
  Cd  Cd1       1.0  0.83415  0.54576  0.27127  1.0000
  Cd  Cd2       1.0  0.16586  0.45424  0.72872  1.0000
  H   H1        1.0  0.84463  0.47753  0.98688  1.0000
  H   H2        1.0  0.15541  0.52245  0.01312  1.0000
  H   H3        1.0  0.41077  0.45178  0.44315  1.0000
  H   H4        1.0  0.58924  0.54823  0.55684  1.0000
  H   H5        1.0  0.15732  0.37484  0.34110  1.0000
  H   H6        1.0  0.84268  0.62516  0.65891  1.0000
  H   H7        1.0  0.27829  0.16382  0.39285  1.0000
  H   H8        1.0  0.72171  0.83619  0.60715  1.0000
  H   H9        1.0  0.85962  0.07542  0.35248  1.0000
  H   H10       1.0  0.14039  0.92459  0.64752  1.0000
  H   H11       1.0  0.75335  0.29335  0.30630  1.0000
  H   H12       1.0  0.24665  0.70666  0.69370  1.0000
  H   H13       1.0  0.93677  0.60379  0.44361  1.0000
  H   H14       1.0  0.06323  0.39622  0.55638  1.0000
  H   H15       1.0  0.12573  0.69583  0.49564  1.0000
  H   H16       1.0  0.87427  0.30418  0.50436  1.0000
  H   H17       1.0  0.33187  0.72190  0.24684  1.0000
  H   H18       1.0  0.66813  0.27810  0.75316  1.0000
  H   H19       1.0  0.13688  0.62526  0.20642  1.0000
  H   H20       1.0  0.86313  0.37474  0.79359  1.0000
  H   H21       1.0  0.16189  0.95872  0.47805  1.0000
  H   H22       1.0  0.83810  0.04127  0.52195  1.0000
  H   H23       1.0  0.05948  0.92100  0.40380  1.0000
  H   H24       1.0  0.94052  0.07901  0.59619  1.0000
  H   H25       1.0  0.37807  0.96854  0.37622  1.0000
  H   H26       1.0  0.62193  0.03146  0.62378  1.0000
  H   H27       1.0  0.27559  0.93936  0.29767  1.0000
  H   H28       1.0  0.72442  0.06065  0.70233  1.0000
  H   H29       1.0  0.45976  0.76020  0.37024  1.0000
  H   H30       1.0  0.54023  0.23981  0.62975  1.0000
  H   H31       1.0  0.35919  0.77053  0.46657  1.0000
  H   H32       1.0  0.64081  0.22947  0.53343  1.0000
  H   H33       1.0  0.80169  0.82693  0.29484  1.0000
  H   H34       1.0  0.19829  0.17307  0.70516  1.0000
  H   H35       1.0  0.65039  0.02925  0.24015  1.0000
  H   H36       1.0  0.34959  0.97074  0.75986  1.0000
  H   H37       1.0  0.43018  0.86999  0.07957  1.0000
  H   H38       1.0  0.56981  0.13001  0.92043  1.0000
  H   H39       1.0  0.59311  0.67744  0.13964  1.0000
  H   H40       1.0  0.40689  0.32255  0.86035  1.0000
  H   H41       1.0  0.85769  0.12842  0.88325  1.0000
  H   H42       1.0  0.14229  0.87158  0.11675  1.0000
  H   H43       1.0  0.10680  0.15436  0.91772  1.0000
  H   H44       1.0  0.89319  0.84563  0.08228  1.0000
  H   H45       1.0  0.90655  0.25008  0.14993  1.0000
  H   H46       1.0  0.09345  0.74991  0.85008  1.0000
  H   H47       1.0  0.66514  0.22268  0.10516  1.0000
  H   H48       1.0  0.33485  0.77732  0.89485  1.0000
  H   H49       1.0  0.49309  0.12855  0.06382  1.0000
  H   H50       1.0  0.50690  0.87144  0.93618  1.0000
  H   H51       1.0  0.42727  0.14689  0.16615  1.0000
  H   H52       1.0  0.57273  0.85311  0.83385  1.0000
  H   H53       1.0  0.28235  0.03509  0.04615  1.0000
  H   H54       1.0  0.71764  0.96490  0.95385  1.0000
  H   H55       1.0  0.21777  0.04310  0.15012  1.0000
  H   H56       1.0  0.78222  0.95691  0.84988  1.0000
  H   H57       1.0  0.23756  0.25646  0.01018  1.0000
  H   H58       1.0  0.76244  0.74354  0.98982  1.0000
  H   H59       1.0  0.16581  0.26498  0.11344  1.0000
  H   H60       1.0  0.83418  0.73502  0.88655  1.0000
  C   C1        1.0  0.90362  0.51036  0.10859  1.0000
  C   C2        1.0  0.09641  0.48963  0.89141  1.0000
  C   C3        1.0  0.93437  0.49540  0.01985  1.0000
  C   C4        1.0  0.06568  0.50458  0.98016  1.0000
  C   C5        1.0  0.61558  0.51537  0.39577  1.0000
  C   C6        1.0  0.38442  0.48464  0.60423  1.0000
  C   C7        1.0  0.49916  0.48987  0.46087  1.0000
  C   C8        1.0  0.50085  0.51013  0.53912  1.0000
  C   C9        1.0  0.09479  0.30547  0.34543  1.0000
  C   C10       1.0  0.90520  0.69453  0.65458  1.0000
  C   C11       1.0  0.16164  0.18740  0.37382  1.0000
  C   C12       1.0  0.83836  0.81260  0.62619  1.0000
  C   C13       1.0  0.07816  0.10064  0.37783  1.0000
  C   C14       1.0  0.92184  0.89936  0.62217  1.0000
  C   C15       1.0  0.92934  0.13922  0.35175  1.0000
  C   C16       1.0  0.07065  0.86079  0.64826  1.0000
  C   C17       1.0  0.86975  0.25922  0.32524  1.0000
  C   C18       1.0  0.13025  0.74079  0.67477  1.0000
  C   C19       1.0  0.02711  0.63143  0.40271  1.0000
  C   C20       1.0  0.97289  0.36858  0.59729  1.0000
  C   C21       1.0  0.13108  0.68419  0.43037  1.0000
  C   C22       1.0  0.86891  0.31582  0.56963  1.0000
  C   C23       1.0  0.24210  0.72080  0.37428  1.0000
  C   C24       1.0  0.75790  0.27921  0.62572  1.0000
  C   C25       1.0  0.24553  0.69822  0.29251  1.0000
  C   C26       1.0  0.75448  0.30178  0.70748  1.0000
  C   C27       1.0  0.13859  0.64448  0.26940  1.0000
  C   C28       1.0  0.86141  0.35552  0.73060  1.0000
  C   C29       1.0  0.14326  0.97212  0.40992  1.0000
  C   C30       1.0  0.85673  0.02788  0.59008  1.0000
  C   C31       1.0  0.29101  0.92244  0.36615  1.0000
  C   C32       1.0  0.70899  0.07757  0.63385  1.0000
  C   C33       1.0  0.34766  0.78893  0.39781  1.0000
  C   C34       1.0  0.65234  0.21108  0.60219  1.0000
  C   C35       1.0  0.71840  0.84130  0.24655  1.0000
  C   C36       1.0  0.28159  0.15870  0.75345  1.0000
  C   C37       1.0  0.63355  0.95351  0.21602  1.0000
  C   C38       1.0  0.36644  0.04649  0.78399  1.0000
  C   C39       1.0  0.52659  0.96886  0.15445  1.0000
  C   C40       1.0  0.47340  0.03113  0.84555  1.0000
  C   C41       1.0  0.51152  0.86729  0.12667  1.0000
  C   C42       1.0  0.48847  0.13271  0.87333  1.0000
  C   C43       1.0  0.60116  0.75824  0.16018  1.0000
  C   C44       1.0  0.39884  0.24176  0.83982  1.0000
  C   C45       1.0  0.87237  0.15474  0.94254  1.0000
  C   C46       1.0  0.12762  0.84525  0.05746  1.0000
  C   C47       1.0  0.01212  0.16886  0.96193  1.0000
  C   C48       1.0  0.98787  0.83114  0.03808  1.0000
  C   C49       1.0  0.02933  0.20189  0.03835  1.0000
  C   C50       1.0  0.97066  0.79811  0.96165  1.0000
  C   C51       1.0  0.90169  0.22092  0.09069  1.0000
  C   C52       1.0  0.09830  0.77908  0.90931  1.0000
  C   C53       1.0  0.76608  0.20568  0.06547  1.0000
  C   C54       1.0  0.23392  0.79432  0.93453  1.0000
  C   C55       1.0  0.43340  0.08912  0.11989  1.0000
  C   C56       1.0  0.56660  0.91088  0.88011  1.0000
  C   C57       1.0  0.27572  0.08762  0.09564  1.0000
  C   C58       1.0  0.72428  0.91238  0.90436  1.0000
  C   C59       1.0  0.17992  0.21115  0.06424  1.0000
  C   C60       1.0  0.82007  0.78885  0.93576  1.0000
  N   N1        1.0  0.95107  0.34127  0.32235  1.0000
  N   N2        1.0  0.04893  0.65874  0.67766  1.0000
  N   N3        1.0  0.02963  0.61292  0.32328  1.0000
  N   N4        1.0  0.97037  0.38709  0.67672  1.0000
  N   N5        1.0  0.70335  0.74470  0.21920  1.0000
  N   N6        1.0  0.29665  0.25530  0.78079  1.0000
  N   N7        1.0  0.74982  0.17169  0.99306  1.0000
  N   N8        1.0  0.25017  0.82830  0.00694  1.0000
  O   O1        1.0  0.00639  0.52947  0.15003  1.0000
  O   O2        1.0  0.99364  0.47052  0.84997  1.0000
  O   O3        1.0  0.77275  0.50401  0.13979  1.0000
  O   O4        1.0  0.22728  0.49598  0.86021  1.0000
  O   O5        1.0  0.71618  0.56647  0.41179  1.0000
  O   O6        1.0  0.28383  0.43354  0.58820  1.0000
  O   O7        1.0  0.60913  0.48270  0.32571  1.0000
  O   O8        1.0  0.39087  0.51731  0.67428  1.0000
