data_image0
_chemical_formula_structural       Ag16H40C32N8O32
_chemical_formula_sum              "Ag16 H40 C32 N8 O32"
_cell_length_a       6.888
_cell_length_b       9.45968
_cell_length_c       19.5415
_cell_angle_alpha    90
_cell_angle_beta     89.9999
_cell_angle_gamma    90

_space_group_name_H-M_alt    "P 1"
_space_group_IT_number       1

loop_
  _space_group_symop_operation_xyz
  'x, y, z'

loop_
  _atom_site_type_symbol
  _atom_site_label
  _atom_site_symmetry_multiplicity
  _atom_site_fract_x
  _atom_site_fract_y
  _atom_site_fract_z
  _atom_site_occupancy
  Ag  Ag1       1.0  0.13507  0.55949  0.42724  1.0000
  Ag  Ag2       1.0  0.63507  0.55949  0.07276  1.0000
  Ag  Ag3       1.0  0.13507  0.94051  0.92724  1.0000
  Ag  Ag4       1.0  0.36493  0.05949  0.42724  1.0000
  Ag  Ag5       1.0  0.86493  0.44051  0.57276  1.0000
  Ag  Ag6       1.0  0.36493  0.44051  0.92724  1.0000
  Ag  Ag7       1.0  0.86493  0.05949  0.07276  1.0000
  Ag  Ag8       1.0  0.63507  0.94051  0.57276  1.0000
  Ag  Ag9       1.0  0.94691  0.42172  0.13948  1.0000
  Ag  Ag10      1.0  0.44691  0.42172  0.36052  1.0000
  Ag  Ag11      1.0  0.94691  0.07828  0.63948  1.0000
  Ag  Ag12      1.0  0.55309  0.92172  0.13948  1.0000
  Ag  Ag13      1.0  0.05309  0.57828  0.86052  1.0000
  Ag  Ag14      1.0  0.55309  0.57828  0.63948  1.0000
  Ag  Ag15      1.0  0.05309  0.92172  0.36052  1.0000
  Ag  Ag16      1.0  0.44691  0.07828  0.86052  1.0000
  H   H1        1.0  0.26733  0.58644  0.15021  1.0000
  H   H2        1.0  0.76733  0.58644  0.34979  1.0000
  H   H3        1.0  0.26733  0.91356  0.65021  1.0000
  H   H4        1.0  0.23267  0.08644  0.15021  1.0000
  H   H5        1.0  0.73267  0.41356  0.84979  1.0000
  H   H6        1.0  0.23266  0.41356  0.65021  1.0000
  H   H7        1.0  0.73267  0.08644  0.34979  1.0000
  H   H8        1.0  0.76733  0.91356  0.84979  1.0000
  H   H9        1.0  0.18777  0.79734  0.21452  1.0000
  H   H10       1.0  0.68777  0.79734  0.28548  1.0000
  H   H11       1.0  0.18777  0.70266  0.71452  1.0000
  H   H12       1.0  0.31223  0.29734  0.21452  1.0000
  H   H13       1.0  0.81223  0.20266  0.78548  1.0000
  H   H14       1.0  0.31223  0.20266  0.71452  1.0000
  H   H15       1.0  0.81223  0.29734  0.28548  1.0000
  H   H16       1.0  0.68777  0.70266  0.78548  1.0000
  H   H17       1.0  0.94328  0.74629  0.21009  1.0000
  H   H18       1.0  0.44328  0.74629  0.28991  1.0000
  H   H19       1.0  0.94328  0.75371  0.71009  1.0000
  H   H20       1.0  0.55672  0.24629  0.21009  1.0000
  H   H21       1.0  0.05672  0.25371  0.78991  1.0000
  H   H22       1.0  0.55672  0.25371  0.71009  1.0000
  H   H23       1.0  0.05672  0.24629  0.28991  1.0000
  H   H24       1.0  0.44328  0.75371  0.78991  1.0000
  H   H25       1.0  0.21557  0.80812  0.09178  1.0000
  H   H26       1.0  0.71557  0.80812  0.40822  1.0000
  H   H27       1.0  0.21557  0.69188  0.59178  1.0000
  H   H28       1.0  0.28443  0.30812  0.09178  1.0000
  H   H29       1.0  0.78443  0.19188  0.90822  1.0000
  H   H30       1.0  0.28443  0.19188  0.59178  1.0000
  H   H31       1.0  0.78443  0.30812  0.40822  1.0000
  H   H32       1.0  0.71557  0.69188  0.90822  1.0000
  H   H33       1.0  0.96687  0.76103  0.08436  1.0000
  H   H34       1.0  0.46687  0.76103  0.41564  1.0000
  H   H35       1.0  0.96687  0.73897  0.58436  1.0000
  H   H36       1.0  0.53313  0.26103  0.08436  1.0000
  H   H37       1.0  0.03313  0.23897  0.91564  1.0000
  H   H38       1.0  0.53313  0.23897  0.58436  1.0000
  H   H39       1.0  0.03313  0.26103  0.41564  1.0000
  H   H40       1.0  0.46687  0.73897  0.91564  1.0000
  C   C1        1.0  0.12420  0.61459  0.27420  1.0000
  C   C2        1.0  0.62420  0.61459  0.22580  1.0000
  C   C3        1.0  0.12420  0.88541  0.77420  1.0000
  C   C4        1.0  0.37580  0.11459  0.27420  1.0000
  C   C5        1.0  0.87580  0.38541  0.72580  1.0000
  C   C6        1.0  0.37580  0.38541  0.77420  1.0000
  C   C7        1.0  0.87580  0.11459  0.22580  1.0000
  C   C8        1.0  0.62420  0.88541  0.72580  1.0000
  C   C9        1.0  0.09153  0.70396  0.21070  1.0000
  C   C10       1.0  0.59153  0.70396  0.28930  1.0000
  C   C11       1.0  0.09153  0.79604  0.71070  1.0000
  C   C12       1.0  0.40847  0.20396  0.21070  1.0000
  C   C13       1.0  0.90847  0.29604  0.78930  1.0000
  C   C14       1.0  0.40847  0.29604  0.71070  1.0000
  C   C15       1.0  0.90847  0.20396  0.28930  1.0000
  C   C16       1.0  0.59153  0.79604  0.78930  1.0000
  C   C17       1.0  0.16266  0.64265  0.02114  1.0000
  C   C18       1.0  0.66266  0.64266  0.47886  1.0000
  C   C19       1.0  0.16266  0.85735  0.52114  1.0000
  C   C20       1.0  0.33734  0.14266  0.02114  1.0000
  C   C21       1.0  0.83734  0.35734  0.97886  1.0000
  C   C22       1.0  0.33734  0.35735  0.52114  1.0000
  C   C23       1.0  0.83734  0.14266  0.47886  1.0000
  C   C24       1.0  0.66266  0.85734  0.97886  1.0000
  C   C25       1.0  0.11436  0.71720  0.08772  1.0000
  C   C26       1.0  0.61436  0.71721  0.41228  1.0000
  C   C27       1.0  0.11436  0.78280  0.58772  1.0000
  C   C28       1.0  0.38564  0.21720  0.08772  1.0000
  C   C29       1.0  0.88564  0.28280  0.91228  1.0000
  C   C30       1.0  0.38564  0.28280  0.58772  1.0000
  C   C31       1.0  0.88564  0.21721  0.41228  1.0000
  C   C32       1.0  0.61436  0.78280  0.91228  1.0000
  N   N1        1.0  0.12794  0.62408  0.14769  1.0000
  N   N2        1.0  0.62794  0.62408  0.35231  1.0000
  N   N3        1.0  0.12794  0.87592  0.64769  1.0000
  N   N4        1.0  0.37206  0.12408  0.14769  1.0000
  N   N5        1.0  0.87206  0.37592  0.85231  1.0000
  N   N6        1.0  0.37205  0.37592  0.64769  1.0000
  N   N7        1.0  0.87206  0.12408  0.35231  1.0000
  N   N8        1.0  0.62794  0.87592  0.85231  1.0000
  O   O1        1.0  0.06957  0.67200  0.33126  1.0000
  O   O2        1.0  0.56957  0.67200  0.16874  1.0000
  O   O3        1.0  0.06957  0.82800  0.83126  1.0000
  O   O4        1.0  0.43043  0.17200  0.33126  1.0000
  O   O5        1.0  0.93043  0.32800  0.66874  1.0000
  O   O6        1.0  0.43043  0.32800  0.83126  1.0000
  O   O7        1.0  0.93044  0.17200  0.16874  1.0000
  O   O8        1.0  0.56957  0.82800  0.66874  1.0000
  O   O9        1.0  0.20546  0.49653  0.26914  1.0000
  O   O10       1.0  0.70546  0.49653  0.23086  1.0000
  O   O11       1.0  0.20546  0.00347  0.76914  1.0000
  O   O12       1.0  0.29454  0.99653  0.26914  1.0000
  O   O13       1.0  0.79454  0.50347  0.73086  1.0000
  O   O14       1.0  0.29454  0.50347  0.76914  1.0000
  O   O15       1.0  0.79454  0.99654  0.23086  1.0000
  O   O16       1.0  0.70546  0.00347  0.73086  1.0000
  O   O17       1.0  0.27659  0.53610  0.02427  1.0000
  O   O18       1.0  0.77659  0.53610  0.47573  1.0000
  O   O19       1.0  0.27659  0.96390  0.52427  1.0000
  O   O20       1.0  0.22341  0.03610  0.02427  1.0000
  O   O21       1.0  0.72341  0.46390  0.97573  1.0000
  O   O22       1.0  0.22341  0.46390  0.52427  1.0000
  O   O23       1.0  0.72341  0.03610  0.47573  1.0000
  O   O24       1.0  0.77659  0.96390  0.97573  1.0000
  O   O25       1.0  0.09040  0.69331  0.96693  1.0000
  O   O26       1.0  0.59040  0.69331  0.53307  1.0000
  O   O27       1.0  0.09040  0.80669  0.46693  1.0000
  O   O28       1.0  0.40960  0.19331  0.96693  1.0000
  O   O29       1.0  0.90960  0.30669  0.03307  1.0000
  O   O30       1.0  0.40960  0.30669  0.46693  1.0000
  O   O31       1.0  0.90960  0.19331  0.53307  1.0000
  O   O32       1.0  0.59040  0.80669  0.03307  1.0000
