data_image0
_chemical_formula_structural       Ag16H40C32N8O32
_chemical_formula_sum              "Ag16 H40 C32 N8 O32"
_cell_length_a       6.88131
_cell_length_b       9.45524
_cell_length_c       19.5747
_cell_angle_alpha    90
_cell_angle_beta     90.0003
_cell_angle_gamma    89.9997

_space_group_name_H-M_alt    "P 1"
_space_group_IT_number       1

loop_
  _space_group_symop_operation_xyz
  'x, y, z'

loop_
  _atom_site_type_symbol
  _atom_site_label
  _atom_site_symmetry_multiplicity
  _atom_site_fract_x
  _atom_site_fract_y
  _atom_site_fract_z
  _atom_site_occupancy
  Ag  Ag1       1.0  0.13523  0.05887  0.07262  1.0000
  Ag  Ag2       1.0  0.63524  0.05887  0.42738  1.0000
  Ag  Ag3       1.0  0.13524  0.44113  0.57262  1.0000
  Ag  Ag4       1.0  0.36475  0.55888  0.07262  1.0000
  Ag  Ag5       1.0  0.86475  0.94112  0.92738  1.0000
  Ag  Ag6       1.0  0.36476  0.94113  0.57262  1.0000
  Ag  Ag7       1.0  0.86476  0.55888  0.42738  1.0000
  Ag  Ag8       1.0  0.63524  0.44113  0.92738  1.0000
  Ag  Ag9       1.0  0.05407  0.41944  0.13909  1.0000
  Ag  Ag10      1.0  0.55407  0.41944  0.36091  1.0000
  Ag  Ag11      1.0  0.05408  0.08056  0.63909  1.0000
  Ag  Ag12      1.0  0.44592  0.91944  0.13909  1.0000
  Ag  Ag13      1.0  0.94593  0.58056  0.86091  1.0000
  Ag  Ag14      1.0  0.44593  0.58056  0.63909  1.0000
  Ag  Ag15      1.0  0.94592  0.91944  0.36091  1.0000
  Ag  Ag16      1.0  0.55407  0.08056  0.86091  1.0000
  H   H1        1.0  0.26716  0.08303  0.34976  1.0000
  H   H2        1.0  0.76717  0.08303  0.15024  1.0000
  H   H3        1.0  0.26716  0.41697  0.84976  1.0000
  H   H4        1.0  0.23283  0.58303  0.34976  1.0000
  H   H5        1.0  0.73284  0.91697  0.65024  1.0000
  H   H6        1.0  0.23283  0.91696  0.84976  1.0000
  H   H7        1.0  0.73283  0.58303  0.15024  1.0000
  H   H8        1.0  0.76717  0.41697  0.65024  1.0000
  H   H9        1.0  0.18844  0.29408  0.28503  1.0000
  H   H10       1.0  0.68844  0.29408  0.21496  1.0000
  H   H11       1.0  0.18844  0.20592  0.78503  1.0000
  H   H12       1.0  0.31157  0.79408  0.28503  1.0000
  H   H13       1.0  0.81156  0.70592  0.71497  1.0000
  H   H14       1.0  0.31156  0.70592  0.78503  1.0000
  H   H15       1.0  0.81156  0.79407  0.21497  1.0000
  H   H16       1.0  0.68844  0.20592  0.71497  1.0000
  H   H17       1.0  0.94372  0.24340  0.28949  1.0000
  H   H18       1.0  0.44372  0.24340  0.21051  1.0000
  H   H19       1.0  0.94371  0.25660  0.78949  1.0000
  H   H20       1.0  0.55629  0.74340  0.28949  1.0000
  H   H21       1.0  0.05628  0.75660  0.71051  1.0000
  H   H22       1.0  0.55628  0.75660  0.78949  1.0000
  H   H23       1.0  0.05628  0.74340  0.21051  1.0000
  H   H24       1.0  0.44372  0.25661  0.71051  1.0000
  H   H25       1.0  0.96741  0.25984  0.41485  1.0000
  H   H26       1.0  0.46742  0.25984  0.08514  1.0000
  H   H27       1.0  0.96742  0.24016  0.91485  1.0000
  H   H28       1.0  0.53258  0.75984  0.41485  1.0000
  H   H29       1.0  0.03258  0.74017  0.58515  1.0000
  H   H30       1.0  0.53258  0.74016  0.91485  1.0000
  H   H31       1.0  0.03258  0.75984  0.08515  1.0000
  H   H32       1.0  0.46743  0.24016  0.58515  1.0000
  H   H33       1.0  0.21644  0.30639  0.40715  1.0000
  H   H34       1.0  0.71645  0.30639  0.09285  1.0000
  H   H35       1.0  0.21645  0.19361  0.90715  1.0000
  H   H36       1.0  0.28355  0.80638  0.40715  1.0000
  H   H37       1.0  0.78356  0.69362  0.59285  1.0000
  H   H38       1.0  0.28356  0.69361  0.90715  1.0000
  H   H39       1.0  0.78356  0.80639  0.09286  1.0000
  H   H40       1.0  0.71646  0.19362  0.59285  1.0000
  C   C1        1.0  0.12433  0.11115  0.22574  1.0000
  C   C2        1.0  0.62433  0.11115  0.27426  1.0000
  C   C3        1.0  0.12431  0.38884  0.72574  1.0000
  C   C4        1.0  0.37568  0.61116  0.22574  1.0000
  C   C5        1.0  0.87567  0.88885  0.77426  1.0000
  C   C6        1.0  0.37567  0.88885  0.72574  1.0000
  C   C7        1.0  0.87568  0.61115  0.27426  1.0000
  C   C8        1.0  0.62432  0.38885  0.77426  1.0000
  C   C9        1.0  0.09195  0.20078  0.28904  1.0000
  C   C10       1.0  0.59195  0.20078  0.21095  1.0000
  C   C11       1.0  0.09195  0.29922  0.78904  1.0000
  C   C12       1.0  0.40805  0.70077  0.28904  1.0000
  C   C13       1.0  0.90805  0.79922  0.71096  1.0000
  C   C14       1.0  0.40805  0.79922  0.78904  1.0000
  C   C15       1.0  0.90805  0.70077  0.21096  1.0000
  C   C16       1.0  0.59195  0.29923  0.71096  1.0000
  C   C17       1.0  0.11487  0.21566  0.41164  1.0000
  C   C18       1.0  0.61487  0.21566  0.08836  1.0000
  C   C19       1.0  0.11488  0.28434  0.91164  1.0000
  C   C20       1.0  0.38513  0.71565  0.41164  1.0000
  C   C21       1.0  0.88513  0.78435  0.58836  1.0000
  C   C22       1.0  0.38513  0.78434  0.91164  1.0000
  C   C23       1.0  0.88513  0.71566  0.08836  1.0000
  C   C24       1.0  0.61488  0.28434  0.58836  1.0000
  C   C25       1.0  0.16309  0.14228  0.47842  1.0000
  C   C26       1.0  0.66308  0.14228  0.02158  1.0000
  C   C27       1.0  0.16309  0.35772  0.97842  1.0000
  C   C28       1.0  0.33691  0.64228  0.47842  1.0000
  C   C29       1.0  0.83690  0.85773  0.52158  1.0000
  C   C30       1.0  0.33690  0.85772  0.97842  1.0000
  C   C31       1.0  0.83690  0.64228  0.02159  1.0000
  C   C32       1.0  0.66310  0.35772  0.52158  1.0000
  N   N1        1.0  0.12798  0.12139  0.35213  1.0000
  N   N2        1.0  0.62798  0.12139  0.14786  1.0000
  N   N3        1.0  0.12798  0.37861  0.85213  1.0000
  N   N4        1.0  0.37202  0.62139  0.35213  1.0000
  N   N5        1.0  0.87202  0.87862  0.64787  1.0000
  N   N6        1.0  0.37201  0.87861  0.85213  1.0000
  N   N7        1.0  0.87201  0.62139  0.14787  1.0000
  N   N8        1.0  0.62799  0.37861  0.64786  1.0000
  O   O1        1.0  0.07079  0.16921  0.16877  1.0000
  O   O2        1.0  0.57079  0.16921  0.33123  1.0000
  O   O3        1.0  0.07078  0.33078  0.66877  1.0000
  O   O4        1.0  0.42922  0.66922  0.16877  1.0000
  O   O5        1.0  0.92921  0.83078  0.83123  1.0000
  O   O6        1.0  0.42921  0.83079  0.66877  1.0000
  O   O7        1.0  0.92921  0.66921  0.33123  1.0000
  O   O8        1.0  0.57079  0.33079  0.83123  1.0000
  O   O9        1.0  0.20460  0.99263  0.23077  1.0000
  O   O10       1.0  0.70461  0.99264  0.26922  1.0000
  O   O11       1.0  0.20459  0.50737  0.73077  1.0000
  O   O12       1.0  0.29540  0.49263  0.23077  1.0000
  O   O13       1.0  0.79540  0.00736  0.76923  1.0000
  O   O14       1.0  0.29540  0.00737  0.73078  1.0000
  O   O15       1.0  0.79541  0.49262  0.26923  1.0000
  O   O16       1.0  0.70459  0.50737  0.76923  1.0000
  O   O17       1.0  0.09087  0.19395  0.53237  1.0000
  O   O18       1.0  0.59086  0.19395  0.96763  1.0000
  O   O19       1.0  0.09087  0.30605  0.03237  1.0000
  O   O20       1.0  0.40914  0.69395  0.53236  1.0000
  O   O21       1.0  0.90912  0.80606  0.46763  1.0000
  O   O22       1.0  0.40913  0.80605  0.03237  1.0000
  O   O23       1.0  0.90914  0.69395  0.96764  1.0000
  O   O24       1.0  0.59087  0.30605  0.46763  1.0000
  O   O25       1.0  0.27650  0.03530  0.47559  1.0000
  O   O26       1.0  0.77650  0.03530  0.02441  1.0000
  O   O27       1.0  0.27650  0.46470  0.97559  1.0000
  O   O28       1.0  0.22350  0.53530  0.47559  1.0000
  O   O29       1.0  0.72350  0.96471  0.52442  1.0000
  O   O30       1.0  0.22350  0.96470  0.97559  1.0000
  O   O31       1.0  0.72350  0.53530  0.02441  1.0000
  O   O32       1.0  0.77651  0.46470  0.52441  1.0000
