data_image0
_chemical_formula_structural       Sn2H8C16O8
_chemical_formula_sum              "Sn2 H8 C16 O8"
_cell_length_a       4.82281
_cell_length_b       7.52801
_cell_length_c       11.6021
_cell_angle_alpha    81.1612
_cell_angle_beta     78.0218
_cell_angle_gamma    71.453

_space_group_name_H-M_alt    "P 1"
_space_group_IT_number       1

loop_
  _space_group_symop_operation_xyz
  'x, y, z'

loop_
  _atom_site_type_symbol
  _atom_site_label
  _atom_site_symmetry_multiplicity
  _atom_site_fract_x
  _atom_site_fract_y
  _atom_site_fract_z
  _atom_site_occupancy
  Sn  Sn1       1.0  0.60998  0.22877  0.04305  1.0000
  Sn  Sn2       1.0  0.88345  0.77179  0.95723  1.0000
  H   H1        1.0  0.88171  0.11756  0.29545  1.0000
  H   H2        1.0  0.30072  0.88356  0.70304  1.0000
  H   H3        1.0  0.46207  0.04948  0.44170  1.0000
  H   H4        1.0  0.95995  0.95013  0.55662  1.0000
  H   H5        1.0  0.41583  0.72359  0.47482  1.0000
  H   H6        1.0  0.61730  0.27412  0.52500  1.0000
  H   H7        1.0  0.78026  0.47253  0.35906  1.0000
  H   H8        1.0  0.60910  0.52510  0.64247  1.0000
  C   C1        1.0  0.30751  0.88599  0.15598  1.0000
  C   C2        1.0  0.35071  0.11593  0.84369  1.0000
  C   C3        1.0  0.06326  0.83626  0.24411  1.0000
  C   C4        1.0  0.14513  0.16425  0.75569  1.0000
  C   C5        1.0  0.85667  0.97688  0.31041  1.0000
  C   C6        1.0  0.14823  0.02350  0.68866  1.0000
  C   C7        1.0  0.62432  0.93768  0.39283  1.0000
  C   C8        1.0  0.95971  0.06179  0.60621  1.0000
  C   C9        1.0  0.59866  0.75548  0.41126  1.0000
  C   C10       1.0  0.76795  0.24312  0.58863  1.0000
  C   C11       1.0  0.80440  0.61347  0.34705  1.0000
  C   C12       1.0  0.76429  0.38513  0.65383  1.0000
  C   C13       1.0  0.03575  0.65260  0.26284  1.0000
  C   C14       1.0  0.95066  0.34704  0.73785  1.0000
  C   C15       1.0  0.24587  0.49269  0.19675  1.0000
  C   C16       1.0  0.93465  0.50687  0.80428  1.0000
  O   O1        1.0  0.20871  0.47803  0.09071  1.0000
  O   O2        1.0  0.77451  0.52250  0.90982  1.0000
  O   O3        1.0  0.44002  0.37003  0.24636  1.0000
  O   O4        1.0  0.05876  0.62875  0.75519  1.0000
  O   O5        1.0  0.51139  0.75007  0.10787  1.0000
  O   O6        1.0  0.36593  0.25258  0.89274  1.0000
  O   O7        1.0  0.29083  0.06003  0.13477  1.0000
  O   O8        1.0  0.49100  0.94270  0.86401  1.0000
