data_image0
_chemical_formula_structural       Sn6H16C32O18
_chemical_formula_sum              "Sn6 H16 C32 O18"
_cell_length_a       6.96249
_cell_length_b       7.21009
_cell_length_c       19.1244
_cell_angle_alpha    83.6623
_cell_angle_beta     88.9264
_cell_angle_gamma    63.7912

_space_group_name_H-M_alt    "P 1"
_space_group_IT_number       1

loop_
  _space_group_symop_operation_xyz
  'x, y, z'

loop_
  _atom_site_type_symbol
  _atom_site_label
  _atom_site_symmetry_multiplicity
  _atom_site_fract_x
  _atom_site_fract_y
  _atom_site_fract_z
  _atom_site_occupancy
  Sn  Sn1       1.0  0.98587  0.65051  0.25950  1.0000
  Sn  Sn2       1.0  0.01414  0.34948  0.74051  1.0000
  Sn  Sn3       1.0  0.31334  0.06585  0.27213  1.0000
  Sn  Sn4       1.0  0.68666  0.93415  0.72786  1.0000
  Sn  Sn5       1.0  0.54994  0.41719  0.22707  1.0000
  Sn  Sn6       1.0  0.45006  0.58282  0.77293  1.0000
  H   H1        1.0  0.18070  0.43248  0.51810  1.0000
  H   H2        1.0  0.81928  0.56750  0.48190  1.0000
  H   H3        1.0  0.55071  0.66380  0.38417  1.0000
  H   H4        1.0  0.44929  0.33618  0.61582  1.0000
  H   H5        1.0  0.13288  0.65786  0.07340  1.0000
  H   H6        1.0  0.86713  0.34216  0.92660  1.0000
  H   H7        1.0  0.97952  0.30859  0.05272  1.0000
  H   H8        1.0  0.02048  0.69142  0.94728  1.0000
  H   H9        1.0  0.63565  0.80195  0.11792  1.0000
  H   H10       1.0  0.36436  0.19804  0.88209  1.0000
  H   H11       1.0  0.41532  0.37530  0.98031  1.0000
  H   H12       1.0  0.58468  0.62469  0.01969  1.0000
  H   H13       1.0  0.69147  0.96901  0.44858  1.0000
  H   H14       1.0  0.30852  0.03100  0.55142  1.0000
  H   H15       1.0  0.18828  0.17009  0.42646  1.0000
  H   H16       1.0  0.81171  0.82992  0.57354  1.0000
  C   C1        1.0  0.19271  0.60419  0.38622  1.0000
  C   C2        1.0  0.80730  0.39582  0.61378  1.0000
  C   C3        1.0  0.35036  0.55240  0.44495  1.0000
  C   C4        1.0  0.64962  0.44760  0.55504  1.0000
  C   C5        1.0  0.32197  0.45916  0.51003  1.0000
  C   C6        1.0  0.67804  0.54082  0.48997  1.0000
  C   C7        1.0  0.52890  0.59291  0.43516  1.0000
  C   C8        1.0  0.47110  0.40708  0.56485  1.0000
  C   C9        1.0  0.12586  0.95996  0.14551  1.0000
  C   C10       1.0  0.87413  0.04005  0.85448  1.0000
  C   C11       1.0  0.05992  0.98179  0.07050  1.0000
  C   C12       1.0  0.94008  0.01822  0.92950  1.0000
  C   C13       1.0  0.07142  0.80738  0.04109  1.0000
  C   C14       1.0  0.92857  0.19263  0.95891  1.0000
  C   C15       1.0  0.98817  0.17456  0.02909  1.0000
  C   C16       1.0  0.01183  0.82546  0.97091  1.0000
  C   C17       1.0  0.54902  0.21014  0.11347  1.0000
  C   C18       1.0  0.45098  0.78986  0.88653  1.0000
  C   C19       1.0  0.52578  0.09980  0.05528  1.0000
  C   C20       1.0  0.47422  0.90021  0.94473  1.0000
  C   C21       1.0  0.57636  0.88764  0.06607  1.0000
  C   C22       1.0  0.42364  0.11236  0.93394  1.0000
  C   C23       1.0  0.44958  0.21171  0.98878  1.0000
  C   C24       1.0  0.55042  0.78829  0.01122  1.0000
  C   C25       1.0  0.86388  0.15404  0.35398  1.0000
  C   C26       1.0  0.13612  0.84596  0.64601  1.0000
  C   C27       1.0  0.93531  0.07390  0.42913  1.0000
  C   C28       1.0  0.06470  0.92608  0.57087  1.0000
  C   C29       1.0  0.82607  0.98262  0.47154  1.0000
  C   C30       1.0  0.17393  0.01736  0.52846  1.0000
  C   C31       1.0  0.10959  0.09089  0.45836  1.0000
  C   C32       1.0  0.89041  0.90909  0.54164  1.0000
  O   O1        1.0  0.26797  0.37723  0.24908  1.0000
  O   O2        1.0  0.73203  0.62278  0.75092  1.0000
  O   O3        1.0  0.05129  0.53841  0.38974  1.0000
  O   O4        1.0  0.94872  0.46160  0.61025  1.0000
  O   O5        1.0  0.20759  0.71231  0.32918  1.0000
  O   O6        1.0  0.79243  0.28767  0.67082  1.0000
  O   O7        1.0  0.17029  0.78809  0.18368  1.0000
  O   O8        1.0  0.82969  0.21191  0.81632  1.0000
  O   O9        1.0  0.14009  0.11460  0.16843  1.0000
  O   O10       1.0  0.85991  0.88541  0.83157  1.0000
  O   O11       1.0  0.62578  0.10903  0.17489  1.0000
  O   O12       1.0  0.37422  0.89098  0.82512  1.0000
  O   O13       1.0  0.48950  0.40501  0.10317  1.0000
  O   O14       1.0  0.51051  0.59499  0.89683  1.0000
  O   O15       1.0  0.68561  0.16784  0.33252  1.0000
  O   O16       1.0  0.31439  0.83217  0.66748  1.0000
  O   O17       1.0  0.97968  0.21412  0.31279  1.0000
  O   O18       1.0  0.02032  0.78588  0.68721  1.0000
