data_image0
_chemical_formula_structural       Sn8H32C64O32
_chemical_formula_sum              "Sn8 H32 C64 O32"
_cell_length_a       4.66919
_cell_length_b       18.1809
_cell_length_c       18.1809
_cell_angle_alpha    90.0001
_cell_angle_beta     90
_cell_angle_gamma    89.9999

_space_group_name_H-M_alt    "P 1"
_space_group_IT_number       1

loop_
  _space_group_symop_operation_xyz
  'x, y, z'

loop_
  _atom_site_type_symbol
  _atom_site_label
  _atom_site_symmetry_multiplicity
  _atom_site_fract_x
  _atom_site_fract_y
  _atom_site_fract_z
  _atom_site_occupancy
  Sn  Sn1       1.0  0.50000  0.15842  0.65842  1.0000
  Sn  Sn2       1.0  0.00000  0.84158  0.15842  1.0000
  Sn  Sn3       1.0  0.50000  0.34158  0.84158  1.0000
  Sn  Sn4       1.0  0.00000  0.65842  0.34158  1.0000
  Sn  Sn5       1.0  0.50000  0.84158  0.34158  1.0000
  Sn  Sn6       1.0  0.99998  0.15842  0.84158  1.0000
  Sn  Sn7       1.0  0.50000  0.65842  0.15842  1.0000
  Sn  Sn8       1.0  1.00000  0.34158  0.65842  1.0000
  H   H1        1.0  0.36666  0.21890  0.44895  1.0000
  H   H2        1.0  0.86666  0.05104  0.21890  1.0000
  H   H3        1.0  0.36666  0.28110  0.05105  1.0000
  H   H4        1.0  0.86666  0.44895  0.28110  1.0000
  H   H5        1.0  0.13334  0.71890  0.55105  1.0000
  H   H6        1.0  0.63334  0.94896  0.71890  1.0000
  H   H7        1.0  0.13334  0.78110  0.94895  1.0000
  H   H8        1.0  0.63333  0.55105  0.78110  1.0000
  H   H9        1.0  0.63334  0.78110  0.55105  1.0000
  H   H10       1.0  0.13334  0.94896  0.78110  1.0000
  H   H11       1.0  0.63334  0.71890  0.94895  1.0000
  H   H12       1.0  0.13334  0.55104  0.71890  1.0000
  H   H13       1.0  0.86666  0.28110  0.44895  1.0000
  H   H14       1.0  0.36667  0.05105  0.28110  1.0000
  H   H15       1.0  0.86666  0.21890  0.05105  1.0000
  H   H16       1.0  0.36666  0.44896  0.21890  1.0000
  H   H17       1.0  0.54466  0.17167  0.32833  1.0000
  H   H18       1.0  0.04466  0.17167  0.17167  1.0000
  H   H19       1.0  0.54466  0.32833  0.17167  1.0000
  H   H20       1.0  0.04466  0.32833  0.32833  1.0000
  H   H21       1.0  0.95535  0.67167  0.67167  1.0000
  H   H22       1.0  0.45534  0.82833  0.67167  1.0000
  H   H23       1.0  0.95534  0.82833  0.82833  1.0000
  H   H24       1.0  0.45534  0.67167  0.82833  1.0000
  H   H25       1.0  0.78201  0.03688  0.46312  1.0000
  H   H26       1.0  0.28200  0.03688  0.03688  1.0000
  H   H27       1.0  0.78200  0.46312  0.03688  1.0000
  H   H28       1.0  0.28200  0.46312  0.46312  1.0000
  H   H29       1.0  0.71800  0.53688  0.53688  1.0000
  H   H30       1.0  0.21800  0.96312  0.53689  1.0000
  H   H31       1.0  0.71800  0.96312  0.96312  1.0000
  H   H32       1.0  0.21800  0.53688  0.96312  1.0000
  C   C1        1.0  0.95559  0.15629  0.53647  1.0000
  C   C2        1.0  0.45558  0.96353  0.15629  1.0000
  C   C3        1.0  0.95558  0.34371  0.96353  1.0000
  C   C4        1.0  0.45559  0.53647  0.34371  1.0000
  C   C5        1.0  0.54442  0.65629  0.46353  1.0000
  C   C6        1.0  0.04442  0.03647  0.65629  1.0000
  C   C7        1.0  0.54442  0.84371  0.03647  1.0000
  C   C8        1.0  0.04441  0.46353  0.84371  1.0000
  C   C9        1.0  0.04441  0.84371  0.46353  1.0000
  C   C10       1.0  0.54442  0.03647  0.84371  1.0000
  C   C11       1.0  0.04441  0.65629  0.03647  1.0000
  C   C12       1.0  0.54441  0.46353  0.65629  1.0000
  C   C13       1.0  0.45559  0.34371  0.53647  1.0000
  C   C14       1.0  0.95559  0.96353  0.34371  1.0000
  C   C15       1.0  0.45558  0.15629  0.96353  1.0000
  C   C16       1.0  0.95558  0.53647  0.15629  1.0000
  C   C17       1.0  0.06470  0.13056  0.46373  1.0000
  C   C18       1.0  0.56469  0.03627  0.13056  1.0000
  C   C19       1.0  0.06469  0.36944  0.03627  1.0000
  C   C20       1.0  0.56469  0.46373  0.36944  1.0000
  C   C21       1.0  0.43531  0.63056  0.53627  1.0000
  C   C22       1.0  0.93531  0.96373  0.63057  1.0000
  C   C23       1.0  0.43531  0.86944  0.96373  1.0000
  C   C24       1.0  0.93530  0.53627  0.86944  1.0000
  C   C25       1.0  0.93531  0.86944  0.53627  1.0000
  C   C26       1.0  0.43531  0.96373  0.86944  1.0000
  C   C27       1.0  0.93530  0.63056  0.96373  1.0000
  C   C28       1.0  0.43530  0.53627  0.63056  1.0000
  C   C29       1.0  0.56469  0.36944  0.46373  1.0000
  C   C30       1.0  0.06470  0.03627  0.36944  1.0000
  C   C31       1.0  0.56469  0.13056  0.03627  1.0000
  C   C32       1.0  0.06469  0.46373  0.13056  1.0000
  C   C33       1.0  0.27941  0.16856  0.42554  1.0000
  C   C34       1.0  0.77941  0.07447  0.16856  1.0000
  C   C35       1.0  0.27941  0.33144  0.07447  1.0000
  C   C36       1.0  0.77941  0.42553  0.33144  1.0000
  C   C37       1.0  0.22059  0.66856  0.57447  1.0000
  C   C38       1.0  0.72059  0.92553  0.66856  1.0000
  C   C39       1.0  0.22059  0.83144  0.92553  1.0000
  C   C40       1.0  0.72058  0.57447  0.83144  1.0000
  C   C41       1.0  0.72059  0.83144  0.57447  1.0000
  C   C42       1.0  0.22059  0.92554  0.83144  1.0000
  C   C43       1.0  0.72059  0.66856  0.92553  1.0000
  C   C44       1.0  0.22059  0.57447  0.66856  1.0000
  C   C45       1.0  0.77941  0.33144  0.42553  1.0000
  C   C46       1.0  0.27941  0.07447  0.33144  1.0000
  C   C47       1.0  0.77941  0.16856  0.07447  1.0000
  C   C48       1.0  0.27941  0.42553  0.16856  1.0000
  C   C49       1.0  0.38016  0.14153  0.35847  1.0000
  C   C50       1.0  0.88016  0.14153  0.14153  1.0000
  C   C51       1.0  0.38016  0.35847  0.14153  1.0000
  C   C52       1.0  0.88016  0.35847  0.35847  1.0000
  C   C53       1.0  0.11984  0.64153  0.64153  1.0000
  C   C54       1.0  0.61984  0.85847  0.64154  1.0000
  C   C55       1.0  0.11984  0.85847  0.85847  1.0000
  C   C56       1.0  0.61983  0.64153  0.85846  1.0000
  C   C57       1.0  0.95198  0.06581  0.43419  1.0000
  C   C58       1.0  0.45197  0.06581  0.06581  1.0000
  C   C59       1.0  0.95196  0.43419  0.06581  1.0000
  C   C60       1.0  0.45197  0.43419  0.43419  1.0000
  C   C61       1.0  0.54803  0.56580  0.56580  1.0000
  C   C62       1.0  0.04803  0.93420  0.56581  1.0000
  C   C63       1.0  0.54803  0.93419  0.93419  1.0000
  C   C64       1.0  0.04802  0.56581  0.93419  1.0000
  O   O1        1.0  0.10746  0.19707  0.57765  1.0000
  O   O2        1.0  0.60746  0.92235  0.19707  1.0000
  O   O3        1.0  0.10746  0.30293  0.92235  1.0000
  O   O4        1.0  0.60746  0.57765  0.30293  1.0000
  O   O5        1.0  0.39255  0.69707  0.42235  1.0000
  O   O6        1.0  0.89254  0.07765  0.69707  1.0000
  O   O7        1.0  0.39255  0.80293  0.07765  1.0000
  O   O8        1.0  0.89253  0.42235  0.80293  1.0000
  O   O9        1.0  0.89253  0.80293  0.42236  1.0000
  O   O10       1.0  0.39255  0.07765  0.80293  1.0000
  O   O11       1.0  0.89253  0.69707  0.07765  1.0000
  O   O12       1.0  0.39254  0.42235  0.69707  1.0000
  O   O13       1.0  0.60747  0.30293  0.57765  1.0000
  O   O14       1.0  0.10746  0.92235  0.30293  1.0000
  O   O15       1.0  0.60745  0.19707  0.92235  1.0000
  O   O16       1.0  0.10746  0.57765  0.19707  1.0000
  O   O17       1.0  0.70365  0.13301  0.55325  1.0000
  O   O18       1.0  0.20364  0.94676  0.13301  1.0000
  O   O19       1.0  0.70364  0.36699  0.94675  1.0000
  O   O20       1.0  0.20364  0.55325  0.36699  1.0000
  O   O21       1.0  0.79635  0.63301  0.44675  1.0000
  O   O22       1.0  0.29636  0.05325  0.63301  1.0000
  O   O23       1.0  0.79636  0.86699  0.05325  1.0000
  O   O24       1.0  0.29635  0.44675  0.86699  1.0000
  O   O25       1.0  0.29635  0.86699  0.44675  1.0000
  O   O26       1.0  0.79636  0.05325  0.86699  1.0000
  O   O27       1.0  0.29635  0.63301  0.05325  1.0000
  O   O28       1.0  0.79635  0.44675  0.63301  1.0000
  O   O29       1.0  0.20365  0.36699  0.55325  1.0000
  O   O30       1.0  0.70364  0.94675  0.36699  1.0000
  O   O31       1.0  0.20364  0.13301  0.94675  1.0000
  O   O32       1.0  0.70364  0.55325  0.13301  1.0000
