data_image0
_chemical_formula_structural       Ag4H36C28N12O8
_chemical_formula_sum              "Ag4 H36 C28 N12 O8"
_cell_length_a       8.15126
_cell_length_b       9.33501
_cell_length_c       12.1642
_cell_angle_alpha    109.358
_cell_angle_beta     90.0007
_cell_angle_gamma    89.9999

_space_group_name_H-M_alt    "P 1"
_space_group_IT_number       1

loop_
  _space_group_symop_operation_xyz
  'x, y, z'

loop_
  _atom_site_type_symbol
  _atom_site_label
  _atom_site_symmetry_multiplicity
  _atom_site_fract_x
  _atom_site_fract_y
  _atom_site_fract_z
  _atom_site_occupancy
  Ag  Ag1       1.0  0.52541  0.00000  0.75000  1.0000
  Ag  Ag2       1.0  0.47458  1.00000  0.25000  1.0000
  Ag  Ag3       1.0  0.82948  0.00001  0.25000  1.0000
  Ag  Ag4       1.0  0.17052  1.00000  0.75000  1.0000
  H   H1        1.0  0.74499  0.71736  0.74193  1.0000
  H   H2        1.0  0.74498  0.28265  0.75807  1.0000
  H   H3        1.0  0.25502  0.28265  0.25807  1.0000
  H   H4        1.0  0.25502  0.71734  0.24193  1.0000
  H   H5        1.0  0.94667  0.60035  0.84734  1.0000
  H   H6        1.0  0.94666  0.39965  0.65266  1.0000
  H   H7        1.0  0.05334  0.39966  0.15266  1.0000
  H   H8        1.0  0.05333  0.60033  0.34733  1.0000
  H   H9        1.0  0.10318  0.81460  0.13469  1.0000
  H   H10       1.0  0.10317  0.18540  0.36532  1.0000
  H   H11       1.0  0.89682  0.18542  0.86532  1.0000
  H   H12       1.0  0.89683  0.81459  0.63468  1.0000
  H   H13       1.0  0.94540  0.68458  0.13956  1.0000
  H   H14       1.0  0.94539  0.31542  0.36044  1.0000
  H   H15       1.0  0.05461  0.31543  0.86044  1.0000
  H   H16       1.0  0.05461  0.68457  0.63956  1.0000
  H   H17       1.0  0.09709  0.63097  0.02595  1.0000
  H   H18       1.0  0.09708  0.36904  0.47405  1.0000
  H   H19       1.0  0.90292  0.36905  0.97405  1.0000
  H   H20       1.0  0.90291  0.63095  0.52594  1.0000
  H   H21       1.0  0.45220  0.56523  0.90261  1.0000
  H   H22       1.0  0.45218  0.43477  0.59739  1.0000
  H   H23       1.0  0.54782  0.43477  0.09738  1.0000
  H   H24       1.0  0.54781  0.56522  0.40262  1.0000
  H   H25       1.0  0.31300  0.52000  0.99512  1.0000
  H   H26       1.0  0.31298  0.48001  0.50488  1.0000
  H   H27       1.0  0.68702  0.48000  0.00488  1.0000
  H   H28       1.0  0.68701  0.51998  0.49512  1.0000
  H   H29       1.0  0.61459  0.16881  0.99627  1.0000
  H   H30       1.0  0.61459  0.83119  0.50372  1.0000
  H   H31       1.0  0.38541  0.83120  0.00373  1.0000
  H   H32       1.0  0.38541  0.16879  0.49627  1.0000
  H   H33       1.0  0.69345  0.17961  0.13491  1.0000
  H   H34       1.0  0.69346  0.82040  0.36509  1.0000
  H   H35       1.0  0.30655  0.82040  0.86509  1.0000
  H   H36       1.0  0.30654  0.17959  0.63491  1.0000
  C   C1        1.0  0.74722  0.98469  0.99689  1.0000
  C   C2        1.0  0.74722  0.01533  0.50311  1.0000
  C   C3        1.0  0.25278  0.01533  0.00312  1.0000
  C   C4        1.0  0.25278  0.98466  0.49688  1.0000
  C   C5        1.0  0.78003  0.77496  0.83260  1.0000
  C   C6        1.0  0.78003  0.22505  0.66741  1.0000
  C   C7        1.0  0.21997  0.22506  0.16741  1.0000
  C   C8        1.0  0.21996  0.77494  0.33259  1.0000
  C   C9        1.0  0.88673  0.70839  0.89083  1.0000
  C   C10       1.0  0.88673  0.29162  0.60917  1.0000
  C   C11       1.0  0.11327  0.29162  0.10917  1.0000
  C   C12       1.0  0.11327  0.70837  0.39082  1.0000
  C   C13       1.0  0.91445  0.78671  0.00861  1.0000
  C   C14       1.0  0.91445  0.21329  0.49139  1.0000
  C   C15       1.0  0.08555  0.21330  0.99139  1.0000
  C   C16       1.0  0.08554  0.78669  0.50860  1.0000
  C   C17       1.0  0.02197  0.72467  0.08095  1.0000
  C   C18       1.0  0.02197  0.27534  0.41905  1.0000
  C   C19       1.0  0.97803  0.27535  0.91905  1.0000
  C   C20       1.0  0.97803  0.72465  0.58095  1.0000
  C   C21       1.0  0.41764  0.32868  0.86710  1.0000
  C   C22       1.0  0.41764  0.67133  0.63290  1.0000
  C   C23       1.0  0.58237  0.67132  0.13290  1.0000
  C   C24       1.0  0.58235  0.32866  0.36710  1.0000
  C   C25       1.0  0.43379  0.48908  0.95384  1.0000
  C   C26       1.0  0.43378  0.51092  0.54616  1.0000
  C   C27       1.0  0.56622  0.51092  0.04616  1.0000
  C   C28       1.0  0.56621  0.48907  0.45384  1.0000
  N   N1        1.0  0.68491  0.12318  0.04648  1.0000
  N   N2        1.0  0.68492  0.87683  0.45351  1.0000
  N   N3        1.0  0.31508  0.87684  0.95352  1.0000
  N   N4        1.0  0.31508  0.12315  0.54648  1.0000
  N   N5        1.0  0.71395  0.91165  0.88225  1.0000
  N   N6        1.0  0.71395  0.08836  0.61774  1.0000
  N   N7        1.0  0.28605  0.08837  0.11775  1.0000
  N   N8        1.0  0.28605  0.91162  0.38225  1.0000
  N   N9        1.0  0.84159  0.92182  0.06240  1.0000
  N   N10       1.0  0.84158  0.07819  0.43760  1.0000
  N   N11       1.0  0.15842  0.07820  0.93760  1.0000
  N   N12       1.0  0.15841  0.92180  0.56239  1.0000
  O   O1        1.0  0.31430  0.30584  0.78603  1.0000
  O   O2        1.0  0.31431  0.69417  0.71397  1.0000
  O   O3        1.0  0.68572  0.69416  0.21397  1.0000
  O   O4        1.0  0.68568  0.30583  0.28603  1.0000
  O   O5        1.0  0.51167  0.22645  0.88316  1.0000
  O   O6        1.0  0.51168  0.77355  0.61684  1.0000
  O   O7        1.0  0.48831  0.77355  0.11684  1.0000
  O   O8        1.0  0.48831  0.22645  0.38316  1.0000
