data_image0
_chemical_formula_structural       Ag4H40C36N12O10
_chemical_formula_sum              "Ag4 H40 C36 N12 O10"
_cell_length_a       8.91236
_cell_length_b       11.2487
_cell_length_c       12.1895
_cell_angle_alpha    112.345
_cell_angle_beta     97.9373
_cell_angle_gamma    109.594

_space_group_name_H-M_alt    "P 1"
_space_group_IT_number       1

loop_
  _space_group_symop_operation_xyz
  'x, y, z'

loop_
  _atom_site_type_symbol
  _atom_site_label
  _atom_site_symmetry_multiplicity
  _atom_site_fract_x
  _atom_site_fract_y
  _atom_site_fract_z
  _atom_site_occupancy
  Ag  Ag1       1.0  0.96745  0.65113  0.27584  1.0000
  Ag  Ag2       1.0  0.03255  0.34886  0.72416  1.0000
  Ag  Ag3       1.0  0.33663  0.20848  0.80957  1.0000
  Ag  Ag4       1.0  0.66337  0.79152  0.19043  1.0000
  H   H1        1.0  0.31907  0.69451  0.37663  1.0000
  H   H2        1.0  0.68094  0.30549  0.62337  1.0000
  H   H3        1.0  0.58560  0.86255  0.55267  1.0000
  H   H4        1.0  0.41440  0.13745  0.44733  1.0000
  H   H5        1.0  0.63537  0.20403  0.77369  1.0000
  H   H6        1.0  0.36463  0.79597  0.22631  1.0000
  H   H7        1.0  0.72851  0.08186  0.73945  1.0000
  H   H8        1.0  0.27149  0.91814  0.26055  1.0000
  H   H9        1.0  0.60939  0.09346  0.84678  1.0000
  H   H10       1.0  0.39061  0.90654  0.15322  1.0000
  H   H11       1.0  0.33334  0.10032  0.01509  1.0000
  H   H12       1.0  0.66667  0.89967  0.98491  1.0000
  H   H13       1.0  0.53069  0.15125  0.21268  1.0000
  H   H14       1.0  0.46932  0.84875  0.78732  1.0000
  H   H15       1.0  0.93950  0.48676  0.37456  1.0000
  H   H16       1.0  0.06050  0.51324  0.62544  1.0000
  H   H17       1.0  0.87495  0.30333  0.33361  1.0000
  H   H18       1.0  0.12505  0.69667  0.66639  1.0000
  H   H19       1.0  0.77112  0.39670  0.41962  1.0000
  H   H20       1.0  0.22889  0.60331  0.58039  1.0000
  H   H21       1.0  0.99067  0.07806  0.21782  1.0000
  H   H22       1.0  0.00932  0.92194  0.78218  1.0000
  H   H23       1.0  0.99907  0.23502  0.11784  1.0000
  H   H24       1.0  0.00093  0.76498  0.88216  1.0000
  H   H25       1.0  0.69526  0.60500  0.71213  1.0000
  H   H26       1.0  0.30474  0.39499  0.28787  1.0000
  H   H27       1.0  0.76502  0.71506  0.57302  1.0000
  H   H28       1.0  0.23498  0.28494  0.42698  1.0000
  H   H29       1.0  0.92632  0.84119  0.49227  1.0000
  H   H30       1.0  0.07368  0.15881  0.50773  1.0000
  H   H31       1.0  0.03288  0.99414  0.63831  1.0000
  H   H32       1.0  0.96712  0.00586  0.36169  1.0000
  H   H33       1.0  0.60013  0.45501  0.92634  1.0000
  H   H34       1.0  0.39987  0.54498  0.07366  1.0000
  H   H35       1.0  0.79403  0.56130  0.04372  1.0000
  H   H36       1.0  0.20597  0.43870  0.95628  1.0000
  H   H37       1.0  0.24137  0.51841  0.20827  1.0000
  H   H38       1.0  0.75863  0.48159  0.79173  1.0000
  H   H39       1.0  0.06770  0.42438  0.10458  1.0000
  H   H40       1.0  0.93230  0.57561  0.89542  1.0000
  C   C1        1.0  0.17880  0.90120  0.55985  1.0000
  C   C2        1.0  0.82120  0.09880  0.44015  1.0000
  C   C3        1.0  0.32287  0.78180  0.45831  1.0000
  C   C4        1.0  0.67713  0.21820  0.54169  1.0000
  C   C5        1.0  0.46996  0.87459  0.55530  1.0000
  C   C6        1.0  0.53004  0.12541  0.44470  1.0000
  C   C7        1.0  0.46427  0.98699  0.65401  1.0000
  C   C8        1.0  0.53573  0.01301  0.34599  1.0000
  C   C9        1.0  0.61833  0.09706  0.75891  1.0000
  C   C10       1.0  0.38167  0.90294  0.24109  1.0000
  C   C11       1.0  0.63320  0.39921  0.06571  1.0000
  C   C12       1.0  0.36680  0.60079  0.93429  1.0000
  C   C13       1.0  0.45203  0.19472  0.06198  1.0000
  C   C14       1.0  0.54797  0.80528  0.93802  1.0000
  C   C15       1.0  0.56055  0.22232  0.17063  1.0000
  C   C16       1.0  0.43945  0.77768  0.82937  1.0000
  C   C17       1.0  0.70874  0.34771  0.22703  1.0000
  C   C18       1.0  0.29127  0.65229  0.77297  1.0000
  C   C19       1.0  0.83103  0.38657  0.34563  1.0000
  C   C20       1.0  0.16898  0.61344  0.65438  1.0000
  C   C21       1.0  0.99498  0.04404  0.12230  1.0000
  C   C22       1.0  0.00502  0.95597  0.87770  1.0000
  C   C23       1.0  0.99606  0.91131  0.05703  1.0000
  C   C24       1.0  0.00394  0.08870  0.94297  1.0000
  C   C25       1.0  0.99846  0.13163  0.06603  1.0000
  C   C26       1.0  0.00154  0.86837  0.93397  1.0000
  C   C27       1.0  0.98677  0.81472  0.11651  1.0000
  C   C28       1.0  0.01323  0.18528  0.88349  1.0000
  C   C29       1.0  0.60961  0.55929  0.61924  1.0000
  C   C30       1.0  0.39039  0.44071  0.38076  1.0000
  C   C31       1.0  0.46062  0.43734  0.57879  1.0000
  C   C32       1.0  0.53938  0.56266  0.42121  1.0000
  C   C33       1.0  0.64866  0.62089  0.54123  1.0000
  C   C34       1.0  0.35134  0.37911  0.45877  1.0000
  C   C35       1.0  0.42149  0.36845  0.66192  1.0000
  C   C36       1.0  0.57851  0.63155  0.33808  1.0000
  N   N1        1.0  0.03375  0.90943  0.56602  1.0000
  N   N2        1.0  0.96624  0.09057  0.43398  1.0000
  N   N3        1.0  0.17833  0.79404  0.45737  1.0000
  N   N4        1.0  0.82167  0.20596  0.54263  1.0000
  N   N5        1.0  0.31965  0.99933  0.65655  1.0000
  N   N6        1.0  0.68035  0.00067  0.34345  1.0000
  N   N7        1.0  0.67317  0.48565  0.01349  1.0000
  N   N8        1.0  0.32684  0.51435  0.98651  1.0000
  N   N9        1.0  0.74260  0.43630  0.17569  1.0000
  N   N10       1.0  0.25740  0.56370  0.82431  1.0000
  N   N11       1.0  0.48571  0.28045  0.00759  1.0000
  N   N12       1.0  0.51430  0.71955  0.99241  1.0000
  O   O1        1.0  0.97347  0.85603  0.22714  1.0000
  O   O2        1.0  0.02653  0.14397  0.77286  1.0000
  O   O3        1.0  0.11966  0.48663  0.19521  1.0000
  O   O4        1.0  0.88034  0.51337  0.80478  1.0000
  O   O5        1.0  0.99148  0.69664  0.05629  1.0000
  O   O6        1.0  0.00852  0.30337  0.94371  1.0000
  O   O7        1.0  0.27816  0.26807  0.62963  1.0000
  O   O8        1.0  0.72184  0.73193  0.37037  1.0000
  O   O9        1.0  0.53729  0.41238  0.76138  1.0000
  O   O10       1.0  0.46271  0.58762  0.23862  1.0000
