data_image0
_chemical_formula_structural       Hg4H62C38N6Cl8O4
_chemical_formula_sum              "Hg4 H62 C38 N6 Cl8 O4"
_cell_length_a       7.16552
_cell_length_b       11.143
_cell_length_c       17.5316
_cell_angle_alpha    80.4935
_cell_angle_beta     84.3026
_cell_angle_gamma    73.1168

_space_group_name_H-M_alt    "P 1"
_space_group_IT_number       1

loop_
  _space_group_symop_operation_xyz
  'x, y, z'

loop_
  _atom_site_type_symbol
  _atom_site_label
  _atom_site_symmetry_multiplicity
  _atom_site_fract_x
  _atom_site_fract_y
  _atom_site_fract_z
  _atom_site_occupancy
  Hg  Hg1       1.0  0.08123  0.38436  0.59690  1.0000
  Hg  Hg2       1.0  0.91877  0.61564  0.40310  1.0000
  Hg  Hg3       1.0  0.78392  0.90527  0.50331  1.0000
  Hg  Hg4       1.0  0.21609  0.09472  0.49669  1.0000
  H   H1        1.0  0.67443  0.56864  0.55651  1.0000
  H   H2        1.0  0.32557  0.43136  0.44349  1.0000
  H   H3        1.0  0.33706  0.63006  0.61585  1.0000
  H   H4        1.0  0.66294  0.36993  0.38415  1.0000
  H   H5        1.0  0.85961  0.28277  0.74028  1.0000
  H   H6        1.0  0.14040  0.71723  0.25972  1.0000
  H   H7        1.0  0.45858  0.22083  0.73240  1.0000
  H   H8        1.0  0.54141  0.77917  0.26760  1.0000
  H   H9        1.0  0.14890  0.21740  0.80807  1.0000
  H   H10       1.0  0.85111  0.78259  0.19193  1.0000
  H   H11       1.0  0.25253  0.05499  0.84710  1.0000
  H   H12       1.0  0.74748  0.94500  0.15290  1.0000
  H   H13       1.0  0.22610  0.09866  0.74580  1.0000
  H   H14       1.0  0.77390  0.90134  0.25420  1.0000
  H   H15       1.0  0.76640  0.05282  0.76061  1.0000
  H   H16       1.0  0.23360  0.94719  0.23939  1.0000
  H   H17       1.0  0.59552  0.99411  0.72255  1.0000
  H   H18       1.0  0.40448  0.00590  0.27745  1.0000
  H   H19       1.0  0.63582  0.95781  0.82321  1.0000
  H   H20       1.0  0.36419  0.04220  0.17679  1.0000
  H   H21       1.0  0.48113  0.05287  0.92204  1.0000
  H   H22       1.0  0.51886  0.94714  0.07797  1.0000
  H   H23       1.0  0.20092  0.23074  0.95761  1.0000
  H   H24       1.0  0.79907  0.76926  0.04239  1.0000
  H   H25       1.0  0.36530  0.30040  0.99162  1.0000
  H   H26       1.0  0.63468  0.69961  0.00838  1.0000
  H   H27       1.0  0.34141  0.15023  0.03836  1.0000
  H   H28       1.0  0.65858  0.84978  0.96164  1.0000
  H   H29       1.0  0.82192  0.05722  0.92022  1.0000
  H   H30       1.0  0.17807  0.94278  0.07979  1.0000
  H   H31       1.0  0.71828  0.05757  0.01666  1.0000
  H   H32       1.0  0.28172  0.94243  0.98335  1.0000
  H   H33       1.0  0.74886  0.20063  0.96195  1.0000
  H   H34       1.0  0.25114  0.79937  0.03805  1.0000
  H   H35       1.0  0.91240  0.71987  0.85874  1.0000
  H   H36       1.0  0.08759  0.28013  0.14125  1.0000
  H   H37       1.0  0.01028  0.50774  0.93662  1.0000
  H   H38       1.0  0.98971  0.49227  0.06338  1.0000
  H   H39       1.0  0.91980  0.44192  0.86685  1.0000
  H   H40       1.0  0.08019  0.55808  0.13315  1.0000
  H   H41       1.0  0.75568  0.55320  0.92019  1.0000
  H   H42       1.0  0.24431  0.44680  0.07981  1.0000
  H   H43       1.0  0.80725  0.74865  0.72321  1.0000
  H   H44       1.0  0.19275  0.25135  0.27678  1.0000
  H   H45       1.0  0.63404  0.70998  0.79534  1.0000
  H   H46       1.0  0.36596  0.29002  0.20466  1.0000
  H   H47       1.0  0.78158  0.59269  0.74026  1.0000
  H   H48       1.0  0.21843  0.40731  0.25974  1.0000
  H   H49       1.0  0.39940  0.64647  0.78363  1.0000
  H   H50       1.0  0.60061  0.35352  0.21638  1.0000
  H   H51       1.0  0.32921  0.59601  0.92374  1.0000
  H   H52       1.0  0.67079  0.40399  0.07626  1.0000
  H   H53       1.0  0.13019  0.73736  0.92218  1.0000
  H   H54       1.0  0.86981  0.26264  0.07782  1.0000
  H   H55       1.0  0.37135  0.74742  0.89938  1.0000
  H   H56       1.0  0.62865  0.25258  0.10062  1.0000
  H   H57       1.0  0.16911  0.81919  0.70050  1.0000
  H   H58       1.0  0.83090  0.18081  0.29950  1.0000
  H   H59       1.0  0.27885  0.87921  0.76634  1.0000
  H   H60       1.0  0.72116  0.12079  0.23366  1.0000
  H   H61       1.0  0.03358  0.87340  0.78469  1.0000
  H   H62       1.0  0.96643  0.12660  0.21531  1.0000
  C   C1        1.0  0.63598  0.51856  0.61178  1.0000
  C   C2        1.0  0.36402  0.48144  0.38821  1.0000
  C   C3        1.0  0.44880  0.55387  0.64616  1.0000
  C   C4        1.0  0.55119  0.44613  0.35384  1.0000
  C   C5        1.0  0.40691  0.48925  0.71806  1.0000
  C   C6        1.0  0.59309  0.51075  0.28194  1.0000
  C   C7        1.0  0.55573  0.38923  0.75325  1.0000
  C   C8        1.0  0.44428  0.61076  0.24675  1.0000
  C   C9        1.0  0.73913  0.35861  0.71494  1.0000
  C   C10       1.0  0.26087  0.64139  0.28506  1.0000
  C   C11       1.0  0.53186  0.32865  0.83582  1.0000
  C   C12       1.0  0.46814  0.67136  0.16418  1.0000
  C   C13       1.0  0.46205  0.15198  0.78520  1.0000
  C   C14       1.0  0.53794  0.84802  0.21480  1.0000
  C   C15       1.0  0.25996  0.12931  0.79797  1.0000
  C   C16       1.0  0.74005  0.87069  0.20203  1.0000
  C   C17       1.0  0.62460  0.03221  0.77262  1.0000
  C   C18       1.0  0.37540  0.96780  0.22737  1.0000
  C   C19       1.0  0.50766  0.14300  0.92810  1.0000
  C   C20       1.0  0.49233  0.85700  0.07190  1.0000
  C   C21       1.0  0.34383  0.21074  0.98218  1.0000
  C   C22       1.0  0.65616  0.78927  0.01782  1.0000
  C   C23       1.0  0.71181  0.11299  0.95853  1.0000
  C   C24       1.0  0.28818  0.88701  0.04147  1.0000
  C   C25       1.0  0.20189  0.51286  0.75397  1.0000
  C   C26       1.0  0.79811  0.48714  0.24603  1.0000
  C   C27       1.0  0.92963  0.63629  0.83018  1.0000
  C   C28       1.0  0.07037  0.36371  0.16982  1.0000
  C   C29       1.0  0.90306  0.52799  0.89234  1.0000
  C   C30       1.0  0.09693  0.47201  0.10766  1.0000
  C   C31       1.0  0.77995  0.67383  0.76815  1.0000
  C   C32       1.0  0.22005  0.32618  0.23185  1.0000
  C   C33       1.0  0.25281  0.69072  0.80755  1.0000
  C   C34       1.0  0.74719  0.30928  0.19245  1.0000
  C   C35       1.0  0.27059  0.69218  0.89345  1.0000
  C   C36       1.0  0.72941  0.30782  0.10655  1.0000
  C   C37       1.0  0.17871  0.82285  0.76208  1.0000
  C   C38       1.0  0.82130  0.17714  0.23792  1.0000
  N   N1        1.0  0.77741  0.42285  0.64606  1.0000
  N   N2        1.0  0.22259  0.57715  0.35394  1.0000
  N   N3        1.0  0.50224  0.21237  0.84844  1.0000
  N   N4        1.0  0.49776  0.78762  0.15157  1.0000
  N   N5        1.0  0.13245  0.60858  0.79574  1.0000
  N   N6        1.0  0.86755  0.39142  0.20426  1.0000
  Cl  Cl1       1.0  0.03254  0.63631  0.54954  1.0000
  Cl  Cl2       1.0  0.96746  0.36368  0.45046  1.0000
  Cl  Cl3       1.0  0.41260  0.26668  0.57943  1.0000
  Cl  Cl4       1.0  0.58740  0.73332  0.42057  1.0000
  Cl  Cl5       1.0  0.02344  0.92850  0.40458  1.0000
  Cl  Cl6       1.0  0.97656  0.07150  0.59542  1.0000
  Cl  Cl7       1.0  0.53645  0.89354  0.59998  1.0000
  Cl  Cl8       1.0  0.46355  0.10646  0.40001  1.0000
  O   O1        1.0  0.54882  0.38826  0.88772  1.0000
  O   O2        1.0  0.45118  0.61174  0.11228  1.0000
  O   O3        1.0  0.10816  0.43851  0.74308  1.0000
  O   O4        1.0  0.89185  0.56149  0.25692  1.0000
