data_image0
_chemical_formula_structural       Zn2H24C32O12
_chemical_formula_sum              "Zn2 H24 C32 O12"
_cell_length_a       7.58226
_cell_length_b       8.13798
_cell_length_c       12.5986
_cell_angle_alpha    108.798
_cell_angle_beta     97.027
_cell_angle_gamma    90.0544

_space_group_name_H-M_alt    "P 1"
_space_group_IT_number       1

loop_
  _space_group_symop_operation_xyz
  'x, y, z'

loop_
  _atom_site_type_symbol
  _atom_site_label
  _atom_site_symmetry_multiplicity
  _atom_site_fract_x
  _atom_site_fract_y
  _atom_site_fract_z
  _atom_site_occupancy
  Zn  Zn1       1.0  0.75000  0.94921  0.00003  1.0000
  Zn  Zn2       1.0  0.25000  0.05078  0.99997  1.0000
  H   H1        1.0  0.35547  0.03264  0.33081  1.0000
  H   H2        1.0  0.14447  0.70200  0.66916  1.0000
  H   H3        1.0  0.64454  0.96736  0.66919  1.0000
  H   H4        1.0  0.85552  0.29800  0.33084  1.0000
  H   H5        1.0  0.94681  0.79308  0.38049  1.0000
  H   H6        1.0  0.55301  0.41208  0.61961  1.0000
  H   H7        1.0  0.05319  0.20693  0.61951  1.0000
  H   H8        1.0  0.44699  0.58792  0.38039  1.0000
  H   H9        1.0  0.78278  0.89104  0.54059  1.0000
  H   H10       1.0  0.71719  0.35009  0.45959  1.0000
  H   H11       1.0  0.21722  0.10895  0.45941  1.0000
  H   H12       1.0  0.28280  0.64991  0.54042  1.0000
  H   H13       1.0  0.04720  0.68867  0.09845  1.0000
  H   H14       1.0  0.45197  0.59032  0.90149  1.0000
  H   H15       1.0  0.95279  0.31132  0.90155  1.0000
  H   H16       1.0  0.54804  0.40967  0.09852  1.0000
  H   H17       1.0  0.09827  0.83047  0.24103  1.0000
  H   H18       1.0  0.40131  0.58959  0.75882  1.0000
  H   H19       1.0  0.90174  0.16952  0.75897  1.0000
  H   H20       1.0  0.59869  0.41041  0.24118  1.0000
  H   H21       1.0  0.00227  0.61597  0.21360  1.0000
  H   H22       1.0  0.49679  0.40260  0.78648  1.0000
  H   H23       1.0  0.99772  0.38403  0.78640  1.0000
  H   H24       1.0  0.50322  0.59740  0.21353  1.0000
  C   C1        1.0  0.55158  0.97059  0.45145  1.0000
  C   C2        1.0  0.94842  0.51902  0.54858  1.0000
  C   C3        1.0  0.44842  0.02942  0.54855  1.0000
  C   C4        1.0  0.05157  0.48098  0.45141  1.0000
  C   C5        1.0  0.48440  0.97909  0.34484  1.0000
  C   C6        1.0  0.01552  0.63423  0.65517  1.0000
  C   C7        1.0  0.51560  0.02092  0.65516  1.0000
  C   C8        1.0  0.98447  0.36577  0.34483  1.0000
  C   C9        1.0  0.57408  0.91900  0.24959  1.0000
  C   C10       1.0  0.92568  0.66943  0.75042  1.0000
  C   C11       1.0  0.42593  0.08101  0.75042  1.0000
  C   C12       1.0  0.07432  0.33057  0.24958  1.0000
  C   C13       1.0  0.74510  0.85079  0.26160  1.0000
  C   C14       1.0  0.75461  0.58903  0.73843  1.0000
  C   C15       1.0  0.25490  0.14922  0.73840  1.0000
  C   C16       1.0  0.24539  0.41097  0.26157  1.0000
  C   C17       1.0  0.81665  0.84541  0.36872  1.0000
  C   C18       1.0  0.68323  0.47629  0.63139  1.0000
  C   C19       1.0  0.18336  0.15460  0.63128  1.0000
  C   C20       1.0  0.31677  0.52371  0.36861  1.0000
  C   C21       1.0  0.72136  0.90219  0.46049  1.0000
  C   C22       1.0  0.77861  0.44136  0.53962  1.0000
  C   C23       1.0  0.27864  0.09781  0.53951  1.0000
  C   C24       1.0  0.22138  0.55864  0.46037  1.0000
  C   C25       1.0  0.48019  0.92549  0.14009  1.0000
  C   C26       1.0  0.01949  0.78545  0.85988  1.0000
  C   C27       1.0  0.51981  0.07451  0.85991  1.0000
  C   C28       1.0  0.98051  0.21454  0.14012  1.0000
  C   C29       1.0  0.00577  0.72746  0.18281  1.0000
  C   C30       1.0  0.49356  0.54480  0.81716  1.0000
  C   C31       1.0  0.99423  0.27254  0.81719  1.0000
  C   C32       1.0  0.50645  0.45520  0.18284  1.0000
  O   O1        1.0  0.33052  0.99840  0.14260  1.0000
  O   O2        1.0  0.16928  0.85593  0.85740  1.0000
  O   O3        1.0  0.66947  0.00160  0.85740  1.0000
  O   O4        1.0  0.83073  0.14406  0.14260  1.0000
  O   O5        1.0  0.54313  0.85656  0.04686  1.0000
  O   O6        1.0  0.95649  0.80960  0.95312  1.0000
  O   O7        1.0  0.45686  0.14344  0.95314  1.0000
  O   O8        1.0  0.04352  0.19040  0.04688  1.0000
  O   O9        1.0  0.83071  0.79136  0.16930  1.0000
  O   O10       1.0  0.66879  0.62211  0.83069  1.0000
  O   O11       1.0  0.16930  0.20865  0.83070  1.0000
  O   O12       1.0  0.33122  0.37789  0.16931  1.0000
