data_image0
_chemical_formula_structural       Ca2H24C32O12
_chemical_formula_sum              "Ca2 H24 C32 O12"
_cell_length_a       7.55795
_cell_length_b       7.83865
_cell_length_c       13.0936
_cell_angle_alpha    107.422
_cell_angle_beta     90.355
_cell_angle_gamma    89.9895

_space_group_name_H-M_alt    "P 1"
_space_group_IT_number       1

loop_
  _space_group_symop_operation_xyz
  'x, y, z'

loop_
  _atom_site_type_symbol
  _atom_site_label
  _atom_site_symmetry_multiplicity
  _atom_site_fract_x
  _atom_site_fract_y
  _atom_site_fract_z
  _atom_site_occupancy
  Ca  Ca1       1.0  0.75004  0.46306  0.99999  1.0000
  Ca  Ca2       1.0  0.24996  0.53694  0.00001  1.0000
  H   H1        1.0  0.32275  0.52718  0.35548  1.0000
  H   H2        1.0  0.17734  0.17151  0.64454  1.0000
  H   H3        1.0  0.67724  0.47283  0.64452  1.0000
  H   H4        1.0  0.82266  0.82848  0.35546  1.0000
  H   H5        1.0  0.92804  0.28073  0.32939  1.0000
  H   H6        1.0  0.57250  0.95045  0.67078  1.0000
  H   H7        1.0  0.07196  0.71927  0.67061  1.0000
  H   H8        1.0  0.42750  0.04955  0.32922  1.0000
  H   H9        1.0  0.78924  0.38138  0.50315  1.0000
  H   H10       1.0  0.71106  0.87754  0.49700  1.0000
  H   H11       1.0  0.21075  0.61862  0.49685  1.0000
  H   H12       1.0  0.28894  0.12246  0.50300  1.0000
  H   H13       1.0  0.05324  0.25939  0.17607  1.0000
  H   H14       1.0  0.44691  0.08356  0.82405  1.0000
  H   H15       1.0  0.94675  0.74061  0.82393  1.0000
  H   H16       1.0  0.55309  0.91644  0.17595  1.0000
  H   H17       1.0  0.96939  0.13676  0.04756  1.0000
  H   H18       1.0  0.53063  0.08950  0.95259  1.0000
  H   H19       1.0  0.03060  0.86324  0.95244  1.0000
  H   H20       1.0  0.46937  0.91051  0.04741  1.0000
  H   H21       1.0  0.91313  0.06644  0.16247  1.0000
  H   H22       1.0  0.58671  0.90403  0.83778  1.0000
  H   H23       1.0  0.08687  0.93355  0.83753  1.0000
  H   H24       1.0  0.41330  0.09597  0.16222  1.0000
  C   C1        1.0  0.54319  0.46797  0.44705  1.0000
  C   C2        1.0  0.95693  0.02062  0.55299  1.0000
  C   C3        1.0  0.45681  0.53204  0.55295  1.0000
  C   C4        1.0  0.04307  0.97938  0.44701  1.0000
  C   C5        1.0  0.45684  0.47566  0.35358  1.0000
  C   C6        1.0  0.04336  0.12172  0.64647  1.0000
  C   C7        1.0  0.54316  0.52435  0.64642  1.0000
  C   C8        1.0  0.95664  0.87828  0.35353  1.0000
  C   C9        1.0  0.53297  0.41676  0.25198  1.0000
  C   C10       1.0  0.96726  0.16443  0.74810  1.0000
  C   C11       1.0  0.46702  0.58324  0.74802  1.0000
  C   C12       1.0  0.03274  0.83556  0.25190  1.0000
  C   C13       1.0  0.70698  0.34706  0.24244  1.0000
  C   C14       1.0  0.79334  0.10415  0.75767  1.0000
  C   C15       1.0  0.29301  0.65294  0.75757  1.0000
  C   C16       1.0  0.20666  0.89584  0.24233  1.0000
  C   C17       1.0  0.79502  0.33547  0.33465  1.0000
  C   C18       1.0  0.70545  0.00008  0.66550  1.0000
  C   C19       1.0  0.20497  0.66452  0.66535  1.0000
  C   C20       1.0  0.29456  0.99991  0.33450  1.0000
  C   C21       1.0  0.71469  0.39449  0.43441  1.0000
  C   C22       1.0  0.78562  0.95947  0.56569  1.0000
  C   C23       1.0  0.28530  0.60552  0.56559  1.0000
  C   C24       1.0  0.21438  0.04053  0.43431  1.0000
  C   C25       1.0  0.42019  0.42805  0.16004  1.0000
  C   C26       1.0  0.07990  0.26784  0.84005  1.0000
  C   C27       1.0  0.57980  0.57195  0.83996  1.0000
  C   C28       1.0  0.92011  0.73216  0.15995  1.0000
  C   C29       1.0  0.94068  0.18081  0.13315  1.0000
  C   C30       1.0  0.55937  0.04779  0.86701  1.0000
  C   C31       1.0  0.05932  0.81919  0.86684  1.0000
  C   C32       1.0  0.44063  0.95221  0.13299  1.0000
  O   O1        1.0  0.26042  0.47683  0.17590  1.0000
  O   O2        1.0  0.23959  0.30096  0.82419  1.0000
  O   O3        1.0  0.73958  0.52317  0.82410  1.0000
  O   O4        1.0  0.76042  0.69903  0.17581  1.0000
  O   O5        1.0  0.48601  0.38795  0.06491  1.0000
  O   O6        1.0  0.01407  0.32275  0.93518  1.0000
  O   O7        1.0  0.51399  0.61206  0.93509  1.0000
  O   O8        1.0  0.98594  0.67725  0.06482  1.0000
  O   O9        1.0  0.78397  0.29012  0.14317  1.0000
  O   O10       1.0  0.71624  0.14674  0.85692  1.0000
  O   O11       1.0  0.21602  0.70987  0.85683  1.0000
  O   O12       1.0  0.28376  0.85326  0.14308  1.0000
