data_image0
_chemical_formula_structural       Mn2H24C32O12
_chemical_formula_sum              "Mn2 H24 C32 O12"
_cell_length_a       7.20004
_cell_length_b       8.37309
_cell_length_c       12.7582
_cell_angle_alpha    109.114
_cell_angle_beta     95.292
_cell_angle_gamma    90.003

_space_group_name_H-M_alt    "P 1"
_space_group_IT_number       1

loop_
  _space_group_symop_operation_xyz
  'x, y, z'

loop_
  _atom_site_type_symbol
  _atom_site_label
  _atom_site_symmetry_multiplicity
  _atom_site_fract_x
  _atom_site_fract_y
  _atom_site_fract_z
  _atom_site_occupancy
  Mn  Mn1       1.0  0.25014  0.93430  0.00004  1.0000
  Mn  Mn2       1.0  0.74986  0.06569  0.99996  1.0000
  H   H1        1.0  0.16176  0.96122  0.65990  1.0000
  H   H2        1.0  0.33839  0.30126  0.34024  1.0000
  H   H3        1.0  0.83824  0.03877  0.34010  1.0000
  H   H4        1.0  0.66161  0.69876  0.65976  1.0000
  H   H5        1.0  0.55628  0.23512  0.64521  1.0000
  H   H6        1.0  0.94311  0.59064  0.35439  1.0000
  H   H7        1.0  0.44374  0.76488  0.35479  1.0000
  H   H8        1.0  0.05690  0.40936  0.64560  1.0000
  H   H9        1.0  0.71054  0.12830  0.47683  1.0000
  H   H10       1.0  0.78862  0.65260  0.52273  1.0000
  H   H11       1.0  0.28946  0.87169  0.52317  1.0000
  H   H12       1.0  0.21139  0.34741  0.47727  1.0000
  H   H13       1.0  0.47544  0.34445  0.93029  1.0000
  H   H14       1.0  0.02544  0.41296  0.06979  1.0000
  H   H15       1.0  0.52455  0.65555  0.06971  1.0000
  H   H16       1.0  0.97455  0.58704  0.93021  1.0000
  H   H17       1.0  0.53127  0.41693  0.81820  1.0000
  H   H18       1.0  0.96943  0.59771  0.18148  1.0000
  H   H19       1.0  0.46872  0.58307  0.18180  1.0000
  H   H20       1.0  0.03056  0.40229  0.81852  1.0000
  H   H21       1.0  0.40486  0.21881  0.78911  1.0000
  H   H22       1.0  0.09559  0.42894  0.21115  1.0000
  H   H23       1.0  0.59513  0.78119  0.21088  1.0000
  H   H24       1.0  0.90441  0.57106  0.78884  1.0000
  C   C1        1.0  0.95184  0.03328  0.55135  1.0000
  C   C2        1.0  0.54806  0.48216  0.44862  1.0000
  C   C3        1.0  0.04816  0.96672  0.44867  1.0000
  C   C4        1.0  0.45196  0.51785  0.55138  1.0000
  C   C5        1.0  0.02903  0.02110  0.65321  1.0000
  C   C6        1.0  0.47102  0.36793  0.34686  1.0000
  C   C7        1.0  0.97097  0.97890  0.34680  1.0000
  C   C8        1.0  0.52897  0.63209  0.65314  1.0000
  C   C9        1.0  0.94451  0.08448  0.75251  1.0000
  C   C10       1.0  0.55574  0.33163  0.24753  1.0000
  C   C11       1.0  0.05548  0.91551  0.24748  1.0000
  C   C12       1.0  0.44427  0.66838  0.75247  1.0000
  C   C13       1.0  0.76958  0.16214  0.75064  1.0000
  C   C14       1.0  0.73056  0.41132  0.24929  1.0000
  C   C15       1.0  0.23041  0.83785  0.24936  1.0000
  C   C16       1.0  0.26944  0.58868  0.75070  1.0000
  C   C17       1.0  0.68931  0.17481  0.64927  1.0000
  C   C18       1.0  0.81029  0.52603  0.35044  1.0000
  C   C19       1.0  0.31068  0.82518  0.35073  1.0000
  C   C20       1.0  0.18972  0.47397  0.64956  1.0000
  C   C21       1.0  0.77901  0.11265  0.55253  1.0000
  C   C22       1.0  0.72050  0.56081  0.44719  1.0000
  C   C23       1.0  0.22099  0.88734  0.44748  1.0000
  C   C24       1.0  0.27952  0.43920  0.55280  1.0000
  C   C25       1.0  0.04588  0.06528  0.85442  1.0000
  C   C26       1.0  0.45439  0.21057  0.14570  1.0000
  C   C27       1.0  0.95411  0.93471  0.14558  1.0000
  C   C28       1.0  0.54561  0.78944  0.85430  1.0000
  C   C29       1.0  0.51334  0.30638  0.84480  1.0000
  C   C30       1.0  0.98734  0.46065  0.15522  1.0000
  C   C31       1.0  0.48665  0.69361  0.15520  1.0000
  C   C32       1.0  0.01266  0.53935  0.84478  1.0000
  O   O1        1.0  0.19094  0.97640  0.84456  1.0000
  O   O2        1.0  0.30970  0.13110  0.15564  1.0000
  O   O3        1.0  0.80905  0.02359  0.15545  1.0000
  O   O4        1.0  0.69032  0.86890  0.84436  1.0000
  O   O5        1.0  0.98987  0.13743  0.95126  1.0000
  O   O6        1.0  0.51008  0.18631  0.04880  1.0000
  O   O7        1.0  0.01013  0.86257  0.04874  1.0000
  O   O8        1.0  0.48992  0.81369  0.95121  1.0000
  O   O9        1.0  0.68773  0.22311  0.84741  1.0000
  O   O10       1.0  0.81289  0.37490  0.15263  1.0000
  O   O11       1.0  0.31227  0.77688  0.15259  1.0000
  O   O12       1.0  0.18712  0.62510  0.84737  1.0000
