data_image0
_chemical_formula_structural       Co2H24C32O12
_chemical_formula_sum              "Co2 H24 C32 O12"
_cell_length_a       7.33805
_cell_length_b       8.50556
_cell_length_c       12.4536
_cell_angle_alpha    109.961
_cell_angle_beta     98.7873
_cell_angle_gamma    90.0096

_space_group_name_H-M_alt    "P 1"
_space_group_IT_number       1

loop_
  _space_group_symop_operation_xyz
  'x, y, z'

loop_
  _atom_site_type_symbol
  _atom_site_label
  _atom_site_symmetry_multiplicity
  _atom_site_fract_x
  _atom_site_fract_y
  _atom_site_fract_z
  _atom_site_occupancy
  Co  Co1       1.0  0.74995  0.09164  0.99997  1.0000
  Co  Co2       1.0  0.25005  0.90836  0.00003  1.0000
  H   H1        1.0  0.15050  0.95681  0.66937  1.0000
  H   H2        1.0  0.34954  0.28745  0.33059  1.0000
  H   H3        1.0  0.84950  0.04319  0.33063  1.0000
  H   H4        1.0  0.65046  0.71255  0.66941  1.0000
  H   H5        1.0  0.55966  0.22601  0.62930  1.0000
  H   H6        1.0  0.94041  0.59674  0.37067  1.0000
  H   H7        1.0  0.44034  0.77399  0.37070  1.0000
  H   H8        1.0  0.05958  0.40326  0.62933  1.0000
  H   H9        1.0  0.71497  0.12121  0.46314  1.0000
  H   H10       1.0  0.78501  0.65811  0.53678  1.0000
  H   H11       1.0  0.28503  0.87879  0.53686  1.0000
  H   H12       1.0  0.21499  0.34189  0.46322  1.0000
  H   H13       1.0  0.53109  0.40589  0.80379  1.0000
  H   H14       1.0  0.96898  0.60217  0.19618  1.0000
  H   H15       1.0  0.46891  0.59411  0.19621  1.0000
  H   H16       1.0  0.03102  0.39783  0.80381  1.0000
  H   H17       1.0  0.47653  0.33925  0.91855  1.0000
  H   H18       1.0  0.02359  0.42077  0.08142  1.0000
  H   H19       1.0  0.52347  0.66075  0.08144  1.0000
  H   H20       1.0  0.97641  0.57923  0.91858  1.0000
  H   H21       1.0  0.40791  0.20766  0.77081  1.0000
  H   H22       1.0  0.09214  0.43694  0.22917  1.0000
  H   H23       1.0  0.59209  0.79234  0.22919  1.0000
  H   H24       1.0  0.90786  0.56306  0.77083  1.0000
  C   C1        1.0  0.95070  0.03133  0.55024  1.0000
  C   C2        1.0  0.54929  0.48115  0.44974  1.0000
  C   C3        1.0  0.04930  0.96867  0.44976  1.0000
  C   C4        1.0  0.45071  0.51885  0.55026  1.0000
  C   C5        1.0  0.02236  0.01772  0.65743  1.0000
  C   C6        1.0  0.47767  0.36035  0.34255  1.0000
  C   C7        1.0  0.97764  0.98228  0.34257  1.0000
  C   C8        1.0  0.52233  0.63965  0.65745  1.0000
  C   C9        1.0  0.93769  0.08085  0.75582  1.0000
  C   C10       1.0  0.56235  0.32509  0.24415  1.0000
  C   C11       1.0  0.06231  0.91915  0.24418  1.0000
  C   C12       1.0  0.43765  0.67492  0.75585  1.0000
  C   C13       1.0  0.76797  0.15861  0.74683  1.0000
  C   C14       1.0  0.73210  0.41180  0.25308  1.0000
  C   C15       1.0  0.23203  0.84139  0.25317  1.0000
  C   C16       1.0  0.26790  0.58820  0.74692  1.0000
  C   C17       1.0  0.69050  0.16830  0.63919  1.0000
  C   C18       1.0  0.80948  0.52919  0.36071  1.0000
  C   C19       1.0  0.30951  0.83170  0.36081  1.0000
  C   C20       1.0  0.19052  0.47081  0.63929  1.0000
  C   C21       1.0  0.78075  0.10734  0.54380  1.0000
  C   C22       1.0  0.71919  0.56366  0.45611  1.0000
  C   C23       1.0  0.21925  0.89265  0.45620  1.0000
  C   C24       1.0  0.28081  0.43634  0.54389  1.0000
  C   C25       1.0  0.03367  0.06342  0.86506  1.0000
  C   C26       1.0  0.46623  0.19845  0.13497  1.0000
  C   C27       1.0  0.96633  0.93658  0.13494  1.0000
  C   C28       1.0  0.53377  0.80156  0.86503  1.0000
  C   C29       1.0  0.51444  0.29881  0.83215  1.0000
  C   C30       1.0  0.98567  0.46675  0.16780  1.0000
  C   C31       1.0  0.48556  0.70119  0.16785  1.0000
  C   C32       1.0  0.01433  0.53325  0.83220  1.0000
  O   O1        1.0  0.16602  0.96514  0.85768  1.0000
  O   O2        1.0  0.33377  0.10764  0.14234  1.0000
  O   O3        1.0  0.83398  0.03486  0.14232  1.0000
  O   O4        1.0  0.66623  0.89236  0.85766  1.0000
  O   O5        1.0  0.98722  0.14590  0.96336  1.0000
  O   O6        1.0  0.51275  0.18262  0.03667  1.0000
  O   O7        1.0  0.01278  0.85410  0.03664  1.0000
  O   O8        1.0  0.48725  0.81738  0.96333  1.0000
  O   O9        1.0  0.68750  0.22204  0.84324  1.0000
  O   O10       1.0  0.81262  0.37880  0.15670  1.0000
  O   O11       1.0  0.31250  0.77796  0.15676  1.0000
  O   O12       1.0  0.18738  0.62120  0.84330  1.0000
