data_image0
_chemical_formula_structural       Cd2H24C32O12
_chemical_formula_sum              "Cd2 H24 C32 O12"
_cell_length_a       7.408
_cell_length_b       7.97535
_cell_length_c       13.1244
_cell_angle_alpha    107.728
_cell_angle_beta     89.7862
_cell_angle_gamma    89.9397

_space_group_name_H-M_alt    "P 1"
_space_group_IT_number       1

loop_
  _space_group_symop_operation_xyz
  'x, y, z'

loop_
  _atom_site_type_symbol
  _atom_site_label
  _atom_site_symmetry_multiplicity
  _atom_site_fract_x
  _atom_site_fract_y
  _atom_site_fract_z
  _atom_site_occupancy
  Cd  Cd1       1.0  0.75006  0.02315  0.99982  1.0000
  Cd  Cd2       1.0  0.24995  0.97685  0.00018  1.0000
  H   H1        1.0  0.83161  0.03923  0.35614  1.0000
  H   H2        1.0  0.66806  0.68258  0.64413  1.0000
  H   H3        1.0  0.16839  0.96076  0.64385  1.0000
  H   H4        1.0  0.33194  0.31740  0.35587  1.0000
  H   H5        1.0  0.43135  0.75800  0.33061  1.0000
  H   H6        1.0  0.06834  0.42760  0.66894  1.0000
  H   H7        1.0  0.56865  0.24201  0.66939  1.0000
  H   H8        1.0  0.93165  0.57242  0.33106  1.0000
  H   H9        1.0  0.28616  0.86474  0.50339  1.0000
  H   H10       1.0  0.21379  0.36162  0.49626  1.0000
  H   H11       1.0  0.71383  0.13526  0.49661  1.0000
  H   H12       1.0  0.78619  0.63839  0.50374  1.0000
  H   H13       1.0  0.50025  0.64829  0.05130  1.0000
  H   H14       1.0  0.99956  0.59713  0.94862  1.0000
  H   H15       1.0  0.49976  0.35172  0.94870  1.0000
  H   H16       1.0  0.00045  0.40286  0.05139  1.0000
  H   H17       1.0  0.57035  0.77666  0.18192  1.0000
  H   H18       1.0  0.92889  0.59483  0.81805  1.0000
  H   H19       1.0  0.42965  0.22335  0.81808  1.0000
  H   H20       1.0  0.07111  0.40516  0.18195  1.0000
  H   H21       1.0  0.45331  0.57140  0.16428  1.0000
  H   H22       1.0  0.04678  0.40724  0.83549  1.0000
  H   H23       1.0  0.54670  0.42861  0.83572  1.0000
  H   H24       1.0  0.95323  0.59275  0.16452  1.0000
  C   C1        1.0  0.04520  0.96578  0.44726  1.0000
  C   C2        1.0  0.45467  0.51843  0.55270  1.0000
  C   C3        1.0  0.95480  0.03422  0.55273  1.0000
  C   C4        1.0  0.54532  0.48158  0.44731  1.0000
  C   C5        1.0  0.96381  0.97856  0.35388  1.0000
  C   C6        1.0  0.53579  0.62448  0.64621  1.0000
  C   C7        1.0  0.03618  0.02142  0.64612  1.0000
  C   C8        1.0  0.46421  0.37552  0.35379  1.0000
  C   C9        1.0  0.04301  0.91499  0.25226  1.0000
  C   C10       1.0  0.45620  0.66280  0.74773  1.0000
  C   C11       1.0  0.95699  0.08500  0.74774  1.0000
  C   C12       1.0  0.54379  0.33720  0.25227  1.0000
  C   C13       1.0  0.21660  0.83638  0.24277  1.0000
  C   C14       1.0  0.28261  0.59397  0.75700  1.0000
  C   C15       1.0  0.78341  0.16362  0.75723  1.0000
  C   C16       1.0  0.71738  0.40603  0.24300  1.0000
  C   C17       1.0  0.29962  0.82042  0.33542  1.0000
  C   C18       1.0  0.19991  0.48531  0.66425  1.0000
  C   C19       1.0  0.70038  0.17958  0.66458  1.0000
  C   C20       1.0  0.80008  0.51470  0.33575  1.0000
  C   C21       1.0  0.21554  0.88297  0.43478  1.0000
  C   C22       1.0  0.28428  0.44836  0.56496  1.0000
  C   C23       1.0  0.78446  0.11703  0.56522  1.0000
  C   C24       1.0  0.71570  0.55165  0.43504  1.0000
  C   C25       1.0  0.93442  0.93423  0.16139  1.0000
  C   C26       1.0  0.56450  0.77282  0.83880  1.0000
  C   C27       1.0  0.06559  0.06577  0.83861  1.0000
  C   C28       1.0  0.43551  0.22717  0.16120  1.0000
  C   C29       1.0  0.46614  0.68719  0.13631  1.0000
  C   C30       1.0  0.03343  0.55106  0.86355  1.0000
  C   C31       1.0  0.53387  0.31282  0.86369  1.0000
  C   C32       1.0  0.96658  0.44893  0.13646  1.0000
  O   O1        1.0  0.77645  0.99738  0.17890  1.0000
  O   O2        1.0  0.72213  0.81908  0.82126  1.0000
  O   O3        1.0  0.22356  0.00262  0.82110  1.0000
  O   O4        1.0  0.27787  0.18091  0.17874  1.0000
  O   O5        1.0  0.99701  0.88425  0.06415  1.0000
  O   O6        1.0  0.50244  0.81923  0.93611  1.0000
  O   O7        1.0  0.00300  0.11575  0.93585  1.0000
  O   O8        1.0  0.49756  0.18077  0.06389  1.0000
  O   O9        1.0  0.29490  0.77655  0.14422  1.0000
  O   O10       1.0  0.20422  0.63280  0.85553  1.0000
  O   O11       1.0  0.70510  0.22345  0.85577  1.0000
  O   O12       1.0  0.79578  0.36720  0.14447  1.0000
