data_image0
_chemical_formula_structural       Cd2H34C40N6O16
_chemical_formula_sum              "Cd2 H34 C40 N6 O16"
_cell_length_a       10.2624
_cell_length_b       10.3698
_cell_length_c       12.7599
_cell_angle_alpha    67.1627
_cell_angle_beta     73.7371
_cell_angle_gamma    67.1526

_space_group_name_H-M_alt    "P 1"
_space_group_IT_number       1

loop_
  _space_group_symop_operation_xyz
  'x, y, z'

loop_
  _atom_site_type_symbol
  _atom_site_label
  _atom_site_symmetry_multiplicity
  _atom_site_fract_x
  _atom_site_fract_y
  _atom_site_fract_z
  _atom_site_occupancy
  Cd  Cd1       1.0  0.91963  0.43246  0.21268  1.0000
  Cd  Cd2       1.0  0.08038  0.56754  0.78732  1.0000
  H   H1        1.0  0.87822  0.14604  0.34366  1.0000
  H   H2        1.0  0.12178  0.85396  0.65634  1.0000
  H   H3        1.0  0.89033  0.20817  0.43664  1.0000
  H   H4        1.0  0.10967  0.79182  0.56337  1.0000
  H   H5        1.0  0.00856  0.65564  0.02963  1.0000
  H   H6        1.0  0.99144  0.34435  0.97037  1.0000
  H   H7        1.0  0.86848  0.66678  0.00208  1.0000
  H   H8        1.0  0.13153  0.33322  0.99792  1.0000
  H   H9        1.0  0.47091  0.66956  0.47811  1.0000
  H   H10       1.0  0.52908  0.33044  0.52189  1.0000
  H   H11       1.0  0.61886  0.53143  0.34301  1.0000
  H   H12       1.0  0.38114  0.46857  0.65699  1.0000
  H   H13       1.0  0.99005  0.57425  0.37285  1.0000
  H   H14       1.0  0.00994  0.42575  0.62714  1.0000
  H   H15       1.0  0.85664  0.71673  0.51204  1.0000
  H   H16       1.0  0.14336  0.28327  0.48795  1.0000
  H   H17       1.0  0.63106  0.83554  0.61461  1.0000
  H   H18       1.0  0.36894  0.16446  0.38538  1.0000
  H   H19       1.0  0.36525  0.80440  0.57095  1.0000
  H   H20       1.0  0.63475  0.19560  0.42905  1.0000
  H   H21       1.0  0.98937  0.01345  0.78528  1.0000
  H   H22       1.0  0.01062  0.98655  0.21472  1.0000
  H   H23       1.0  0.06189  0.14246  0.88051  1.0000
  H   H24       1.0  0.93811  0.85754  0.11949  1.0000
  H   H25       1.0  0.31646  0.13562  0.83886  1.0000
  H   H26       1.0  0.68354  0.86438  0.16114  1.0000
  H   H27       1.0  0.49179  0.99703  0.70941  1.0000
  H   H28       1.0  0.50821  0.00297  0.29059  1.0000
  H   H29       1.0  0.43152  0.44096  0.20043  1.0000
  H   H30       1.0  0.56848  0.55904  0.79957  1.0000
  H   H31       1.0  0.36184  0.21356  0.01164  1.0000
  H   H32       1.0  0.63816  0.78644  0.98836  1.0000
  H   H33       1.0  0.78184  0.23923  0.97608  1.0000
  H   H34       1.0  0.21816  0.76076  0.02392  1.0000
  C   C1        1.0  0.65051  0.70913  0.50646  1.0000
  C   C2        1.0  0.34948  0.29087  0.49354  1.0000
  C   C3        1.0  0.58560  0.65184  0.45874  1.0000
  C   C4        1.0  0.41440  0.34816  0.54126  1.0000
  C   C5        1.0  0.66712  0.57317  0.38372  1.0000
  C   C6        1.0  0.33288  0.42683  0.61628  1.0000
  C   C7        1.0  0.87476  0.59771  0.40003  1.0000
  C   C8        1.0  0.12523  0.40229  0.59997  1.0000
  C   C9        1.0  0.79989  0.67730  0.47653  1.0000
  C   C10       1.0  0.20011  0.32270  0.52347  1.0000
  C   C11       1.0  0.56876  0.80089  0.57999  1.0000
  C   C12       1.0  0.43124  0.19911  0.42001  1.0000
  C   C13       1.0  0.42446  0.84321  0.60486  1.0000
  C   C14       1.0  0.57554  0.15679  0.39514  1.0000
  C   C15       1.0  0.33224  0.93233  0.67795  1.0000
  C   C16       1.0  0.66776  0.06768  0.32205  1.0000
  C   C17       1.0  0.09940  0.01344  0.76993  1.0000
  C   C18       1.0  0.90060  0.98657  0.23007  1.0000
  C   C19       1.0  0.13960  0.08417  0.82296  1.0000
  C   C20       1.0  0.86040  0.91583  0.17704  1.0000
  C   C21       1.0  0.28227  0.07964  0.80005  1.0000
  C   C22       1.0  0.71773  0.92036  0.19995  1.0000
  C   C23       1.0  0.37975  0.00294  0.72727  1.0000
  C   C24       1.0  0.62024  0.99706  0.27273  1.0000
  C   C25       1.0  0.71760  0.38699  0.12887  1.0000
  C   C26       1.0  0.28240  0.61302  0.87113  1.0000
  C   C27       1.0  0.61725  0.34485  0.09224  1.0000
  C   C28       1.0  0.38275  0.65515  0.90776  1.0000
  C   C29       1.0  0.47233  0.37864  0.13997  1.0000
  C   C30       1.0  0.52768  0.62136  0.86003  1.0000
  C   C31       1.0  0.37921  0.33249  0.11156  1.0000
  C   C32       1.0  0.62079  0.66752  0.88844  1.0000
  C   C33       1.0  0.22354  0.37029  0.16320  1.0000
  C   C34       1.0  0.77647  0.62971  0.83680  1.0000
  C   C35       1.0  0.43143  0.25267  0.03369  1.0000
  C   C36       1.0  0.56857  0.74733  0.96631  1.0000
  C   C37       1.0  0.57545  0.22192  0.98573  1.0000
  C   C38       1.0  0.42456  0.77808  0.01428  1.0000
  C   C39       1.0  0.66960  0.26630  0.01372  1.0000
  C   C40       1.0  0.33040  0.73370  0.98628  1.0000
  N   N1        1.0  0.80997  0.54634  0.35371  1.0000
  N   N2        1.0  0.19003  0.45366  0.64629  1.0000
  N   N3        1.0  0.19235  0.94088  0.69850  1.0000
  N   N4        1.0  0.80765  0.05912  0.30150  1.0000
  N   N5        1.0  0.63108  0.13672  0.90500  1.0000
  N   N6        1.0  0.36892  0.86328  0.09500  1.0000
  O   O1        1.0  0.84911  0.35431  0.08339  1.0000
  O   O2        1.0  0.15089  0.64569  0.91661  1.0000
  O   O3        1.0  0.66966  0.44861  0.20657  1.0000
  O   O4        1.0  0.33034  0.55139  0.79343  1.0000
  O   O5        1.0  0.17654  0.44018  0.23450  1.0000
  O   O6        1.0  0.82346  0.55982  0.76550  1.0000
  O   O7        1.0  0.14445  0.32729  0.12952  1.0000
  O   O8        1.0  0.85556  0.67270  0.87048  1.0000
  O   O9        1.0  0.54405  0.11395  0.86880  1.0000
  O   O10       1.0  0.45595  0.88605  0.13120  1.0000
  O   O11       1.0  0.76285  0.09114  0.87723  1.0000
  O   O12       1.0  0.23715  0.90886  0.12277  1.0000
  O   O13       1.0  0.93200  0.20021  0.36013  1.0000
  O   O14       1.0  0.06800  0.79979  0.63987  1.0000
  O   O15       1.0  0.90914  0.65950  0.06752  1.0000
  O   O16       1.0  0.09087  0.34050  0.93248  1.0000
