data_image0
_chemical_formula_structural       Cd2H32C40S2N4O16
_chemical_formula_sum              "Cd2 H32 C40 S2 N4 O16"
_cell_length_a       8.12726
_cell_length_b       10.1924
_cell_length_c       12.9543
_cell_angle_alpha    92.8511
_cell_angle_beta     94.2706
_cell_angle_gamma    107.823

_space_group_name_H-M_alt    "P 1"
_space_group_IT_number       1

loop_
  _space_group_symop_operation_xyz
  'x, y, z'

loop_
  _atom_site_type_symbol
  _atom_site_label
  _atom_site_symmetry_multiplicity
  _atom_site_fract_x
  _atom_site_fract_y
  _atom_site_fract_z
  _atom_site_occupancy
  Cd  Cd1       1.0  0.21987  0.12047  0.50419  1.0000
  Cd  Cd2       1.0  0.78013  0.87953  0.49581  1.0000
  H   H1        1.0  0.13767  0.39012  0.01211  1.0000
  H   H2        1.0  0.86234  0.60989  0.98789  1.0000
  H   H3        1.0  0.57406  0.18806  0.46451  1.0000
  H   H4        1.0  0.42594  0.81194  0.53549  1.0000
  H   H5        1.0  0.49748  0.31382  0.44530  1.0000
  H   H6        1.0  0.50252  0.68617  0.55470  1.0000
  H   H7        1.0  0.69268  0.33753  0.82016  1.0000
  H   H8        1.0  0.30730  0.66248  0.17984  1.0000
  H   H9        1.0  0.49079  0.33564  0.66657  1.0000
  H   H10       1.0  0.50920  0.66437  0.33343  1.0000
  H   H11       1.0  0.24434  0.91443  0.66950  1.0000
  H   H12       1.0  0.75566  0.08558  0.33050  1.0000
  H   H13       1.0  0.43626  0.89628  0.82337  1.0000
  H   H14       1.0  0.56373  0.10372  0.17663  1.0000
  H   H15       1.0  0.66983  0.00436  0.95485  1.0000
  H   H16       1.0  0.33017  0.99565  0.04515  1.0000
  H   H17       1.0  0.88544  0.30468  0.92296  1.0000
  H   H18       1.0  0.11457  0.69532  0.07703  1.0000
  H   H19       1.0  0.36304  0.40278  0.13793  1.0000
  H   H20       1.0  0.63696  0.59723  0.86207  1.0000
  H   H21       1.0  0.33570  0.21145  0.25892  1.0000
  H   H22       1.0  0.66432  0.78855  0.74107  1.0000
  H   H23       1.0  0.05941  0.01154  0.24000  1.0000
  H   H24       1.0  0.94060  0.98846  0.76000  1.0000
  H   H25       1.0  0.83061  0.00148  0.09789  1.0000
  H   H26       1.0  0.16940  0.99853  0.90211  1.0000
  H   H27       1.0  0.24382  0.62679  0.48254  1.0000
  H   H28       1.0  0.75618  0.37321  0.51746  1.0000
  H   H29       1.0  0.88954  0.73029  0.26049  1.0000
  H   H30       1.0  0.11046  0.26970  0.73951  1.0000
  H   H31       1.0  0.90500  0.31175  0.26565  1.0000
  H   H32       1.0  0.09500  0.68824  0.73435  1.0000
  C   C1        1.0  0.58613  0.11561  0.83426  1.0000
  C   C2        1.0  0.41386  0.88440  0.16574  1.0000
  C   C3        1.0  0.59778  0.24042  0.78902  1.0000
  C   C4        1.0  0.40221  0.75958  0.21098  1.0000
  C   C5        1.0  0.48490  0.24066  0.70346  1.0000
  C   C6        1.0  0.51510  0.75934  0.29654  1.0000
  C   C7        1.0  0.34625  0.00511  0.70556  1.0000
  C   C8        1.0  0.65375  0.99490  0.29444  1.0000
  C   C9        1.0  0.45393  0.99633  0.79151  1.0000
  C   C10       1.0  0.54607  0.00367  0.20849  1.0000
  C   C11       1.0  0.70416  0.10437  0.92125  1.0000
  C   C12       1.0  0.29584  0.89564  0.07875  1.0000
  C   C13       1.0  0.85025  0.20606  0.95806  1.0000
  C   C14       1.0  0.14975  0.79394  0.04194  1.0000
  C   C15       1.0  0.97136  0.19684  0.04307  1.0000
  C   C16       1.0  0.02865  0.80317  0.95693  1.0000
  C   C17       1.0  0.24841  0.31174  0.13413  1.0000
  C   C18       1.0  0.75159  0.68827  0.86586  1.0000
  C   C19       1.0  0.23136  0.20562  0.19935  1.0000
  C   C20       1.0  0.76865  0.79439  0.80065  1.0000
  C   C21       1.0  0.07844  0.09353  0.18686  1.0000
  C   C22       1.0  0.92157  0.90648  0.81314  1.0000
  C   C23       1.0  0.94980  0.08824  0.10817  1.0000
  C   C24       1.0  0.05021  0.91176  0.89184  1.0000
  C   C25       1.0  0.15597  0.35740  0.42924  1.0000
  C   C26       1.0  0.84403  0.64259  0.57075  1.0000
  C   C27       1.0  0.08546  0.46029  0.37802  1.0000
  C   C28       1.0  0.91454  0.53970  0.62198  1.0000
  C   C29       1.0  0.14672  0.59841  0.41630  1.0000
  C   C30       1.0  0.85328  0.40159  0.58370  1.0000
  C   C31       1.0  0.07850  0.69643  0.37445  1.0000
  C   C32       1.0  0.92150  0.30357  0.62555  1.0000
  C   C33       1.0  0.14384  0.84204  0.42049  1.0000
  C   C34       1.0  0.85616  0.15795  0.57950  1.0000
  C   C35       1.0  0.94689  0.65555  0.29216  1.0000
  C   C36       1.0  0.05311  0.34444  0.70784  1.0000
  C   C37       1.0  0.88819  0.51768  0.25232  1.0000
  C   C38       1.0  0.11181  0.48232  0.74768  1.0000
  C   C39       1.0  0.95535  0.41971  0.29529  1.0000
  C   C40       1.0  0.04466  0.58029  0.70471  1.0000
  S   S1        1.0  0.72841  0.46442  0.14280  1.0000
  S   S2        1.0  0.27159  0.53558  0.85720  1.0000
  N   N1        1.0  0.36244  0.12484  0.66135  1.0000
  N   N2        1.0  0.63756  0.87516  0.33865  1.0000
  N   N3        1.0  0.12024  0.30523  0.06024  1.0000
  N   N4        1.0  0.87977  0.69478  0.93976  1.0000
  O   O1        1.0  0.29019  0.39888  0.49280  1.0000
  O   O2        1.0  0.70982  0.60112  0.50719  1.0000
  O   O3        1.0  0.07096  0.22905  0.40515  1.0000
  O   O4        1.0  0.92904  0.77095  0.59485  1.0000
  O   O5        1.0  0.05055  0.92201  0.40153  1.0000
  O   O6        1.0  0.94945  0.07798  0.59847  1.0000
  O   O7        1.0  0.28702  0.88544  0.47645  1.0000
  O   O8        1.0  0.71297  0.11455  0.52355  1.0000
  O   O9        1.0  0.62485  0.55914  0.14502  1.0000
  O   O10       1.0  0.37514  0.44085  0.85499  1.0000
  O   O11       1.0  0.83514  0.48088  0.05263  1.0000
  O   O12       1.0  0.16486  0.51913  0.94737  1.0000
  O   O13       1.0  0.63351  0.31956  0.15317  1.0000
  O   O14       1.0  0.36650  0.68043  0.84683  1.0000
  O   O15       1.0  0.47974  0.21590  0.42618  1.0000
  O   O16       1.0  0.52026  0.78410  0.57381  1.0000
