data_image0
_chemical_formula_structural       Cd4H20C20O16
_chemical_formula_sum              "Cd4 H20 C20 O16"
_cell_length_a       6.81053
_cell_length_b       7.43751
_cell_length_c       11.5036
_cell_angle_alpha    89.9998
_cell_angle_beta     91.7118
_cell_angle_gamma    90.0002

_space_group_name_H-M_alt    "P 1"
_space_group_IT_number       1

loop_
  _space_group_symop_operation_xyz
  'x, y, z'

loop_
  _atom_site_type_symbol
  _atom_site_label
  _atom_site_symmetry_multiplicity
  _atom_site_fract_x
  _atom_site_fract_y
  _atom_site_fract_z
  _atom_site_occupancy
  Cd  Cd1       1.0  0.32432  0.16841  0.01368  1.0000
  Cd  Cd2       1.0  0.17568  0.66841  0.98632  1.0000
  Cd  Cd3       1.0  0.67568  0.83159  0.98633  1.0000
  Cd  Cd4       1.0  0.82432  0.33159  0.01368  1.0000
  H   H1        1.0  0.68911  0.67599  0.49084  1.0000
  H   H2        1.0  0.81090  0.17599  0.50915  1.0000
  H   H3        1.0  0.31089  0.32401  0.50916  1.0000
  H   H4        1.0  0.18911  0.82401  0.49084  1.0000
  H   H5        1.0  0.10802  0.33085  0.32682  1.0000
  H   H6        1.0  0.39197  0.83085  0.67318  1.0000
  H   H7        1.0  0.89197  0.66915  0.67318  1.0000
  H   H8        1.0  0.60803  0.16915  0.32682  1.0000
  H   H9        1.0  0.58437  0.70579  0.28297  1.0000
  H   H10       1.0  0.91563  0.20579  0.71703  1.0000
  H   H11       1.0  0.41563  0.29421  0.71703  1.0000
  H   H12       1.0  0.08437  0.79421  0.28297  1.0000
  H   H13       1.0  0.50758  0.52377  0.37176  1.0000
  H   H14       1.0  0.99243  0.02377  0.62824  1.0000
  H   H15       1.0  0.49242  0.47623  0.62823  1.0000
  H   H16       1.0  0.00757  0.97623  0.37177  1.0000
  H   H17       1.0  0.12719  0.37750  0.85137  1.0000
  H   H18       1.0  0.37281  0.87750  0.14863  1.0000
  H   H19       1.0  0.87281  0.62250  0.14863  1.0000
  H   H20       1.0  0.62719  0.12250  0.85137  1.0000
  C   C1        1.0  0.82378  0.59709  0.49417  1.0000
  C   C2        1.0  0.67622  0.09709  0.50583  1.0000
  C   C3        1.0  0.17621  0.40291  0.50583  1.0000
  C   C4        1.0  0.32379  0.90291  0.49417  1.0000
  C   C5        1.0  0.06123  0.40369  0.40333  1.0000
  C   C6        1.0  0.43876  0.90369  0.59668  1.0000
  C   C7        1.0  0.93876  0.59631  0.59668  1.0000
  C   C8        1.0  0.56124  0.09631  0.40332  1.0000
  C   C9        1.0  0.88467  0.49967  0.39740  1.0000
  C   C10       1.0  0.61533  0.99967  0.60260  1.0000
  C   C11       1.0  0.11532  0.50033  0.60260  1.0000
  C   C12       1.0  0.38467  0.00033  0.39740  1.0000
  C   C13       1.0  0.58253  0.55824  0.29110  1.0000
  C   C14       1.0  0.91747  0.05825  0.70890  1.0000
  C   C15       1.0  0.41747  0.44176  0.70890  1.0000
  C   C16       1.0  0.08253  0.94175  0.29110  1.0000
  C   C17       1.0  0.45823  0.47851  0.19129  1.0000
  C   C18       1.0  0.04177  0.97851  0.80871  1.0000
  C   C19       1.0  0.54177  0.52149  0.80871  1.0000
  C   C20       1.0  0.95822  0.02148  0.19129  1.0000
  O   O1        1.0  0.77862  0.48930  0.29334  1.0000
  O   O2        1.0  0.72138  0.98930  0.70666  1.0000
  O   O3        1.0  0.22138  0.51071  0.70666  1.0000
  O   O4        1.0  0.27862  0.01071  0.29334  1.0000
  O   O5        1.0  0.52880  0.35022  0.13064  1.0000
  O   O6        1.0  0.97120  0.85022  0.86936  1.0000
  O   O7        1.0  0.47120  0.64978  0.86936  1.0000
  O   O8        1.0  0.02880  0.14978  0.13064  1.0000
  O   O9        1.0  0.28906  0.54438  0.17896  1.0000
  O   O10       1.0  0.21094  0.04438  0.82104  1.0000
  O   O11       1.0  0.71094  0.45562  0.82103  1.0000
  O   O12       1.0  0.78906  0.95562  0.17897  1.0000
  O   O13       1.0  0.13084  0.38041  0.93637  1.0000
  O   O14       1.0  0.36916  0.88041  0.06363  1.0000
  O   O15       1.0  0.86916  0.61959  0.06363  1.0000
  O   O16       1.0  0.63084  0.11959  0.93637  1.0000
