data_image0
_chemical_formula_structural       Cd4H40C56N8O16
_chemical_formula_sum              "Cd4 H40 C56 N8 O16"
_cell_length_a       9.80195
_cell_length_b       9.80196
_cell_length_c       16.0226
_cell_angle_alpha    90
_cell_angle_beta     90
_cell_angle_gamma    106.542

_space_group_name_H-M_alt    "P 1"
_space_group_IT_number       1

loop_
  _space_group_symop_operation_xyz
  'x, y, z'

loop_
  _atom_site_type_symbol
  _atom_site_label
  _atom_site_symmetry_multiplicity
  _atom_site_fract_x
  _atom_site_fract_y
  _atom_site_fract_z
  _atom_site_occupancy
  Cd  Cd1       1.0  0.41308  0.58692  0.40914  1.0000
  Cd  Cd2       1.0  0.08692  0.91308  0.90914  1.0000
  Cd  Cd3       1.0  0.91308  0.08692  0.09086  1.0000
  Cd  Cd4       1.0  0.58692  0.41308  0.59086  1.0000
  H   H1        1.0  0.90843  0.92595  0.30799  1.0000
  H   H2        1.0  0.59157  0.57405  0.80799  1.0000
  H   H3        1.0  0.57405  0.59158  0.19201  1.0000
  H   H4        1.0  0.92595  0.90842  0.69201  1.0000
  H   H5        1.0  0.09158  0.07405  0.69201  1.0000
  H   H6        1.0  0.40843  0.42595  0.19201  1.0000
  H   H7        1.0  0.42595  0.40843  0.80799  1.0000
  H   H8        1.0  0.07405  0.09158  0.30799  1.0000
  H   H9        1.0  0.70094  0.71158  0.31757  1.0000
  H   H10       1.0  0.79906  0.78842  0.81757  1.0000
  H   H11       1.0  0.78842  0.79906  0.18243  1.0000
  H   H12       1.0  0.71158  0.70094  0.68243  1.0000
  H   H13       1.0  0.29906  0.28842  0.68243  1.0000
  H   H14       1.0  0.20094  0.21158  0.18243  1.0000
  H   H15       1.0  0.21158  0.20094  0.81757  1.0000
  H   H16       1.0  0.28842  0.29906  0.31757  1.0000
  H   H17       1.0  0.74408  0.08598  0.52765  1.0000
  H   H18       1.0  0.75592  0.41402  0.02765  1.0000
  H   H19       1.0  0.41402  0.75592  0.97235  1.0000
  H   H20       1.0  0.08598  0.74408  0.47235  1.0000
  H   H21       1.0  0.25592  0.91402  0.47235  1.0000
  H   H22       1.0  0.24408  0.58598  0.97235  1.0000
  H   H23       1.0  0.58598  0.24408  0.02765  1.0000
  H   H24       1.0  0.91402  0.25592  0.52765  1.0000
  H   H25       1.0  0.12784  0.87216  0.30153  1.0000
  H   H26       1.0  0.37216  0.62784  0.80153  1.0000
  H   H27       1.0  0.62784  0.37216  0.19847  1.0000
  H   H28       1.0  0.87216  0.12784  0.69847  1.0000
  H   H29       1.0  0.54113  0.86676  0.52396  1.0000
  H   H30       1.0  0.95887  0.63324  0.02396  1.0000
  H   H31       1.0  0.63324  0.95888  0.97604  1.0000
  H   H32       1.0  0.86676  0.54113  0.47604  1.0000
  H   H33       1.0  0.45887  0.13324  0.47604  1.0000
  H   H34       1.0  0.04113  0.36676  0.97604  1.0000
  H   H35       1.0  0.36676  0.04112  0.02396  1.0000
  H   H36       1.0  0.13324  0.45887  0.52396  1.0000
  H   H37       1.0  0.23962  0.76038  0.14347  1.0000
  H   H38       1.0  0.26038  0.73962  0.64347  1.0000
  H   H39       1.0  0.73962  0.26038  0.35654  1.0000
  H   H40       1.0  0.76038  0.23962  0.85653  1.0000
  C   C1        1.0  0.26748  0.73252  0.31222  1.0000
  C   C2        1.0  0.23252  0.76748  0.81222  1.0000
  C   C3        1.0  0.76748  0.23252  0.18778  1.0000
  C   C4        1.0  0.73252  0.26748  0.68778  1.0000
  C   C5        1.0  0.84857  0.02520  0.41880  1.0000
  C   C6        1.0  0.65144  0.47480  0.91880  1.0000
  C   C7        1.0  0.47480  0.65143  0.08120  1.0000
  C   C8        1.0  0.02520  0.84857  0.58120  1.0000
  C   C9        1.0  0.15143  0.97480  0.58120  1.0000
  C   C10       1.0  0.34857  0.52520  0.08120  1.0000
  C   C11       1.0  0.52520  0.34857  0.91880  1.0000
  C   C12       1.0  0.97480  0.15143  0.41880  1.0000
  C   C13       1.0  0.83237  0.91751  0.35864  1.0000
  C   C14       1.0  0.66763  0.58249  0.85864  1.0000
  C   C15       1.0  0.58249  0.66763  0.14136  1.0000
  C   C16       1.0  0.91751  0.83237  0.64136  1.0000
  C   C17       1.0  0.16763  0.08249  0.64136  1.0000
  C   C18       1.0  0.33237  0.41751  0.14136  1.0000
  C   C19       1.0  0.41751  0.33237  0.85864  1.0000
  C   C20       1.0  0.08249  0.16763  0.35864  1.0000
  C   C21       1.0  0.71554  0.79807  0.36244  1.0000
  C   C22       1.0  0.78446  0.70193  0.86244  1.0000
  C   C23       1.0  0.70193  0.78446  0.13756  1.0000
  C   C24       1.0  0.79807  0.71554  0.63756  1.0000
  C   C25       1.0  0.28446  0.20193  0.63756  1.0000
  C   C26       1.0  0.21554  0.29807  0.13756  1.0000
  C   C27       1.0  0.29807  0.21554  0.86244  1.0000
  C   C28       1.0  0.20193  0.28446  0.36244  1.0000
  C   C29       1.0  0.74093  0.00653  0.47935  1.0000
  C   C30       1.0  0.75907  0.49347  0.97935  1.0000
  C   C31       1.0  0.49347  0.75907  0.02065  1.0000
  C   C32       1.0  0.00653  0.74093  0.52065  1.0000
  C   C33       1.0  0.25907  0.99347  0.52065  1.0000
  C   C34       1.0  0.24093  0.50653  0.02065  1.0000
  C   C35       1.0  0.50653  0.24093  0.97935  1.0000
  C   C36       1.0  0.99347  0.25907  0.47935  1.0000
  C   C37       1.0  0.18620  0.81380  0.26464  1.0000
  C   C38       1.0  0.31380  0.68620  0.76464  1.0000
  C   C39       1.0  0.68620  0.31380  0.23537  1.0000
  C   C40       1.0  0.81380  0.18620  0.73536  1.0000
  C   C41       1.0  0.62636  0.88418  0.47791  1.0000
  C   C42       1.0  0.87364  0.61582  0.97791  1.0000
  C   C43       1.0  0.61582  0.87364  0.02209  1.0000
  C   C44       1.0  0.88418  0.62636  0.52209  1.0000
  C   C45       1.0  0.37364  0.11582  0.52209  1.0000
  C   C46       1.0  0.12636  0.38418  0.02209  1.0000
  C   C47       1.0  0.38418  0.12636  0.97791  1.0000
  C   C48       1.0  0.11582  0.37364  0.47791  1.0000
  C   C49       1.0  0.18172  0.81828  0.18107  1.0000
  C   C50       1.0  0.31828  0.68172  0.68107  1.0000
  C   C51       1.0  0.68172  0.31828  0.31893  1.0000
  C   C52       1.0  0.81828  0.18172  0.81893  1.0000
  C   C53       1.0  0.09898  0.90102  0.13577  1.0000
  C   C54       1.0  0.40102  0.59898  0.63577  1.0000
  C   C55       1.0  0.59898  0.40102  0.36423  1.0000
  C   C56       1.0  0.90102  0.09898  0.86423  1.0000
  N   N1        1.0  0.61370  0.78041  0.42104  1.0000
  N   N2        1.0  0.88630  0.71959  0.92104  1.0000
  N   N3        1.0  0.71959  0.88630  0.07896  1.0000
  N   N4        1.0  0.78041  0.61370  0.57896  1.0000
  N   N5        1.0  0.38630  0.21959  0.57896  1.0000
  N   N6        1.0  0.11370  0.28041  0.07896  1.0000
  N   N7        1.0  0.28041  0.11370  0.92104  1.0000
  N   N8        1.0  0.21959  0.38630  0.42104  1.0000
  O   O1        1.0  0.33821  0.66179  0.27424  1.0000
  O   O2        1.0  0.16179  0.83821  0.77424  1.0000
  O   O3        1.0  0.83821  0.16179  0.22576  1.0000
  O   O4        1.0  0.66179  0.33821  0.72576  1.0000
  O   O5        1.0  0.26121  0.73879  0.39237  1.0000
  O   O6        1.0  0.23879  0.76121  0.89237  1.0000
  O   O7        1.0  0.76121  0.23879  0.10763  1.0000
  O   O8        1.0  0.73879  0.26121  0.60763  1.0000
  O   O9        1.0  0.03024  0.96976  0.17897  1.0000
  O   O10       1.0  0.46976  0.53024  0.67897  1.0000
  O   O11       1.0  0.53024  0.46976  0.32103  1.0000
  O   O12       1.0  0.96976  0.03024  0.82103  1.0000
  O   O13       1.0  0.10089  0.89911  0.05665  1.0000
  O   O14       1.0  0.39911  0.60089  0.55665  1.0000
  O   O15       1.0  0.60089  0.39911  0.44335  1.0000
  O   O16       1.0  0.89911  0.10089  0.94335  1.0000
