data_image0
_chemical_formula_structural       Tl2B2H24C24N16
_chemical_formula_sum              "Tl2 B2 H24 C24 N16"
_cell_length_a       8.42999
_cell_length_b       8.95201
_cell_length_c       10.1805
_cell_angle_alpha    92.8411
_cell_angle_beta     99.4667
_cell_angle_gamma    104.852

_space_group_name_H-M_alt    "P 1"
_space_group_IT_number       1

loop_
  _space_group_symop_operation_xyz
  'x, y, z'

loop_
  _atom_site_type_symbol
  _atom_site_label
  _atom_site_symmetry_multiplicity
  _atom_site_fract_x
  _atom_site_fract_y
  _atom_site_fract_z
  _atom_site_occupancy
  Tl  Tl1       1.0  0.54460  0.81675  0.61689  1.0000
  Tl  Tl2       1.0  0.45539  0.18325  0.38311  1.0000
  B   B1        1.0  0.09721  0.21636  0.77890  1.0000
  B   B2        1.0  0.90279  0.78365  0.22110  1.0000
  H   H1        1.0  0.35122  0.51471  0.80830  1.0000
  H   H2        1.0  0.64878  0.48529  0.19170  1.0000
  H   H3        1.0  0.23663  0.44627  0.38851  1.0000
  H   H4        1.0  0.76337  0.55372  0.61149  1.0000
  H   H5        1.0  0.04657  0.19316  0.49050  1.0000
  H   H6        1.0  0.95343  0.80682  0.50950  1.0000
  H   H7        1.0  0.31126  0.09703  0.97651  1.0000
  H   H8        1.0  0.68874  0.90297  0.02349  1.0000
  H   H9        1.0  0.32851  0.51152  0.19921  1.0000
  H   H10       1.0  0.67150  0.48849  0.80079  1.0000
  H   H11       1.0  0.12272  0.49108  0.95389  1.0000
  H   H12       1.0  0.87729  0.50892  0.04611  1.0000
  H   H13       1.0  0.34695  0.11610  0.66811  1.0000
  H   H14       1.0  0.65304  0.88390  0.33189  1.0000
  H   H15       1.0  0.08480  0.68145  0.76546  1.0000
  H   H16       1.0  0.91520  0.31855  0.23454  1.0000
  H   H17       1.0  0.91626  0.89895  0.82085  1.0000
  H   H18       1.0  0.08374  0.10105  0.17915  1.0000
  H   H19       1.0  0.83627  0.27331  0.57121  1.0000
  H   H20       1.0  0.16373  0.72669  0.42879  1.0000
  H   H21       1.0  0.55697  0.16611  0.87683  1.0000
  H   H22       1.0  0.44303  0.83389  0.12317  1.0000
  H   H23       1.0  0.87935  0.15236  0.96944  1.0000
  H   H24       1.0  0.12066  0.84764  0.03056  1.0000
  C   C1        1.0  0.29383  0.46333  0.70750  1.0000
  C   C2        1.0  0.70616  0.53666  0.29250  1.0000
  C   C3        1.0  0.23269  0.42305  0.49156  1.0000
  C   C4        1.0  0.76731  0.57695  0.50844  1.0000
  C   C5        1.0  0.13659  0.29735  0.54104  1.0000
  C   C6        1.0  0.86341  0.70264  0.45895  1.0000
  C   C7        1.0  0.29031  0.20758  0.00555  1.0000
  C   C8        1.0  0.70970  0.79242  0.99445  1.0000
  C   C9        1.0  0.29332  0.42000  0.11751  1.0000
  C   C10       1.0  0.70670  0.58001  0.88249  1.0000
  C   C11       1.0  0.19142  0.41212  0.99547  1.0000
  C   C12       1.0  0.80858  0.58789  0.00453  1.0000
  C   C13       1.0  0.25231  0.02518  0.69984  1.0000
  C   C14       1.0  0.74768  0.97482  0.30015  1.0000
  C   C15       1.0  0.11604  0.80486  0.75381  1.0000
  C   C16       1.0  0.88395  0.19515  0.24620  1.0000
  C   C17       1.0  0.03026  0.91148  0.78118  1.0000
  C   C18       1.0  0.96974  0.08852  0.21883  1.0000
  C   C19       1.0  0.80139  0.24045  0.66585  1.0000
  C   C20       1.0  0.19861  0.75956  0.33415  1.0000
  C   C21       1.0  0.66164  0.18356  0.82462  1.0000
  C   C22       1.0  0.33836  0.81644  0.17538  1.0000
  C   C23       1.0  0.82166  0.17635  0.87248  1.0000
  C   C24       1.0  0.17834  0.82365  0.12752  1.0000
  N   N1        1.0  0.33102  0.52587  0.59691  1.0000
  N   N2        1.0  0.66898  0.47413  0.40309  1.0000
  N   N3        1.0  0.17570  0.32383  0.67930  1.0000
  N   N4        1.0  0.82430  0.67616  0.32070  1.0000
  N   N5        1.0  0.35441  0.29066  0.12315  1.0000
  N   N6        1.0  0.64559  0.70935  0.87685  1.0000
  N   N7        1.0  0.18998  0.27600  0.92361  1.0000
  N   N8        1.0  0.81003  0.72400  0.07639  1.0000
  N   N9        1.0  0.25497  0.87733  0.70262  1.0000
  N   N10       1.0  0.74502  0.12266  0.29737  1.0000
  N   N11       1.0  0.11794  0.05253  0.74594  1.0000
  N   N12       1.0  0.88206  0.94747  0.25407  1.0000
  N   N13       1.0  0.64958  0.22415  0.69462  1.0000
  N   N14       1.0  0.35043  0.77585  0.30538  1.0000
  N   N15       1.0  0.91140  0.21292  0.77060  1.0000
  N   N16       1.0  0.08860  0.78709  0.22940  1.0000
