data_image0
_chemical_formula_structural       Tl2B2H40C32N16
_chemical_formula_sum              "Tl2 B2 H40 C32 N16"
_cell_length_a       9.23488
_cell_length_b       9.86058
_cell_length_c       11.2888
_cell_angle_alpha    80.1757
_cell_angle_beta     73.029
_cell_angle_gamma    76.7434

_space_group_name_H-M_alt    "P 1"
_space_group_IT_number       1

loop_
  _space_group_symop_operation_xyz
  'x, y, z'

loop_
  _atom_site_type_symbol
  _atom_site_label
  _atom_site_symmetry_multiplicity
  _atom_site_fract_x
  _atom_site_fract_y
  _atom_site_fract_z
  _atom_site_occupancy
  Tl  Tl1       1.0  0.73054  0.78136  0.63175  1.0000
  Tl  Tl2       1.0  0.26946  0.21864  0.36825  1.0000
  B   B1        1.0  0.72018  0.63293  0.19060  1.0000
  B   B2        1.0  0.27982  0.36707  0.80940  1.0000
  H   H1        1.0  0.52559  0.89921  0.13666  1.0000
  H   H2        1.0  0.47442  0.10079  0.86334  1.0000
  H   H3        1.0  0.23627  0.69733  0.33936  1.0000
  H   H4        1.0  0.76373  0.30268  0.66064  1.0000
  H   H5        1.0  0.06496  0.76561  0.44762  1.0000
  H   H6        1.0  0.93504  0.23440  0.55238  1.0000
  H   H7        1.0  0.16028  0.59049  0.47741  1.0000
  H   H8        1.0  0.83972  0.40951  0.52259  1.0000
  H   H9        1.0  0.85829  0.39871  0.04219  1.0000
  H   H10       1.0  0.14171  0.60129  0.95781  1.0000
  H   H11       1.0  0.69291  0.07074  0.14486  1.0000
  H   H12       1.0  0.30709  0.92925  0.85514  1.0000
  H   H13       1.0  0.35773  0.94172  0.59425  1.0000
  H   H14       1.0  0.64227  0.05828  0.40575  1.0000
  H   H15       1.0  0.43976  0.52455  0.30936  1.0000
  H   H16       1.0  0.56024  0.47545  0.69064  1.0000
  H   H17       1.0  0.57506  0.61983  0.45685  1.0000
  H   H18       1.0  0.42494  0.38017  0.54315  1.0000
  H   H19       1.0  0.83190  0.79171  0.32434  1.0000
  H   H20       1.0  0.16810  0.20829  0.67566  1.0000
  H   H21       1.0  0.96757  0.38756  0.20469  1.0000
  H   H22       1.0  0.03243  0.61244  0.79531  1.0000
  H   H23       1.0  0.19885  0.90774  0.55375  1.0000
  H   H24       1.0  0.80115  0.09226  0.44625  1.0000
  H   H25       1.0  0.62937  0.63866  0.96386  1.0000
  H   H26       1.0  0.37063  0.36134  0.03614  1.0000
  H   H27       1.0  0.31494  0.77090  0.62933  1.0000
  H   H28       1.0  0.68506  0.22910  0.37067  1.0000
  H   H29       1.0  0.85856  0.05349  0.77736  1.0000
  H   H30       1.0  0.14143  0.94651  0.22264  1.0000
  H   H31       1.0  0.92744  0.82776  0.07612  1.0000
  H   H32       1.0  0.07256  0.17224  0.92388  1.0000
  H   H33       1.0  0.01471  0.91759  0.72317  1.0000
  H   H34       1.0  0.98529  0.08241  0.27683  1.0000
  H   H35       1.0  0.79514  0.14984  0.00049  1.0000
  H   H36       1.0  0.20486  0.85016  0.99951  1.0000
  H   H37       1.0  0.01492  0.00277  0.84888  1.0000
  H   H38       1.0  0.98508  0.99724  0.15112  1.0000
  H   H39       1.0  0.59412  0.15415  0.03197  1.0000
  H   H40       1.0  0.40588  0.84585  0.96803  1.0000
  C   C1        1.0  0.86411  0.80601  0.01672  1.0000
  C   C2        1.0  0.13589  0.19399  0.98328  1.0000
  C   C3        1.0  0.70722  0.70710  0.96118  1.0000
  C   C4        1.0  0.29277  0.29291  0.03883  1.0000
  C   C5        1.0  0.85863  0.85915  0.89648  1.0000
  C   C6        1.0  0.14137  0.14085  0.10353  1.0000
  C   C7        1.0  0.94072  0.96419  0.80745  1.0000
  C   C8        1.0  0.05928  0.03581  0.19255  1.0000
  C   C9        1.0  0.50617  0.85648  0.23392  1.0000
  C   C10       1.0  0.49383  0.14352  0.76608  1.0000
  C   C11       1.0  0.53044  0.71222  0.40139  1.0000
  C   C12       1.0  0.46956  0.28778  0.59861  1.0000
  C   C13       1.0  0.41677  0.82773  0.43474  1.0000
  C   C14       1.0  0.58323  0.17227  0.56526  1.0000
  C   C15       1.0  0.52838  0.46103  0.24413  1.0000
  C   C16       1.0  0.47162  0.53896  0.75587  1.0000
  C   C17       1.0  0.96950  0.47878  0.24565  1.0000
  C   C18       1.0  0.03050  0.52122  0.75435  1.0000
  C   C19       1.0  0.90096  0.68842  0.30851  1.0000
  C   C20       1.0  0.09905  0.31158  0.69149  1.0000
  C   C21       1.0  0.74559  0.39415  0.10566  1.0000
  C   C22       1.0  0.25441  0.60585  0.89434  1.0000
  C   C23       1.0  0.03598  0.62032  0.33881  1.0000
  C   C24       1.0  0.96402  0.37968  0.66118  1.0000
  C   C25       1.0  0.65356  0.29554  0.12743  1.0000
  C   C26       1.0  0.34644  0.70446  0.87257  1.0000
  C   C27       1.0  0.12931  0.67068  0.40383  1.0000
  C   C28       1.0  0.87069  0.32932  0.59617  1.0000
  C   C29       1.0  0.31728  0.86300  0.55972  1.0000
  C   C30       1.0  0.68272  0.13701  0.44028  1.0000
  C   C31       1.0  0.68597  0.16096  0.07318  1.0000
  C   C32       1.0  0.31403  0.83904  0.92682  1.0000
  N   N1        1.0  0.75904  0.79592  0.86354  1.0000
  N   N2        1.0  0.24096  0.20408  0.13646  1.0000
  N   N3        1.0  0.76755  0.70887  0.05756  1.0000
  N   N4        1.0  0.23245  0.29113  0.94244  1.0000
  N   N5        1.0  0.58787  0.73119  0.27260  1.0000
  N   N6        1.0  0.41213  0.26881  0.72740  1.0000
  N   N7        1.0  0.40308  0.91746  0.32830  1.0000
  N   N8        1.0  0.59692  0.08254  0.67170  1.0000
  N   N9        1.0  0.66565  0.49934  0.18113  1.0000
  N   N10       1.0  0.33435  0.50066  0.81887  1.0000
  N   N11       1.0  0.85801  0.59725  0.24955  1.0000
  N   N12       1.0  0.14199  0.40275  0.75045  1.0000
  N   N13       1.0  0.51682  0.33977  0.21452  1.0000
  N   N14       1.0  0.48318  0.66023  0.78549  1.0000
  N   N15       1.0  0.07754  0.48857  0.29848  1.0000
  N   N16       1.0  0.92247  0.51143  0.70151  1.0000
