data_image0
_chemical_formula_structural       Dy2CuH20C32N4O28
_chemical_formula_sum              "Dy2 Cu1 H20 C32 N4 O28"
_cell_length_a       10.1849
_cell_length_b       10.7774
_cell_length_c       11.1865
_cell_angle_alpha    88.1552
_cell_angle_beta     76.122
_cell_angle_gamma    68.3751

_space_group_name_H-M_alt    "P 1"
_space_group_IT_number       1

loop_
  _space_group_symop_operation_xyz
  'x, y, z'

loop_
  _atom_site_type_symbol
  _atom_site_label
  _atom_site_symmetry_multiplicity
  _atom_site_fract_x
  _atom_site_fract_y
  _atom_site_fract_z
  _atom_site_occupancy
  Dy  Dy1       1.0  0.58488  0.60222  0.63421  1.0000
  Dy  Dy2       1.0  0.41512  0.39776  0.36578  1.0000
  Cu  Cu1       1.0  1.00000  0.50000  0.50001  1.0000
  H   H1        1.0  0.36719  0.98019  0.46392  1.0000
  H   H2        1.0  0.63284  0.01980  0.53603  1.0000
  H   H3        1.0  0.97269  0.17127  0.34194  1.0000
  H   H4        1.0  0.02730  0.82872  0.65806  1.0000
  H   H5        1.0  0.16721  0.74121  0.33091  1.0000
  H   H6        1.0  0.83282  0.25878  0.66904  1.0000
  H   H7        1.0  0.67653  0.47143  0.94598  1.0000
  H   H8        1.0  0.32347  0.52859  0.05403  1.0000
  H   H9        1.0  0.93910  0.30518  0.20467  1.0000
  H   H10       1.0  0.06088  0.69484  0.79536  1.0000
  H   H11       1.0  0.14582  0.33870  0.82786  1.0000
  H   H12       1.0  0.85417  0.66132  0.17217  1.0000
  H   H13       1.0  0.50870  0.77045  0.86659  1.0000
  H   H14       1.0  0.49129  0.22952  0.13338  1.0000
  H   H15       1.0  0.56888  0.83982  0.75309  1.0000
  H   H16       1.0  0.43113  0.16016  0.24689  1.0000
  H   H17       1.0  0.71869  0.45881  0.38410  1.0000
  H   H18       1.0  0.28130  0.54120  0.61589  1.0000
  H   H19       1.0  0.79843  0.56103  0.38340  1.0000
  H   H20       1.0  0.20160  0.43896  0.61658  1.0000
  C   C1        1.0  0.27858  0.84823  0.40029  1.0000
  C   C2        1.0  0.72142  0.15177  0.59972  1.0000
  C   C3        1.0  0.28152  0.97410  0.42463  1.0000
  C   C4        1.0  0.71849  0.02589  0.57536  1.0000
  C   C5        1.0  0.17269  0.09059  0.40254  1.0000
  C   C6        1.0  0.82732  0.90941  0.59744  1.0000
  C   C7        1.0  0.06108  0.08169  0.35520  1.0000
  C   C8        1.0  0.93893  0.91830  0.64478  1.0000
  C   C9        1.0  0.06325  0.95636  0.32715  1.0000
  C   C10       1.0  0.93677  0.04362  0.67283  1.0000
  C   C11       1.0  0.16957  0.83859  0.34965  1.0000
  C   C12       1.0  0.83045  0.16140  0.65034  1.0000
  C   C13       1.0  0.38719  0.72447  0.43665  1.0000
  C   C14       1.0  0.61282  0.27553  0.56335  1.0000
  C   C15       1.0  0.16917  0.22751  0.42930  1.0000
  C   C16       1.0  0.83084  0.77248  0.57070  1.0000
  C   C17       1.0  0.90944  0.41309  0.87404  1.0000
  C   C18       1.0  0.09054  0.58696  0.12598  1.0000
  C   C19       1.0  0.78334  0.42878  0.96634  1.0000
  C   C20       1.0  0.21664  0.57125  0.03368  1.0000
  C   C21       1.0  0.79361  0.38974  0.08557  1.0000
  C   C22       1.0  0.20638  0.61027  0.91444  1.0000
  C   C23       1.0  0.92998  0.33446  0.11232  1.0000
  C   C24       1.0  0.07001  0.66554  0.88770  1.0000
  C   C25       1.0  0.05433  0.31688  0.01805  1.0000
  C   C26       1.0  0.94567  0.68312  0.98198  1.0000
  C   C27       1.0  0.04673  0.35483  0.89925  1.0000
  C   C28       1.0  0.95325  0.64519  0.10078  1.0000
  C   C29       1.0  0.89810  0.45827  0.74787  1.0000
  C   C30       1.0  0.10190  0.54173  0.25214  1.0000
  C   C31       1.0  0.65851  0.40384  0.18315  1.0000
  C   C32       1.0  0.34147  0.59616  0.81686  1.0000
  N   N1        1.0  0.94634  0.95059  0.27434  1.0000
  N   N2        1.0  0.05368  0.04940  0.72564  1.0000
  N   N3        1.0  0.19847  0.25870  0.04516  1.0000
  N   N4        1.0  0.80152  0.74132  0.95487  1.0000
  O   O1        1.0  0.39852  0.61067  0.39732  1.0000
  O   O2        1.0  0.60150  0.38933  0.60266  1.0000
  O   O3        1.0  0.45859  0.74280  0.50831  1.0000
  O   O4        1.0  0.54141  0.25719  0.49170  1.0000
  O   O5        1.0  0.28658  0.24537  0.42275  1.0000
  O   O6        1.0  0.71344  0.75460  0.57723  1.0000
  O   O7        1.0  0.04075  0.31734  0.45477  1.0000
  O   O8        1.0  0.95925  0.68265  0.54525  1.0000
  O   O9        1.0  0.88105  0.04973  0.22283  1.0000
  O   O10       1.0  0.11895  0.95026  0.77717  1.0000
  O   O11       1.0  0.91978  0.84658  0.28536  1.0000
  O   O12       1.0  0.08023  0.15340  0.71463  1.0000
  O   O13       1.0  0.01647  0.44820  0.66972  1.0000
  O   O14       1.0  0.98353  0.55179  0.33030  1.0000
  O   O15       1.0  0.77455  0.50313  0.72403  1.0000
  O   O16       1.0  0.22544  0.49687  0.27597  1.0000
  O   O17       1.0  0.53701  0.43889  0.15552  1.0000
  O   O18       1.0  0.46298  0.56110  0.84449  1.0000
  O   O19       1.0  0.66894  0.37566  0.29420  1.0000
  O   O20       1.0  0.33103  0.62433  0.70581  1.0000
  O   O21       1.0  0.20262  0.22922  0.15303  1.0000
  O   O22       1.0  0.79738  0.77078  0.84699  1.0000
  O   O23       1.0  0.30800  0.24379  0.96048  1.0000
  O   O24       1.0  0.69198  0.75626  0.03955  1.0000
  O   O25       1.0  0.50381  0.79162  0.78206  1.0000
  O   O26       1.0  0.49619  0.20838  0.21792  1.0000
  O   O27       1.0  0.73603  0.52086  0.43757  1.0000
  O   O28       1.0  0.26398  0.47915  0.56242  1.0000
