data_image0
_chemical_formula_structural       Pr2CuH20C32N4O28
_chemical_formula_sum              "Pr2 Cu1 H20 C32 N4 O28"
_cell_length_a       10.5567
_cell_length_b       10.6898
_cell_length_c       11.3979
_cell_angle_alpha    83.8754
_cell_angle_beta     74.6149
_cell_angle_gamma    69.4435

_space_group_name_H-M_alt    "P 1"
_space_group_IT_number       1

loop_
  _space_group_symop_operation_xyz
  'x, y, z'

loop_
  _atom_site_type_symbol
  _atom_site_label
  _atom_site_symmetry_multiplicity
  _atom_site_fract_x
  _atom_site_fract_y
  _atom_site_fract_z
  _atom_site_occupancy
  Pr  Pr1       1.0  0.59335  0.60389  0.62628  1.0000
  Pr  Pr2       1.0  0.40665  0.39611  0.37372  1.0000
  Cu  Cu1       1.0  0.00000  0.50000  0.50000  1.0000
  H   H1        1.0  0.35212  0.98748  0.47161  1.0000
  H   H2        1.0  0.64788  0.01252  0.52839  1.0000
  H   H3        1.0  0.96778  0.17399  0.36015  1.0000
  H   H4        1.0  0.03222  0.82602  0.63984  1.0000
  H   H5        1.0  0.18346  0.75006  0.31589  1.0000
  H   H6        1.0  0.81654  0.24994  0.68411  1.0000
  H   H7        1.0  0.68731  0.45915  0.94449  1.0000
  H   H8        1.0  0.31269  0.54085  0.05551  1.0000
  H   H9        1.0  0.93088  0.30753  0.21003  1.0000
  H   H10       1.0  0.06912  0.69248  0.78997  1.0000
  H   H11       1.0  0.13666  0.34182  0.83311  1.0000
  H   H12       1.0  0.86334  0.65816  0.16689  1.0000
  H   H13       1.0  0.64460  0.77948  0.80617  1.0000
  H   H14       1.0  0.35541  0.22052  0.19383  1.0000
  H   H15       1.0  0.51816  0.72899  0.86324  1.0000
  H   H16       1.0  0.48186  0.27100  0.13677  1.0000
  H   H17       1.0  0.81339  0.54692  0.37354  1.0000
  H   H18       1.0  0.18660  0.45309  0.62647  1.0000
  H   H19       1.0  0.71939  0.45741  0.37513  1.0000
  H   H20       1.0  0.28061  0.54259  0.62488  1.0000
  C   C1        1.0  0.27820  0.85608  0.39778  1.0000
  C   C2        1.0  0.72180  0.14393  0.60222  1.0000
  C   C3        1.0  0.27154  0.98112  0.43174  1.0000
  C   C4        1.0  0.72846  0.01888  0.56826  1.0000
  C   C5        1.0  0.16095  0.09589  0.41699  1.0000
  C   C6        1.0  0.83905  0.90411  0.58301  1.0000
  C   C7        1.0  0.05689  0.08626  0.36771  1.0000
  C   C8        1.0  0.94311  0.91374  0.63228  1.0000
  C   C9        1.0  0.06887  0.96284  0.32914  1.0000
  C   C10       1.0  0.93113  0.03716  0.67086  1.0000
  C   C11       1.0  0.17754  0.84648  0.34385  1.0000
  C   C12       1.0  0.82247  0.15352  0.65615  1.0000
  C   C13       1.0  0.39033  0.73194  0.42553  1.0000
  C   C14       1.0  0.60967  0.26806  0.57447  1.0000
  C   C15       1.0  0.15087  0.23204  0.44913  1.0000
  C   C16       1.0  0.84913  0.76796  0.55086  1.0000
  C   C17       1.0  0.91057  0.40852  0.87528  1.0000
  C   C18       1.0  0.08943  0.59147  0.12472  1.0000
  C   C19       1.0  0.78864  0.42116  0.96663  1.0000
  C   C20       1.0  0.21136  0.57884  0.03337  1.0000
  C   C21       1.0  0.79519  0.38495  0.08728  1.0000
  C   C22       1.0  0.20481  0.61506  0.91272  1.0000
  C   C23       1.0  0.92433  0.33530  0.11682  1.0000
  C   C24       1.0  0.07566  0.66471  0.88318  1.0000
  C   C25       1.0  0.04484  0.32101  0.02369  1.0000
  C   C26       1.0  0.95516  0.67900  0.97631  1.0000
  C   C27       1.0  0.04055  0.35622  0.90336  1.0000
  C   C28       1.0  0.95945  0.64378  0.09664  1.0000
  C   C29       1.0  0.90180  0.44982  0.74721  1.0000
  C   C30       1.0  0.09819  0.55017  0.25278  1.0000
  C   C31       1.0  0.66296  0.39687  0.18303  1.0000
  C   C32       1.0  0.33703  0.60314  0.81697  1.0000
  N   N1        1.0  0.96094  0.95713  0.27254  1.0000
  N   N2        1.0  0.03906  0.04287  0.72746  1.0000
  N   N3        1.0  0.18150  0.27006  0.05259  1.0000
  N   N4        1.0  0.81851  0.72994  0.94741  1.0000
  O   O1        1.0  0.40243  0.62047  0.38591  1.0000
  O   O2        1.0  0.59757  0.37954  0.61409  1.0000
  O   O3        1.0  0.46432  0.74720  0.49062  1.0000
  O   O4        1.0  0.53567  0.25280  0.50939  1.0000
  O   O5        1.0  0.25917  0.25521  0.45250  1.0000
  O   O6        1.0  0.74084  0.74478  0.54749  1.0000
  O   O7        1.0  0.02739  0.31804  0.46768  1.0000
  O   O8        1.0  0.97262  0.68196  0.53231  1.0000
  O   O9        1.0  0.87667  0.06429  0.24690  1.0000
  O   O10       1.0  0.12333  0.93570  0.75311  1.0000
  O   O11       1.0  0.96016  0.84516  0.25364  1.0000
  O   O12       1.0  0.03985  0.15483  0.74636  1.0000
  O   O13       1.0  0.01524  0.44868  0.67017  1.0000
  O   O14       1.0  0.98475  0.55132  0.32983  1.0000
  O   O15       1.0  0.78531  0.48374  0.72107  1.0000
  O   O16       1.0  0.21469  0.51625  0.27893  1.0000
  O   O17       1.0  0.54931  0.42694  0.15106  1.0000
  O   O18       1.0  0.45069  0.57307  0.84894  1.0000
  O   O19       1.0  0.66799  0.37309  0.29480  1.0000
  O   O20       1.0  0.33201  0.62692  0.70520  1.0000
  O   O21       1.0  0.18328  0.24280  0.16199  1.0000
  O   O22       1.0  0.81672  0.75721  0.83801  1.0000
  O   O23       1.0  0.28751  0.25849  0.96969  1.0000
  O   O24       1.0  0.71249  0.74150  0.03031  1.0000
  O   O25       1.0  0.56301  0.76708  0.78892  1.0000
  O   O26       1.0  0.43701  0.23291  0.21108  1.0000
  O   O27       1.0  0.73850  0.51686  0.42495  1.0000
  O   O28       1.0  0.26150  0.48315  0.57506  1.0000
