data_image0
_chemical_formula_structural       CuH12C10N2O8
_chemical_formula_sum              "Cu1 H12 C10 N2 O8"
_cell_length_a       5.46542
_cell_length_b       7.8841
_cell_length_c       8.29775
_cell_angle_alpha    80.9306
_cell_angle_beta     77.979
_cell_angle_gamma    73.1633

_space_group_name_H-M_alt    "P 1"
_space_group_IT_number       1

loop_
  _space_group_symop_operation_xyz
  'x, y, z'

loop_
  _atom_site_type_symbol
  _atom_site_label
  _atom_site_symmetry_multiplicity
  _atom_site_fract_x
  _atom_site_fract_y
  _atom_site_fract_z
  _atom_site_occupancy
  Cu  Cu1       1.0  0.00002  0.99999  0.00001  1.0000
  H   H1        1.0  0.78196  0.83565  0.56986  1.0000
  H   H2        1.0  0.21804  0.16437  0.43012  1.0000
  H   H3        1.0  0.89533  0.76111  0.75888  1.0000
  H   H4        1.0  0.10470  0.23892  0.24109  1.0000
  H   H5        1.0  0.66290  0.66723  0.70828  1.0000
  H   H6        1.0  0.33714  0.33277  0.29170  1.0000
  H   H7        1.0  0.52964  0.43183  0.83037  1.0000
  H   H8        1.0  0.47031  0.56819  0.16964  1.0000
  H   H9        1.0  0.29063  0.50418  0.70173  1.0000
  H   H10       1.0  0.70932  0.49579  0.29827  1.0000
  H   H11       1.0  0.19590  0.50818  0.92089  1.0000
  H   H12       1.0  0.80405  0.49182  0.07910  1.0000
  C   C1        1.0  0.72363  0.78915  0.70008  1.0000
  C   C2        1.0  0.27639  0.21086  0.29991  1.0000
  C   C3        1.0  0.50509  0.92517  0.78787  1.0000
  C   C4        1.0  0.49492  0.07482  0.21212  1.0000
  C   C5        1.0  0.49601  0.10976  0.76176  1.0000
  C   C6        1.0  0.50400  0.89024  0.23825  1.0000
  C   C7        1.0  0.30068  0.24857  0.84088  1.0000
  C   C8        1.0  0.69933  0.75143  0.15914  1.0000
  C   C9        1.0  0.33054  0.43434  0.82265  1.0000
  C   C10       1.0  0.66945  0.56566  0.17735  1.0000
  N   N1        1.0  0.71272  0.16099  0.65296  1.0000
  N   N2        1.0  0.28728  0.83901  0.34706  1.0000
  O   O1        1.0  0.93757  0.07557  0.67408  1.0000
  O   O2        1.0  0.06243  0.92444  0.32593  1.0000
  O   O3        1.0  0.66684  0.28892  0.54480  1.0000
  O   O4        1.0  0.33316  0.71110  0.45521  1.0000
  O   O5        1.0  0.32692  0.86544  0.88383  1.0000
  O   O6        1.0  0.67308  0.13454  0.11615  1.0000
  O   O7        1.0  0.09898  0.22193  0.93912  1.0000
  O   O8        1.0  0.90106  0.77804  0.06092  1.0000
