data_image0
_chemical_formula_structural       Dy2CuH16C32N4O26
_chemical_formula_sum              "Dy2 Cu1 H16 C32 N4 O26"
_cell_length_a       9.80625
_cell_length_b       10.2707
_cell_length_c       11.0187
_cell_angle_alpha    69.9152
_cell_angle_beta     86.1347
_cell_angle_gamma    71.1506

_space_group_name_H-M_alt    "P 1"
_space_group_IT_number       1

loop_
  _space_group_symop_operation_xyz
  'x, y, z'

loop_
  _atom_site_type_symbol
  _atom_site_label
  _atom_site_symmetry_multiplicity
  _atom_site_fract_x
  _atom_site_fract_y
  _atom_site_fract_z
  _atom_site_occupancy
  Dy  Dy1       1.0  0.40304  0.40786  0.41667  1.0000
  Dy  Dy2       1.0  0.59696  0.59214  0.58332  1.0000
  Cu  Cu1       1.0  0.50000  1.00000  0.50000  1.0000
  H   H1        1.0  0.91763  0.36480  0.48212  1.0000
  H   H2        1.0  0.08237  0.63520  0.51788  1.0000
  H   H3        1.0  0.81406  0.96568  0.66633  1.0000
  H   H4        1.0  0.18594  0.03432  0.33367  1.0000
  H   H5        1.0  0.25628  0.95462  0.65042  1.0000
  H   H6        1.0  0.74371  0.04538  0.34959  1.0000
  H   H7        1.0  0.45822  0.37562  0.97657  1.0000
  H   H8        1.0  0.54178  0.62439  0.02343  1.0000
  H   H9        1.0  0.34594  0.99223  0.20105  1.0000
  H   H10       1.0  0.65407  0.00776  0.79895  1.0000
  H   H11       1.0  0.29334  0.15183  0.78518  1.0000
  H   H12       1.0  0.70666  0.84816  0.21482  1.0000
  H   H13       1.0  0.13409  0.56501  0.24216  1.0000
  H   H14       1.0  0.86592  0.43499  0.75784  1.0000
  H   H15       1.0  0.22490  0.67410  0.18292  1.0000
  H   H16       1.0  0.77510  0.32589  0.81709  1.0000
  C   C1        1.0  0.09795  0.16780  0.55819  1.0000
  C   C2        1.0  0.90204  0.83220  0.44181  1.0000
  C   C3        1.0  0.95063  0.24731  0.53413  1.0000
  C   C4        1.0  0.04937  0.75269  0.46586  1.0000
  C   C5        1.0  0.84831  0.17466  0.57062  1.0000
  C   C6        1.0  0.15169  0.82534  0.42937  1.0000
  C   C7        1.0  0.89185  0.02451  0.63916  1.0000
  C   C8        1.0  0.10814  0.97550  0.36084  1.0000
  C   C9        1.0  0.03757  0.95015  0.67170  1.0000
  C   C10       1.0  0.96243  0.04986  0.32830  1.0000
  C   C11       1.0  0.14271  0.01799  0.62916  1.0000
  C   C12       1.0  0.85728  0.98201  0.37084  1.0000
  C   C13       1.0  0.20313  0.24668  0.50184  1.0000
  C   C14       1.0  0.79687  0.75332  0.49816  1.0000
  C   C15       1.0  0.69395  0.25505  0.52857  1.0000
  C   C16       1.0  0.30605  0.74496  0.47142  1.0000
  C   C17       1.0  0.38112  0.27141  0.86839  1.0000
  C   C18       1.0  0.61888  0.72860  0.13161  1.0000
  C   C19       1.0  0.41575  0.28782  0.98277  1.0000
  C   C20       1.0  0.58424  0.71219  0.01724  1.0000
  C   C21       1.0  0.40184  0.18795  0.10293  1.0000
  C   C22       1.0  0.59816  0.81205  0.89708  1.0000
  C   C23       1.0  0.34979  0.07453  0.10874  1.0000
  C   C24       1.0  0.65021  0.92547  0.89126  1.0000
  C   C25       1.0  0.30429  0.06790  0.99500  1.0000
  C   C26       1.0  0.69572  0.93209  0.00501  1.0000
  C   C27       1.0  0.32067  0.16355  0.87401  1.0000
  C   C28       1.0  0.67933  0.83645  0.12599  1.0000
  C   C29       1.0  0.41702  0.36218  0.73812  1.0000
  C   C30       1.0  0.58298  0.63782  0.26188  1.0000
  C   C31       1.0  0.44336  0.19228  0.23014  1.0000
  C   C32       1.0  0.55665  0.80772  0.76986  1.0000
  N   N1        1.0  0.08146  0.79269  0.74860  1.0000
  N   N2        1.0  0.91853  0.20731  0.25139  1.0000
  N   N3        1.0  0.24239  0.95307  0.00449  1.0000
  N   N4        1.0  0.75762  0.04693  0.99552  1.0000
  O   O1        1.0  0.33730  0.17754  0.49456  1.0000
  O   O2        1.0  0.66270  0.82247  0.50544  1.0000
  O   O3        1.0  0.16149  0.38508  0.45855  1.0000
  O   O4        1.0  0.83851  0.61492  0.54146  1.0000
  O   O5        1.0  0.64080  0.38887  0.52100  1.0000
  O   O6        1.0  0.35920  0.61113  0.47900  1.0000
  O   O7        1.0  0.61775  0.19253  0.49557  1.0000
  O   O8        1.0  0.38224  0.80747  0.50442  1.0000
  O   O9        1.0  0.98390  0.73806  0.78955  1.0000
  O   O10       1.0  0.01610  0.26195  0.21045  1.0000
  O   O11       1.0  0.21209  0.72413  0.76687  1.0000
  O   O12       1.0  0.78791  0.27587  0.23313  1.0000
  O   O13       1.0  0.38423  0.33642  0.64120  1.0000
  O   O14       1.0  0.61578  0.66357  0.35880  1.0000
  O   O15       1.0  0.48132  0.45199  0.73688  1.0000
  O   O16       1.0  0.51868  0.54801  0.26312  1.0000
  O   O17       1.0  0.42520  0.31261  0.24489  1.0000
  O   O18       1.0  0.57481  0.68739  0.75511  1.0000
  O   O19       1.0  0.49352  0.06324  0.31446  1.0000
  O   O20       1.0  0.50649  0.93676  0.68554  1.0000
  O   O21       1.0  0.25007  0.85734  0.11324  1.0000
  O   O22       1.0  0.74995  0.14265  0.88677  1.0000
  O   O23       1.0  0.18550  0.95630  0.90627  1.0000
  O   O24       1.0  0.81450  0.04371  0.09375  1.0000
  O   O25       1.0  0.21755  0.58992  0.25677  1.0000
  O   O26       1.0  0.78245  0.41007  0.74324  1.0000
