data_image0
_chemical_formula_structural       Er2CuH20C32N4O28
_chemical_formula_sum              "Er2 Cu1 H20 C32 N4 O28"
_cell_length_a       10.1863
_cell_length_b       10.7175
_cell_length_c       11.2163
_cell_angle_alpha    86.3779
_cell_angle_beta     75.9526
_cell_angle_gamma    68.9514

_space_group_name_H-M_alt    "P 1"
_space_group_IT_number       1

loop_
  _space_group_symop_operation_xyz
  'x, y, z'

loop_
  _atom_site_type_symbol
  _atom_site_label
  _atom_site_symmetry_multiplicity
  _atom_site_fract_x
  _atom_site_fract_y
  _atom_site_fract_z
  _atom_site_occupancy
  Er  Er1       1.0  0.58743  0.59899  0.63141  1.0000
  Er  Er2       1.0  0.41256  0.40100  0.36859  1.0000
  Cu  Cu1       1.0  0.99999  0.50000  0.50000  1.0000
  H   H1        1.0  0.36723  0.97963  0.46805  1.0000
  H   H2        1.0  0.63277  0.02037  0.53196  1.0000
  H   H3        1.0  0.97146  0.17277  0.34869  1.0000
  H   H4        1.0  0.02855  0.82724  0.65129  1.0000
  H   H5        1.0  0.17216  0.74315  0.32653  1.0000
  H   H6        1.0  0.82785  0.25684  0.67347  1.0000
  H   H7        1.0  0.67261  0.47508  0.94767  1.0000
  H   H8        1.0  0.32739  0.52494  0.05234  1.0000
  H   H9        1.0  0.93221  0.31064  0.21088  1.0000
  H   H10       1.0  0.06779  0.68936  0.78913  1.0000
  H   H11       1.0  0.13966  0.33786  0.83199  1.0000
  H   H12       1.0  0.86034  0.66215  0.16802  1.0000
  H   H13       1.0  0.50827  0.76817  0.85581  1.0000
  H   H14       1.0  0.49177  0.23189  0.14416  1.0000
  H   H15       1.0  0.57158  0.83696  0.74017  1.0000
  H   H16       1.0  0.42836  0.16306  0.25974  1.0000
  H   H17       1.0  0.79753  0.56318  0.38480  1.0000
  H   H18       1.0  0.20245  0.43681  0.61521  1.0000
  H   H19       1.0  0.71732  0.46014  0.38703  1.0000
  H   H20       1.0  0.28268  0.53985  0.61297  1.0000
  C   C1        1.0  0.28071  0.84902  0.40033  1.0000
  C   C2        1.0  0.71929  0.15098  0.59967  1.0000
  C   C3        1.0  0.28179  0.97458  0.42806  1.0000
  C   C4        1.0  0.71823  0.02541  0.57193  1.0000
  C   C5        1.0  0.17163  0.09140  0.40823  1.0000
  C   C6        1.0  0.82838  0.90858  0.59176  1.0000
  C   C7        1.0  0.06056  0.08310  0.36013  1.0000
  C   C8        1.0  0.93945  0.91690  0.63988  1.0000
  C   C9        1.0  0.06479  0.95845  0.32845  1.0000
  C   C10       1.0  0.93523  0.04154  0.67155  1.0000
  C   C11       1.0  0.17261  0.84029  0.34838  1.0000
  C   C12       1.0  0.82742  0.15970  0.65161  1.0000
  C   C13       1.0  0.39076  0.72382  0.43392  1.0000
  C   C14       1.0  0.60923  0.27617  0.56608  1.0000
  C   C15       1.0  0.16721  0.22829  0.43583  1.0000
  C   C16       1.0  0.83278  0.77170  0.56415  1.0000
  C   C17       1.0  0.90478  0.41470  0.87667  1.0000
  C   C18       1.0  0.09522  0.58531  0.12335  1.0000
  C   C19       1.0  0.77880  0.43222  0.96892  1.0000
  C   C20       1.0  0.22120  0.56780  0.03110  1.0000
  C   C21       1.0  0.78850  0.39430  0.08941  1.0000
  C   C22       1.0  0.21151  0.60570  0.91059  1.0000
  C   C23       1.0  0.92385  0.33873  0.11755  1.0000
  C   C24       1.0  0.07615  0.66127  0.88246  1.0000
  C   C25       1.0  0.04788  0.31911  0.02329  1.0000
  C   C26       1.0  0.95212  0.68091  0.97672  1.0000
  C   C27       1.0  0.04089  0.35568  0.90332  1.0000
  C   C28       1.0  0.95911  0.64434  0.09669  1.0000
  C   C29       1.0  0.89516  0.45879  0.74887  1.0000
  C   C30       1.0  0.10484  0.54121  0.25114  1.0000
  C   C31       1.0  0.65383  0.40906  0.18709  1.0000
  C   C32       1.0  0.34619  0.59093  0.81290  1.0000
  N   N1        1.0  0.94881  0.95356  0.27415  1.0000
  N   N2        1.0  0.05120  0.04644  0.72584  1.0000
  N   N3        1.0  0.19141  0.26024  0.05114  1.0000
  N   N4        1.0  0.80858  0.73976  0.94887  1.0000
  O   O1        1.0  0.40003  0.61156  0.39455  1.0000
  O   O2        1.0  0.59997  0.38844  0.60546  1.0000
  O   O3        1.0  0.46539  0.73921  0.50335  1.0000
  O   O4        1.0  0.53462  0.26078  0.49664  1.0000
  O   O5        1.0  0.28407  0.24763  0.42972  1.0000
  O   O6        1.0  0.71591  0.75237  0.57028  1.0000
  O   O7        1.0  0.03965  0.31634  0.46099  1.0000
  O   O8        1.0  0.96035  0.68365  0.53903  1.0000
  O   O9        1.0  0.87596  0.05790  0.23168  1.0000
  O   O10       1.0  0.12404  0.94210  0.76831  1.0000
  O   O11       1.0  0.93075  0.84492  0.27461  1.0000
  O   O12       1.0  0.06925  0.15508  0.72540  1.0000
  O   O13       1.0  0.01370  0.44882  0.67148  1.0000
  O   O14       1.0  0.98629  0.55117  0.32852  1.0000
  O   O15       1.0  0.77285  0.50284  0.72314  1.0000
  O   O16       1.0  0.22716  0.49715  0.27685  1.0000
  O   O17       1.0  0.53263  0.44385  0.15926  1.0000
  O   O18       1.0  0.46738  0.55614  0.84076  1.0000
  O   O19       1.0  0.66381  0.38075  0.29869  1.0000
  O   O20       1.0  0.33618  0.61923  0.70131  1.0000
  O   O21       1.0  0.19558  0.23707  0.16055  1.0000
  O   O22       1.0  0.80442  0.76292  0.83947  1.0000
  O   O23       1.0  0.30043  0.23858  0.96536  1.0000
  O   O24       1.0  0.69957  0.76142  0.03466  1.0000
  O   O25       1.0  0.50575  0.78833  0.77035  1.0000
  O   O26       1.0  0.49422  0.21167  0.22963  1.0000
  O   O27       1.0  0.73786  0.51933  0.43992  1.0000
  O   O28       1.0  0.26213  0.48066  0.56009  1.0000
