data_image0
_chemical_formula_structural       Er2CuH16C32N4O26
_chemical_formula_sum              "Er2 Cu1 H16 C32 N4 O26"
_cell_length_a       9.79046
_cell_length_b       10.2278
_cell_length_c       10.9913
_cell_angle_alpha    69.9062
_cell_angle_beta     86.0752
_cell_angle_gamma    71.3138

_space_group_name_H-M_alt    "P 1"
_space_group_IT_number       1

loop_
  _space_group_symop_operation_xyz
  'x, y, z'

loop_
  _atom_site_type_symbol
  _atom_site_label
  _atom_site_symmetry_multiplicity
  _atom_site_fract_x
  _atom_site_fract_y
  _atom_site_fract_z
  _atom_site_occupancy
  Er  Er1       1.0  0.40289  0.40776  0.41705  1.0000
  Er  Er2       1.0  0.59710  0.59224  0.58295  1.0000
  Cu  Cu1       1.0  0.50000  0.00000  0.50000  1.0000
  H   H1        1.0  0.91702  0.36644  0.48172  1.0000
  H   H2        1.0  0.08298  0.63355  0.51829  1.0000
  H   H3        1.0  0.81164  0.96591  0.66496  1.0000
  H   H4        1.0  0.18836  0.03409  0.33505  1.0000
  H   H5        1.0  0.25460  0.95485  0.65123  1.0000
  H   H6        1.0  0.74541  0.04515  0.34878  1.0000
  H   H7        1.0  0.45742  0.37876  0.97582  1.0000
  H   H8        1.0  0.54258  0.62125  0.02417  1.0000
  H   H9        1.0  0.34630  0.99260  0.20163  1.0000
  H   H10       1.0  0.65370  0.00741  0.79836  1.0000
  H   H11       1.0  0.29451  0.15103  0.78500  1.0000
  H   H12       1.0  0.70549  0.84897  0.21499  1.0000
  H   H13       1.0  0.22489  0.67519  0.18624  1.0000
  H   H14       1.0  0.77511  0.32482  0.81376  1.0000
  H   H15       1.0  0.13000  0.57042  0.25243  1.0000
  H   H16       1.0  0.86999  0.42959  0.74757  1.0000
  C   C1        1.0  0.09689  0.16880  0.55824  1.0000
  C   C2        1.0  0.90311  0.83120  0.44177  1.0000
  C   C3        1.0  0.94964  0.24858  0.53372  1.0000
  C   C4        1.0  0.05036  0.75142  0.46629  1.0000
  C   C5        1.0  0.84677  0.17578  0.56989  1.0000
  C   C6        1.0  0.15322  0.82422  0.43012  1.0000
  C   C7        1.0  0.88974  0.02506  0.63838  1.0000
  C   C8        1.0  0.11026  0.97494  0.36163  1.0000
  C   C9        1.0  0.03537  0.95041  0.67148  1.0000
  C   C10       1.0  0.96462  0.04959  0.32853  1.0000
  C   C11       1.0  0.14108  0.01843  0.62934  1.0000
  C   C12       1.0  0.85892  0.98156  0.37066  1.0000
  C   C13       1.0  0.20287  0.24780  0.50253  1.0000
  C   C14       1.0  0.79713  0.75220  0.49748  1.0000
  C   C15       1.0  0.69245  0.25697  0.52772  1.0000
  C   C16       1.0  0.30755  0.74303  0.47229  1.0000
  C   C17       1.0  0.38102  0.27287  0.86785  1.0000
  C   C18       1.0  0.61898  0.72713  0.13214  1.0000
  C   C19       1.0  0.41536  0.29008  0.98231  1.0000
  C   C20       1.0  0.58465  0.70992  0.01768  1.0000
  C   C21       1.0  0.40176  0.18970  0.10301  1.0000
  C   C22       1.0  0.59825  0.81030  0.89698  1.0000
  C   C23       1.0  0.34997  0.07536  0.10910  1.0000
  C   C24       1.0  0.65004  0.92464  0.89089  1.0000
  C   C25       1.0  0.30489  0.06785  0.99530  1.0000
  C   C26       1.0  0.69512  0.93215  0.00469  1.0000
  C   C27       1.0  0.32136  0.16368  0.87382  1.0000
  C   C28       1.0  0.67864  0.83632  0.12617  1.0000
  C   C29       1.0  0.41722  0.36340  0.73694  1.0000
  C   C30       1.0  0.58278  0.63660  0.26305  1.0000
  C   C31       1.0  0.44375  0.19360  0.23069  1.0000
  C   C32       1.0  0.55625  0.80640  0.76931  1.0000
  N   N1        1.0  0.07846  0.79236  0.74854  1.0000
  N   N2        1.0  0.92154  0.20764  0.25148  1.0000
  N   N3        1.0  0.24385  0.95154  0.00533  1.0000
  N   N4        1.0  0.75615  0.04846  0.99466  1.0000
  O   O1        1.0  0.33667  0.17837  0.49425  1.0000
  O   O2        1.0  0.66332  0.82163  0.50576  1.0000
  O   O3        1.0  0.16246  0.38667  0.46060  1.0000
  O   O4        1.0  0.83754  0.61333  0.53941  1.0000
  O   O5        1.0  0.63988  0.39082  0.52091  1.0000
  O   O6        1.0  0.36012  0.60918  0.47909  1.0000
  O   O7        1.0  0.61554  0.19523  0.49367  1.0000
  O   O8        1.0  0.38445  0.80477  0.50633  1.0000
  O   O9        1.0  0.98035  0.73815  0.79067  1.0000
  O   O10       1.0  0.01964  0.26185  0.20934  1.0000
  O   O11       1.0  0.20892  0.72293  0.76571  1.0000
  O   O12       1.0  0.79107  0.27706  0.23431  1.0000
  O   O13       1.0  0.38502  0.33639  0.64025  1.0000
  O   O14       1.0  0.61498  0.66361  0.35974  1.0000
  O   O15       1.0  0.48144  0.45403  0.73518  1.0000
  O   O16       1.0  0.51856  0.54598  0.26482  1.0000
  O   O17       1.0  0.42562  0.31384  0.24640  1.0000
  O   O18       1.0  0.57439  0.68616  0.75360  1.0000
  O   O19       1.0  0.49419  0.06378  0.31451  1.0000
  O   O20       1.0  0.50581  0.93622  0.68548  1.0000
  O   O21       1.0  0.24584  0.85941  0.11563  1.0000
  O   O22       1.0  0.75416  0.14059  0.88436  1.0000
  O   O23       1.0  0.19307  0.94993  0.90616  1.0000
  O   O24       1.0  0.80693  0.05007  0.09383  1.0000
  O   O25       1.0  0.22071  0.58774  0.25855  1.0000
  O   O26       1.0  0.77930  0.41226  0.74145  1.0000
