data_image0
_chemical_formula_structural       Nd2CuH16C32N4O26
_chemical_formula_sum              "Nd2 Cu1 H16 C32 N4 O26"
_cell_length_a       9.89652
_cell_length_b       10.4316
_cell_length_c       11.0684
_cell_angle_alpha    70.0436
_cell_angle_beta     84.5231
_cell_angle_gamma    70.5698

_space_group_name_H-M_alt    "P 1"
_space_group_IT_number       1

loop_
  _space_group_symop_operation_xyz
  'x, y, z'

loop_
  _atom_site_type_symbol
  _atom_site_label
  _atom_site_symmetry_multiplicity
  _atom_site_fract_x
  _atom_site_fract_y
  _atom_site_fract_z
  _atom_site_occupancy
  Nd  Nd1       1.0  0.40376  0.40744  0.41444  1.0000
  Nd  Nd2       1.0  0.59624  0.59256  0.58556  1.0000
  Cu  Cu1       1.0  0.50000  1.00000  0.50000  1.0000
  H   H1        1.0  0.91811  0.35703  0.48237  1.0000
  H   H2        1.0  0.08189  0.64297  0.51763  1.0000
  H   H3        1.0  0.81334  0.96528  0.66542  1.0000
  H   H4        1.0  0.18666  0.03473  0.33458  1.0000
  H   H5        1.0  0.25207  0.95487  0.65242  1.0000
  H   H6        1.0  0.74793  0.04513  0.34758  1.0000
  H   H7        1.0  0.45846  0.36357  0.98150  1.0000
  H   H8        1.0  0.54155  0.63642  0.01851  1.0000
  H   H9        1.0  0.34764  0.98472  0.20237  1.0000
  H   H10       1.0  0.65237  0.01528  0.79763  1.0000
  H   H11       1.0  0.28814  0.15188  0.79022  1.0000
  H   H12       1.0  0.71187  0.84812  0.20979  1.0000
  H   H13       1.0  0.12457  0.57357  0.24577  1.0000
  H   H14       1.0  0.87544  0.42642  0.75423  1.0000
  H   H15       1.0  0.21571  0.67959  0.18296  1.0000
  H   H16       1.0  0.78429  0.32040  0.81704  1.0000
  C   C1        1.0  0.09605  0.16417  0.55985  1.0000
  C   C2        1.0  0.90394  0.83584  0.44014  1.0000
  C   C3        1.0  0.95001  0.24195  0.53520  1.0000
  C   C4        1.0  0.04999  0.75806  0.46480  1.0000
  C   C5        1.0  0.84809  0.17075  0.57140  1.0000
  C   C6        1.0  0.15191  0.82926  0.42859  1.0000
  C   C7        1.0  0.89065  0.02324  0.63942  1.0000
  C   C8        1.0  0.10935  0.97676  0.36058  1.0000
  C   C9        1.0  0.03469  0.95047  0.67208  1.0000
  C   C10       1.0  0.96531  0.04954  0.32791  1.0000
  C   C11       1.0  0.13966  0.01719  0.63075  1.0000
  C   C12       1.0  0.86034  0.98281  0.36925  1.0000
  C   C13       1.0  0.20083  0.24213  0.50306  1.0000
  C   C14       1.0  0.79916  0.75787  0.49695  1.0000
  C   C15       1.0  0.69543  0.24914  0.52950  1.0000
  C   C16       1.0  0.30457  0.75085  0.47050  1.0000
  C   C17       1.0  0.37844  0.26562  0.87326  1.0000
  C   C18       1.0  0.62157  0.73438  0.12674  1.0000
  C   C19       1.0  0.41561  0.27813  0.98697  1.0000
  C   C20       1.0  0.58439  0.72186  0.01303  1.0000
  C   C21       1.0  0.40309  0.17785  0.10581  1.0000
  C   C22       1.0  0.59691  0.82215  0.89419  1.0000
  C   C23       1.0  0.35065  0.06716  0.11127  1.0000
  C   C24       1.0  0.64935  0.93284  0.88874  1.0000
  C   C25       1.0  0.30324  0.06389  0.99848  1.0000
  C   C26       1.0  0.69676  0.93611  0.00152  1.0000
  C   C27       1.0  0.31768  0.16052  0.87860  1.0000
  C   C28       1.0  0.68233  0.83948  0.12141  1.0000
  C   C29       1.0  0.41210  0.35837  0.74391  1.0000
  C   C30       1.0  0.58791  0.64162  0.25609  1.0000
  C   C31       1.0  0.44646  0.18141  0.23091  1.0000
  C   C32       1.0  0.55354  0.81859  0.76909  1.0000
  N   N1        1.0  0.07705  0.79540  0.74724  1.0000
  N   N2        1.0  0.92294  0.20461  0.25276  1.0000
  N   N3        1.0  0.24038  0.95217  0.00741  1.0000
  N   N4        1.0  0.75962  0.04783  0.99260  1.0000
  O   O1        1.0  0.33522  0.17374  0.49773  1.0000
  O   O2        1.0  0.66477  0.82626  0.50227  1.0000
  O   O3        1.0  0.15747  0.37823  0.45789  1.0000
  O   O4        1.0  0.84253  0.62177  0.54211  1.0000
  O   O5        1.0  0.64316  0.38294  0.51775  1.0000
  O   O6        1.0  0.35683  0.61706  0.48225  1.0000
  O   O7        1.0  0.62134  0.18436  0.50152  1.0000
  O   O8        1.0  0.37866  0.81564  0.49847  1.0000
  O   O9        1.0  0.97935  0.74251  0.78882  1.0000
  O   O10       1.0  0.02065  0.25749  0.21118  1.0000
  O   O11       1.0  0.20662  0.72715  0.76315  1.0000
  O   O12       1.0  0.79338  0.27286  0.23684  1.0000
  O   O13       1.0  0.37499  0.33978  0.64617  1.0000
  O   O14       1.0  0.62502  0.66021  0.35383  1.0000
  O   O15       1.0  0.47939  0.44308  0.74372  1.0000
  O   O16       1.0  0.52062  0.55691  0.25628  1.0000
  O   O17       1.0  0.43665  0.29954  0.24334  1.0000
  O   O18       1.0  0.56336  0.70046  0.75666  1.0000
  O   O19       1.0  0.48971  0.05557  0.31606  1.0000
  O   O20       1.0  0.51028  0.94444  0.68395  1.0000
  O   O21       1.0  0.24603  0.85778  0.11488  1.0000
  O   O22       1.0  0.75397  0.14222  0.88512  1.0000
  O   O23       1.0  0.18470  0.95673  0.90999  1.0000
  O   O24       1.0  0.81529  0.04327  0.09002  1.0000
  O   O25       1.0  0.21364  0.59108  0.25201  1.0000
  O   O26       1.0  0.78636  0.40892  0.74798  1.0000
