data_image0
_chemical_formula_structural       Tb2CuH16C32N4O26
_chemical_formula_sum              "Tb2 Cu1 H16 C32 N4 O26"
_cell_length_a       9.82517
_cell_length_b       10.2536
_cell_length_c       11.002
_cell_angle_alpha    70.1864
_cell_angle_beta     85.1743
_cell_angle_gamma    71.3273

_space_group_name_H-M_alt    "P 1"
_space_group_IT_number       1

loop_
  _space_group_symop_operation_xyz
  'x, y, z'

loop_
  _atom_site_type_symbol
  _atom_site_label
  _atom_site_symmetry_multiplicity
  _atom_site_fract_x
  _atom_site_fract_y
  _atom_site_fract_z
  _atom_site_occupancy
  Tb  Tb1       1.0  0.40520  0.90608  0.41700  1.0000
  Tb  Tb2       1.0  0.59479  0.09392  0.58300  1.0000
  Cu  Cu1       1.0  0.50000  0.50000  0.50000  1.0000
  H   H1        1.0  0.91841  0.86383  0.48399  1.0000
  H   H2        1.0  0.08159  0.13617  0.51600  1.0000
  H   H3        1.0  0.80904  0.46636  0.66231  1.0000
  H   H4        1.0  0.19096  0.53365  0.33769  1.0000
  H   H5        1.0  0.25049  0.45490  0.65283  1.0000
  H   H6        1.0  0.74951  0.54510  0.34717  1.0000
  H   H7        1.0  0.46223  0.87109  0.97838  1.0000
  H   H8        1.0  0.53777  0.12890  0.02162  1.0000
  H   H9        1.0  0.34943  0.48720  0.20349  1.0000
  H   H10       1.0  0.65057  0.51280  0.79651  1.0000
  H   H11       1.0  0.29222  0.64900  0.78913  1.0000
  H   H12       1.0  0.70778  0.35099  0.21087  1.0000
  H   H13       1.0  0.22152  0.17336  0.18892  1.0000
  H   H14       1.0  0.77848  0.82664  0.81108  1.0000
  H   H15       1.0  0.12534  0.07331  0.26419  1.0000
  H   H16       1.0  0.87467  0.92669  0.73581  1.0000
  C   C1        1.0  0.09561  0.66762  0.56105  1.0000
  C   C2        1.0  0.90439  0.33239  0.43894  1.0000
  C   C3        1.0  0.94943  0.74688  0.53592  1.0000
  C   C4        1.0  0.05056  0.25312  0.46408  1.0000
  C   C5        1.0  0.84603  0.67477  0.57042  1.0000
  C   C6        1.0  0.15397  0.32523  0.42958  1.0000
  C   C7        1.0  0.88744  0.52503  0.63765  1.0000
  C   C8        1.0  0.11256  0.47497  0.36235  1.0000
  C   C9        1.0  0.03161  0.45083  0.67122  1.0000
  C   C10       1.0  0.96839  0.54917  0.32877  1.0000
  C   C11       1.0  0.13799  0.51831  0.63105  1.0000
  C   C12       1.0  0.86201  0.48170  0.36895  1.0000
  C   C13       1.0  0.20204  0.74622  0.50537  1.0000
  C   C14       1.0  0.79796  0.25377  0.49463  1.0000
  C   C15       1.0  0.69336  0.75460  0.52742  1.0000
  C   C16       1.0  0.30663  0.24540  0.47258  1.0000
  C   C17       1.0  0.38218  0.76801  0.87108  1.0000
  C   C18       1.0  0.61782  0.23199  0.12892  1.0000
  C   C19       1.0  0.41895  0.78351  0.98493  1.0000
  C   C20       1.0  0.58106  0.21648  0.01507  1.0000
  C   C21       1.0  0.40608  0.68293  0.10505  1.0000
  C   C22       1.0  0.59392  0.31706  0.89495  1.0000
  C   C23       1.0  0.35263  0.56998  0.11143  1.0000
  C   C24       1.0  0.64737  0.43002  0.88857  1.0000
  C   C25       1.0  0.30512  0.56416  0.99855  1.0000
  C   C26       1.0  0.69488  0.43584  0.00145  1.0000
  C   C27       1.0  0.32097  0.66024  0.87748  1.0000
  C   C28       1.0  0.67903  0.33976  0.12252  1.0000
  C   C29       1.0  0.41735  0.85946  0.74043  1.0000
  C   C30       1.0  0.58266  0.14053  0.25957  1.0000
  C   C31       1.0  0.44969  0.68694  0.23125  1.0000
  C   C32       1.0  0.55031  0.31306  0.76876  1.0000
  N   N1        1.0  0.07261  0.29346  0.74547  1.0000
  N   N2        1.0  0.92738  0.70655  0.25452  1.0000
  N   N3        1.0  0.24154  0.44991  0.00891  1.0000
  N   N4        1.0  0.75846  0.55009  0.99110  1.0000
  O   O1        1.0  0.33473  0.67721  0.49336  1.0000
  O   O2        1.0  0.66527  0.32279  0.50664  1.0000
  O   O3        1.0  0.16217  0.88421  0.46630  1.0000
  O   O4        1.0  0.83782  0.11579  0.53370  1.0000
  O   O5        1.0  0.64120  0.88924  0.51754  1.0000
  O   O6        1.0  0.35880  0.11076  0.48246  1.0000
  O   O7        1.0  0.61798  0.69028  0.49633  1.0000
  O   O8        1.0  0.38202  0.30972  0.50366  1.0000
  O   O9        1.0  0.97376  0.23939  0.78430  1.0000
  O   O10       1.0  0.02624  0.76061  0.21570  1.0000
  O   O11       1.0  0.20222  0.22453  0.76320  1.0000
  O   O12       1.0  0.79778  0.77548  0.23680  1.0000
  O   O13       1.0  0.38452  0.83411  0.64352  1.0000
  O   O14       1.0  0.61548  0.16588  0.35648  1.0000
  O   O15       1.0  0.48153  0.94974  0.73871  1.0000
  O   O16       1.0  0.51847  0.05025  0.26129  1.0000
  O   O17       1.0  0.43592  0.80668  0.24589  1.0000
  O   O18       1.0  0.56408  0.19333  0.75411  1.0000
  O   O19       1.0  0.49679  0.55848  0.31513  1.0000
  O   O20       1.0  0.50322  0.44152  0.68487  1.0000
  O   O21       1.0  0.24446  0.35715  0.11825  1.0000
  O   O22       1.0  0.75554  0.64285  0.88175  1.0000
  O   O23       1.0  0.18790  0.45059  0.91092  1.0000
  O   O24       1.0  0.81210  0.54941  0.08908  1.0000
  O   O25       1.0  0.22144  0.08193  0.25706  1.0000
  O   O26       1.0  0.77856  0.91807  0.74295  1.0000
