data_image0
_chemical_formula_structural       Nd2CuH20C32N4O28
_chemical_formula_sum              "Nd2 Cu1 H20 C32 N4 O28"
_cell_length_a       10.4392
_cell_length_b       10.7275
_cell_length_c       11.4894
_cell_angle_alpha    83.4523
_cell_angle_beta     74.0022
_cell_angle_gamma    68.3455

_space_group_name_H-M_alt    "P 1"
_space_group_IT_number       1

loop_
  _space_group_symop_operation_xyz
  'x, y, z'

loop_
  _atom_site_type_symbol
  _atom_site_label
  _atom_site_symmetry_multiplicity
  _atom_site_fract_x
  _atom_site_fract_y
  _atom_site_fract_z
  _atom_site_occupancy
  Nd  Nd1       1.0  0.58782  0.60884  0.62524  1.0000
  Nd  Nd2       1.0  0.41218  0.39117  0.37476  1.0000
  Cu  Cu1       1.0  0.00000  0.50000  0.50000  1.0000
  H   H1        1.0  0.35727  0.98613  0.45117  1.0000
  H   H2        1.0  0.64274  0.01387  0.54882  1.0000
  H   H3        1.0  0.95710  0.18211  0.35714  1.0000
  H   H4        1.0  0.04290  0.81788  0.64286  1.0000
  H   H5        1.0  0.16537  0.75247  0.32428  1.0000
  H   H6        1.0  0.83461  0.24752  0.67575  1.0000
  H   H7        1.0  0.67762  0.47135  0.94565  1.0000
  H   H8        1.0  0.32238  0.52865  0.05434  1.0000
  H   H9        1.0  0.92744  0.31802  0.20741  1.0000
  H   H10       1.0  0.07257  0.68197  0.79258  1.0000
  H   H11       1.0  0.13753  0.33664  0.82998  1.0000
  H   H12       1.0  0.86247  0.66337  0.17001  1.0000
  H   H13       1.0  0.45798  0.85257  0.80874  1.0000
  H   H14       1.0  0.54201  0.14741  0.19128  1.0000
  H   H15       1.0  0.34534  0.88118  0.73291  1.0000
  H   H16       1.0  0.65466  0.11882  0.26708  1.0000
  H   H17       1.0  0.71592  0.47003  0.37393  1.0000
  H   H18       1.0  0.28407  0.52997  0.62607  1.0000
  H   H19       1.0  0.81344  0.55568  0.37254  1.0000
  H   H20       1.0  0.18654  0.44433  0.62745  1.0000
  C   C1        1.0  0.27205  0.85621  0.39141  1.0000
  C   C2        1.0  0.72795  0.14379  0.60860  1.0000
  C   C3        1.0  0.27148  0.98126  0.41734  1.0000
  C   C4        1.0  0.72852  0.01874  0.58266  1.0000
  C   C5        1.0  0.15933  0.09866  0.40380  1.0000
  C   C6        1.0  0.84066  0.90134  0.59620  1.0000
  C   C7        1.0  0.04791  0.09214  0.36278  1.0000
  C   C8        1.0  0.95209  0.90786  0.63723  1.0000
  C   C9        1.0  0.05434  0.96830  0.33114  1.0000
  C   C10       1.0  0.94566  0.03170  0.66887  1.0000
  C   C11       1.0  0.16456  0.84913  0.34509  1.0000
  C   C12       1.0  0.83544  0.15087  0.65492  1.0000
  C   C13       1.0  0.38228  0.72974  0.42381  1.0000
  C   C14       1.0  0.61773  0.27027  0.57621  1.0000
  C   C15       1.0  0.15289  0.23309  0.43515  1.0000
  C   C16       1.0  0.84711  0.76691  0.56484  1.0000
  C   C17       1.0  0.90637  0.41240  0.87450  1.0000
  C   C18       1.0  0.09364  0.58761  0.12549  1.0000
  C   C19       1.0  0.78128  0.43041  0.96668  1.0000
  C   C20       1.0  0.21872  0.56959  0.03331  1.0000
  C   C21       1.0  0.78878  0.39544  0.08653  1.0000
  C   C22       1.0  0.21122  0.60456  0.91346  1.0000
  C   C23       1.0  0.92108  0.34334  0.11438  1.0000
  C   C24       1.0  0.07892  0.65666  0.88561  1.0000
  C   C25       1.0  0.04426  0.32250  0.02065  1.0000
  C   C26       1.0  0.95575  0.67749  0.97933  1.0000
  C   C27       1.0  0.03938  0.35554  0.90100  1.0000
  C   C28       1.0  0.96062  0.64446  0.09899  1.0000
  C   C29       1.0  0.89773  0.45301  0.74710  1.0000
  C   C30       1.0  0.10227  0.54699  0.25289  1.0000
  C   C31       1.0  0.65585  0.40789  0.18464  1.0000
  C   C32       1.0  0.34415  0.59211  0.81536  1.0000
  N   N1        1.0  0.93733  0.96423  0.28655  1.0000
  N   N2        1.0  0.06267  0.03576  0.71346  1.0000
  N   N3        1.0  0.18460  0.26471  0.04842  1.0000
  N   N4        1.0  0.81539  0.73529  0.95157  1.0000
  O   O1        1.0  0.39147  0.61808  0.38886  1.0000
  O   O2        1.0  0.60854  0.38192  0.61117  1.0000
  O   O3        1.0  0.45554  0.74487  0.48896  1.0000
  O   O4        1.0  0.54446  0.25516  0.51106  1.0000
  O   O5        1.0  0.26525  0.25113  0.43619  1.0000
  O   O6        1.0  0.73476  0.74887  0.56380  1.0000
  O   O7        1.0  0.02704  0.32144  0.45905  1.0000
  O   O8        1.0  0.97296  0.67856  0.54095  1.0000
  O   O9        1.0  0.84280  0.07405  0.27339  1.0000
  O   O10       1.0  0.15720  0.92593  0.72662  1.0000
  O   O11       1.0  0.93679  0.85423  0.26482  1.0000
  O   O12       1.0  0.06321  0.14576  0.73519  1.0000
  O   O13       1.0  0.01545  0.43848  0.66736  1.0000
  O   O14       1.0  0.98455  0.56152  0.33263  1.0000
  O   O15       1.0  0.77776  0.49794  0.72348  1.0000
  O   O16       1.0  0.22223  0.50209  0.27652  1.0000
  O   O17       1.0  0.53910  0.43342  0.15759  1.0000
  O   O18       1.0  0.46090  0.56660  0.84240  1.0000
  O   O19       1.0  0.66589  0.38519  0.29498  1.0000
  O   O20       1.0  0.33412  0.61481  0.70502  1.0000
  O   O21       1.0  0.18694  0.25335  0.15680  1.0000
  O   O22       1.0  0.81306  0.74665  0.84319  1.0000
  O   O23       1.0  0.29218  0.23147  0.96251  1.0000
  O   O24       1.0  0.70781  0.76853  0.03749  1.0000
  O   O25       1.0  0.44711  0.83673  0.73097  1.0000
  O   O26       1.0  0.55289  0.16327  0.26904  1.0000
  O   O27       1.0  0.73564  0.52811  0.42362  1.0000
  O   O28       1.0  0.26434  0.47189  0.57638  1.0000
