data_image0
_chemical_formula_structural       Sm2CuH16C32N4O26
_chemical_formula_sum              "Sm2 Cu1 H16 C32 N4 O26"
_cell_length_a       9.8553
_cell_length_b       10.4207
_cell_length_c       11.0712
_cell_angle_alpha    69.6383
_cell_angle_beta     84.8444
_cell_angle_gamma    70.7342

_space_group_name_H-M_alt    "P 1"
_space_group_IT_number       1

loop_
  _space_group_symop_operation_xyz
  'x, y, z'

loop_
  _atom_site_type_symbol
  _atom_site_label
  _atom_site_symmetry_multiplicity
  _atom_site_fract_x
  _atom_site_fract_y
  _atom_site_fract_z
  _atom_site_occupancy
  Sm  Sm1       1.0  0.40375  0.40745  0.41597  1.0000
  Sm  Sm2       1.0  0.59625  0.59255  0.58404  1.0000
  Cu  Cu1       1.0  0.50000  1.00000  0.50000  1.0000
  H   H1        1.0  0.92048  0.35876  0.48330  1.0000
  H   H2        1.0  0.07953  0.64124  0.51671  1.0000
  H   H3        1.0  0.81309  0.96606  0.66498  1.0000
  H   H4        1.0  0.18690  0.03395  0.33501  1.0000
  H   H5        1.0  0.25422  0.95331  0.65412  1.0000
  H   H6        1.0  0.74578  0.04669  0.34588  1.0000
  H   H7        1.0  0.45135  0.37259  0.97840  1.0000
  H   H8        1.0  0.54865  0.62741  0.02160  1.0000
  H   H9        1.0  0.34978  0.98705  0.20325  1.0000
  H   H10       1.0  0.65022  0.01295  0.79675  1.0000
  H   H11       1.0  0.29157  0.15080  0.78983  1.0000
  H   H12       1.0  0.70845  0.84920  0.21017  1.0000
  H   H13       1.0  0.22842  0.67718  0.18224  1.0000
  H   H14       1.0  0.77158  0.32282  0.81776  1.0000
  H   H15       1.0  0.15272  0.55664  0.21893  1.0000
  H   H16       1.0  0.84729  0.44336  0.78107  1.0000
  C   C1        1.0  0.09821  0.16395  0.56031  1.0000
  C   C2        1.0  0.90179  0.83605  0.43970  1.0000
  C   C3        1.0  0.95174  0.24285  0.53541  1.0000
  C   C4        1.0  0.04827  0.75715  0.46458  1.0000
  C   C5        1.0  0.84899  0.17183  0.57121  1.0000
  C   C6        1.0  0.15101  0.82817  0.42878  1.0000
  C   C7        1.0  0.89125  0.02356  0.63913  1.0000
  C   C8        1.0  0.10875  0.97645  0.36086  1.0000
  C   C9        1.0  0.03575  0.94973  0.67269  1.0000
  C   C10       1.0  0.96424  0.05027  0.32731  1.0000
  C   C11       1.0  0.14151  0.01626  0.63171  1.0000
  C   C12       1.0  0.85849  0.98374  0.36829  1.0000
  C   C13       1.0  0.20358  0.24210  0.50409  1.0000
  C   C14       1.0  0.79642  0.75790  0.49591  1.0000
  C   C15       1.0  0.69565  0.25173  0.52950  1.0000
  C   C16       1.0  0.30435  0.74828  0.47049  1.0000
  C   C17       1.0  0.37633  0.26985  0.87161  1.0000
  C   C18       1.0  0.62367  0.73015  0.12839  1.0000
  C   C19       1.0  0.41092  0.28483  0.98518  1.0000
  C   C20       1.0  0.58909  0.71516  0.01483  1.0000
  C   C21       1.0  0.39972  0.18398  0.10500  1.0000
  C   C22       1.0  0.60028  0.81601  0.89501  1.0000
  C   C23       1.0  0.35098  0.07029  0.11147  1.0000
  C   C24       1.0  0.64903  0.92971  0.88853  1.0000
  C   C25       1.0  0.30614  0.06422  0.99871  1.0000
  C   C26       1.0  0.69386  0.93578  0.00129  1.0000
  C   C27       1.0  0.31941  0.16133  0.87795  1.0000
  C   C28       1.0  0.68059  0.83867  0.12205  1.0000
  C   C29       1.0  0.40980  0.36290  0.74153  1.0000
  C   C30       1.0  0.59021  0.63709  0.25848  1.0000
  C   C31       1.0  0.44105  0.18884  0.23047  1.0000
  C   C32       1.0  0.55894  0.81116  0.76953  1.0000
  N   N1        1.0  0.07740  0.79447  0.74928  1.0000
  N   N2        1.0  0.92259  0.20553  0.25071  1.0000
  N   N3        1.0  0.24801  0.94854  0.00906  1.0000
  N   N4        1.0  0.75200  0.05146  0.99094  1.0000
  O   O1        1.0  0.33873  0.17372  0.50066  1.0000
  O   O2        1.0  0.66127  0.82628  0.49934  1.0000
  O   O3        1.0  0.16068  0.37851  0.45770  1.0000
  O   O4        1.0  0.83932  0.62149  0.54231  1.0000
  O   O5        1.0  0.64275  0.38377  0.52314  1.0000
  O   O6        1.0  0.35725  0.61624  0.47686  1.0000
  O   O7        1.0  0.62121  0.18993  0.49654  1.0000
  O   O8        1.0  0.37880  0.81007  0.50345  1.0000
  O   O9        1.0  0.97891  0.74142  0.78905  1.0000
  O   O10       1.0  0.02108  0.25860  0.21094  1.0000
  O   O11       1.0  0.20716  0.72597  0.76878  1.0000
  O   O12       1.0  0.79284  0.27402  0.23121  1.0000
  O   O13       1.0  0.37636  0.34034  0.64448  1.0000
  O   O14       1.0  0.62366  0.65964  0.35553  1.0000
  O   O15       1.0  0.47357  0.45127  0.74025  1.0000
  O   O16       1.0  0.52644  0.54873  0.25975  1.0000
  O   O17       1.0  0.42453  0.30830  0.24332  1.0000
  O   O18       1.0  0.57546  0.69170  0.75667  1.0000
  O   O19       1.0  0.48950  0.06229  0.31524  1.0000
  O   O20       1.0  0.51049  0.93772  0.68477  1.0000
  O   O21       1.0  0.25534  0.85429  0.11781  1.0000
  O   O22       1.0  0.74466  0.14571  0.88219  1.0000
  O   O23       1.0  0.19451  0.94932  0.91191  1.0000
  O   O24       1.0  0.80550  0.05068  0.08808  1.0000
  O   O25       1.0  0.21621  0.59214  0.25142  1.0000
  O   O26       1.0  0.78379  0.40786  0.74858  1.0000
