data_image0
_chemical_formula_structural       Sm2CuH20C32N4O28
_chemical_formula_sum              "Sm2 Cu1 H20 C32 N4 O28"
_cell_length_a       10.2613
_cell_length_b       10.7543
_cell_length_c       11.3765
_cell_angle_alpha    86.283
_cell_angle_beta     75.0275
_cell_angle_gamma    68.1919

_space_group_name_H-M_alt    "P 1"
_space_group_IT_number       1

loop_
  _space_group_symop_operation_xyz
  'x, y, z'

loop_
  _atom_site_type_symbol
  _atom_site_label
  _atom_site_symmetry_multiplicity
  _atom_site_fract_x
  _atom_site_fract_y
  _atom_site_fract_z
  _atom_site_occupancy
  Sm  Sm1       1.0  0.58320  0.61075  0.63157  1.0000
  Sm  Sm2       1.0  0.41680  0.38924  0.36843  1.0000
  Cu  Cu1       1.0  0.00000  0.50001  0.50000  1.0000
  H   H1        1.0  0.36277  0.98205  0.45087  1.0000
  H   H2        1.0  0.63721  0.01794  0.54915  1.0000
  H   H3        1.0  0.96102  0.17981  0.34821  1.0000
  H   H4        1.0  0.03899  0.82020  0.65179  1.0000
  H   H5        1.0  0.15673  0.74771  0.33114  1.0000
  H   H6        1.0  0.84326  0.25230  0.66884  1.0000
  H   H7        1.0  0.67833  0.47221  0.94375  1.0000
  H   H8        1.0  0.32167  0.52778  0.05625  1.0000
  H   H9        1.0  0.93774  0.31127  0.20135  1.0000
  H   H10       1.0  0.06226  0.68873  0.79865  1.0000
  H   H11       1.0  0.14598  0.33703  0.82510  1.0000
  H   H12       1.0  0.85402  0.66297  0.17490  1.0000
  H   H13       1.0  0.45851  0.84347  0.82915  1.0000
  H   H14       1.0  0.54149  0.15654  0.17084  1.0000
  H   H15       1.0  0.34315  0.88012  0.75144  1.0000
  H   H16       1.0  0.65685  0.11989  0.24854  1.0000
  H   H17       1.0  0.80403  0.56158  0.37938  1.0000
  H   H18       1.0  0.19596  0.43843  0.62062  1.0000
  H   H19       1.0  0.71544  0.46742  0.37828  1.0000
  H   H20       1.0  0.28456  0.53259  0.62172  1.0000
  C   C1        1.0  0.27088  0.85203  0.39405  1.0000
  C   C2        1.0  0.72911  0.14798  0.60596  1.0000
  C   C3        1.0  0.27513  0.97739  0.41615  1.0000
  C   C4        1.0  0.72486  0.02262  0.58386  1.0000
  C   C5        1.0  0.16495  0.09546  0.39841  1.0000
  C   C6        1.0  0.83504  0.90454  0.60161  1.0000
  C   C7        1.0  0.05097  0.08899  0.35665  1.0000
  C   C8        1.0  0.94903  0.91102  0.64336  1.0000
  C   C9        1.0  0.05214  0.96429  0.32978  1.0000
  C   C10       1.0  0.94786  0.03572  0.67022  1.0000
  C   C11       1.0  0.16007  0.84461  0.34823  1.0000
  C   C12       1.0  0.83991  0.15539  0.65178  1.0000
  C   C13       1.0  0.37931  0.72681  0.43016  1.0000
  C   C14       1.0  0.62066  0.27320  0.56984  1.0000
  C   C15       1.0  0.16077  0.23103  0.42805  1.0000
  C   C16       1.0  0.83923  0.76896  0.57196  1.0000
  C   C17       1.0  0.91049  0.41310  0.87168  1.0000
  C   C18       1.0  0.08952  0.58689  0.12832  1.0000
  C   C19       1.0  0.78430  0.42989  0.96402  1.0000
  C   C20       1.0  0.21571  0.57008  0.03598  1.0000
  C   C21       1.0  0.79383  0.39236  0.08277  1.0000
  C   C22       1.0  0.20618  0.60764  0.91723  1.0000
  C   C23       1.0  0.92938  0.33865  0.10921  1.0000
  C   C24       1.0  0.07063  0.66134  0.89078  1.0000
  C   C25       1.0  0.05363  0.31908  0.01491  1.0000
  C   C26       1.0  0.94636  0.68092  0.98509  1.0000
  C   C27       1.0  0.04681  0.35485  0.89647  1.0000
  C   C28       1.0  0.95319  0.64514  0.10353  1.0000
  C   C29       1.0  0.89999  0.45661  0.74584  1.0000
  C   C30       1.0  0.10002  0.54338  0.25417  1.0000
  C   C31       1.0  0.65949  0.40495  0.18092  1.0000
  C   C32       1.0  0.34053  0.59502  0.81907  1.0000
  N   N1        1.0  0.93100  0.96086  0.28628  1.0000
  N   N2        1.0  0.06900  0.03916  0.71372  1.0000
  N   N3        1.0  0.19755  0.25994  0.04089  1.0000
  N   N4        1.0  0.80246  0.74006  0.95911  1.0000
  O   O1        1.0  0.39140  0.61363  0.39236  1.0000
  O   O2        1.0  0.60860  0.38637  0.60764  1.0000
  O   O3        1.0  0.44825  0.74507  0.50102  1.0000
  O   O4        1.0  0.55174  0.25491  0.49898  1.0000
  O   O5        1.0  0.27548  0.24781  0.42945  1.0000
  O   O6        1.0  0.72451  0.75219  0.57057  1.0000
  O   O7        1.0  0.03276  0.32133  0.45062  1.0000
  O   O8        1.0  0.96724  0.67867  0.54937  1.0000
  O   O9        1.0  0.85025  0.06890  0.25307  1.0000
  O   O10       1.0  0.14975  0.93111  0.74692  1.0000
  O   O11       1.0  0.91376  0.85319  0.28514  1.0000
  O   O12       1.0  0.08624  0.14683  0.71483  1.0000
  O   O13       1.0  0.01930  0.43815  0.66539  1.0000
  O   O14       1.0  0.98070  0.56186  0.33461  1.0000
  O   O15       1.0  0.77681  0.50733  0.72411  1.0000
  O   O16       1.0  0.22321  0.49267  0.27588  1.0000
  O   O17       1.0  0.53995  0.43193  0.15415  1.0000
  O   O18       1.0  0.46006  0.56807  0.84586  1.0000
  O   O19       1.0  0.67108  0.38094  0.29108  1.0000
  O   O20       1.0  0.32892  0.61906  0.70892  1.0000
  O   O21       1.0  0.20164  0.24114  0.14904  1.0000
  O   O22       1.0  0.79837  0.75887  0.85096  1.0000
  O   O23       1.0  0.30629  0.23299  0.95375  1.0000
  O   O24       1.0  0.69372  0.76700  0.04626  1.0000
  O   O25       1.0  0.44662  0.83241  0.74888  1.0000
  O   O26       1.0  0.55338  0.16759  0.25111  1.0000
  O   O27       1.0  0.73136  0.52876  0.43051  1.0000
  O   O28       1.0  0.26864  0.47124  0.56949  1.0000
