data_image0
_chemical_formula_structural       Gd2CuH20C32N4O28
_chemical_formula_sum              "Gd2 Cu1 H20 C32 N4 O28"
_cell_length_a       10.3505
_cell_length_b       10.6594
_cell_length_c       11.3975
_cell_angle_alpha    83.9302
_cell_angle_beta     74.4659
_cell_angle_gamma    68.7589

_space_group_name_H-M_alt    "P 1"
_space_group_IT_number       1

loop_
  _space_group_symop_operation_xyz
  'x, y, z'

loop_
  _atom_site_type_symbol
  _atom_site_label
  _atom_site_symmetry_multiplicity
  _atom_site_fract_x
  _atom_site_fract_y
  _atom_site_fract_z
  _atom_site_occupancy
  Gd  Gd1       1.0  0.58736  0.60977  0.62479  1.0000
  Gd  Gd2       1.0  0.41264  0.39022  0.37521  1.0000
  Cu  Cu1       1.0  0.00000  0.50000  0.50000  1.0000
  H   H1        1.0  0.36568  0.97985  0.45147  1.0000
  H   H2        1.0  0.63433  0.02014  0.54854  1.0000
  H   H3        1.0  0.96265  0.18045  0.35861  1.0000
  H   H4        1.0  0.03736  0.81955  0.64139  1.0000
  H   H5        1.0  0.16491  0.74911  0.32370  1.0000
  H   H6        1.0  0.83509  0.25089  0.67630  1.0000
  H   H7        1.0  0.66981  0.47817  0.94686  1.0000
  H   H8        1.0  0.33019  0.52183  0.05313  1.0000
  H   H9        1.0  0.92293  0.31582  0.20934  1.0000
  H   H10       1.0  0.07706  0.68419  0.79066  1.0000
  H   H11       1.0  0.13150  0.33912  0.83079  1.0000
  H   H12       1.0  0.86850  0.66089  0.16921  1.0000
  H   H13       1.0  0.46055  0.84984  0.80478  1.0000
  H   H14       1.0  0.53946  0.15017  0.19521  1.0000
  H   H15       1.0  0.34684  0.87665  0.72857  1.0000
  H   H16       1.0  0.65316  0.12334  0.27143  1.0000
  H   H17       1.0  0.80952  0.55893  0.37718  1.0000
  H   H18       1.0  0.19048  0.44107  0.62281  1.0000
  H   H19       1.0  0.71565  0.46795  0.37994  1.0000
  H   H20       1.0  0.28435  0.53205  0.62005  1.0000
  C   C1        1.0  0.27586  0.85144  0.39099  1.0000
  C   C2        1.0  0.72415  0.14856  0.60901  1.0000
  C   C3        1.0  0.27816  0.97630  0.41753  1.0000
  C   C4        1.0  0.72185  0.02370  0.58248  1.0000
  C   C5        1.0  0.16649  0.09492  0.40448  1.0000
  C   C6        1.0  0.83351  0.90508  0.59553  1.0000
  C   C7        1.0  0.05297  0.08949  0.36357  1.0000
  C   C8        1.0  0.94704  0.91050  0.63643  1.0000
  C   C9        1.0  0.05629  0.96598  0.33157  1.0000
  C   C10       1.0  0.94372  0.03402  0.66843  1.0000
  C   C11       1.0  0.16611  0.84573  0.34466  1.0000
  C   C12       1.0  0.83389  0.15426  0.65535  1.0000
  C   C13       1.0  0.38497  0.72332  0.42274  1.0000
  C   C14       1.0  0.61503  0.27668  0.57726  1.0000
  C   C15       1.0  0.16119  0.23014  0.43596  1.0000
  C   C16       1.0  0.83881  0.76986  0.56405  1.0000
  C   C17       1.0  0.89946  0.41768  0.87582  1.0000
  C   C18       1.0  0.10054  0.58233  0.12417  1.0000
  C   C19       1.0  0.77403  0.43553  0.96826  1.0000
  C   C20       1.0  0.22597  0.56448  0.03173  1.0000
  C   C21       1.0  0.78248  0.39772  0.08845  1.0000
  C   C22       1.0  0.21752  0.60229  0.91154  1.0000
  C   C23       1.0  0.91581  0.34327  0.11615  1.0000
  C   C24       1.0  0.08418  0.65673  0.88385  1.0000
  C   C25       1.0  0.03909  0.32242  0.02190  1.0000
  C   C26       1.0  0.96091  0.67759  0.97811  1.0000
  C   C27       1.0  0.03331  0.35819  0.90220  1.0000
  C   C28       1.0  0.96669  0.64181  0.09779  1.0000
  C   C29       1.0  0.89219  0.46002  0.74763  1.0000
  C   C30       1.0  0.10781  0.53997  0.25237  1.0000
  C   C31       1.0  0.65000  0.40864  0.18724  1.0000
  C   C32       1.0  0.35000  0.59137  0.81275  1.0000
  N   N1        1.0  0.93638  0.96399  0.28764  1.0000
  N   N2        1.0  0.06362  0.03601  0.71237  1.0000
  N   N3        1.0  0.18064  0.26154  0.04889  1.0000
  N   N4        1.0  0.81935  0.73847  0.95111  1.0000
  O   O1        1.0  0.39087  0.61246  0.38651  1.0000
  O   O2        1.0  0.60913  0.38753  0.61349  1.0000
  O   O3        1.0  0.46072  0.73618  0.48835  1.0000
  O   O4        1.0  0.53929  0.26381  0.51165  1.0000
  O   O5        1.0  0.27430  0.24826  0.43814  1.0000
  O   O6        1.0  0.72571  0.75174  0.56187  1.0000
  O   O7        1.0  0.03493  0.31854  0.45828  1.0000
  O   O8        1.0  0.96507  0.68146  0.54171  1.0000
  O   O9        1.0  0.84137  0.07499  0.27758  1.0000
  O   O10       1.0  0.15862  0.92501  0.72245  1.0000
  O   O11       1.0  0.93417  0.85462  0.26342  1.0000
  O   O12       1.0  0.06583  0.14539  0.73658  1.0000
  O   O13       1.0  0.01192  0.44037  0.66870  1.0000
  O   O14       1.0  0.98808  0.55963  0.33130  1.0000
  O   O15       1.0  0.77223  0.51044  0.72262  1.0000
  O   O16       1.0  0.22777  0.48954  0.27738  1.0000
  O   O17       1.0  0.53241  0.43098  0.16082  1.0000
  O   O18       1.0  0.46758  0.56902  0.83918  1.0000
  O   O19       1.0  0.66064  0.38723  0.29829  1.0000
  O   O20       1.0  0.33935  0.61278  0.70171  1.0000
  O   O21       1.0  0.18446  0.24703  0.15770  1.0000
  O   O22       1.0  0.81553  0.75298  0.84231  1.0000
  O   O23       1.0  0.28774  0.22904  0.96198  1.0000
  O   O24       1.0  0.71225  0.77096  0.03803  1.0000
  O   O25       1.0  0.44927  0.83312  0.72654  1.0000
  O   O26       1.0  0.55073  0.16688  0.27345  1.0000
  O   O27       1.0  0.73816  0.52432  0.43076  1.0000
  O   O28       1.0  0.26184  0.47568  0.56924  1.0000
