data_image0
_chemical_formula_structural       Gd2CuH16C32N4O26
_chemical_formula_sum              "Gd2 Cu1 H16 C32 N4 O26"
_cell_length_a       9.8365
_cell_length_b       10.3076
_cell_length_c       11.0148
_cell_angle_alpha    70.1559
_cell_angle_beta     85.1498
_cell_angle_gamma    71.1771

_space_group_name_H-M_alt    "P 1"
_space_group_IT_number       1

loop_
  _space_group_symop_operation_xyz
  'x, y, z'

loop_
  _atom_site_type_symbol
  _atom_site_label
  _atom_site_symmetry_multiplicity
  _atom_site_fract_x
  _atom_site_fract_y
  _atom_site_fract_z
  _atom_site_occupancy
  Gd  Gd1       1.0  0.40470  0.40626  0.41675  1.0000
  Gd  Gd2       1.0  0.59530  0.59374  0.58325  1.0000
  Cu  Cu1       1.0  0.50000  1.00000  0.50000  1.0000
  H   H1        1.0  0.91873  0.36251  0.48450  1.0000
  H   H2        1.0  0.08127  0.63750  0.51550  1.0000
  H   H3        1.0  0.81022  0.96686  0.66372  1.0000
  H   H4        1.0  0.18977  0.03315  0.33627  1.0000
  H   H5        1.0  0.25156  0.95501  0.65162  1.0000
  H   H6        1.0  0.74843  0.04499  0.34839  1.0000
  H   H7        1.0  0.45877  0.37130  0.97920  1.0000
  H   H8        1.0  0.54124  0.62869  0.02080  1.0000
  H   H9        1.0  0.34911  0.98675  0.20173  1.0000
  H   H10       1.0  0.65089  0.01324  0.79827  1.0000
  H   H11       1.0  0.29101  0.15171  0.78760  1.0000
  H   H12       1.0  0.70899  0.84829  0.21240  1.0000
  H   H13       1.0  0.13734  0.56046  0.24143  1.0000
  H   H14       1.0  0.86266  0.43954  0.75857  1.0000
  H   H15       1.0  0.22675  0.67084  0.18308  1.0000
  H   H16       1.0  0.77325  0.32916  0.81692  1.0000
  C   C1        1.0  0.09627  0.16679  0.56015  1.0000
  C   C2        1.0  0.90373  0.83321  0.43985  1.0000
  C   C3        1.0  0.95002  0.24597  0.53608  1.0000
  C   C4        1.0  0.04998  0.75403  0.46392  1.0000
  C   C5        1.0  0.84685  0.17430  0.57146  1.0000
  C   C6        1.0  0.15315  0.82570  0.42853  1.0000
  C   C7        1.0  0.88847  0.02517  0.63846  1.0000
  C   C8        1.0  0.11152  0.97484  0.36154  1.0000
  C   C9        1.0  0.03288  0.95110  0.67117  1.0000
  C   C10       1.0  0.96711  0.04891  0.32882  1.0000
  C   C11       1.0  0.13896  0.01818  0.63021  1.0000
  C   C12       1.0  0.86103  0.98182  0.36979  1.0000
  C   C13       1.0  0.20253  0.24470  0.50401  1.0000
  C   C14       1.0  0.79746  0.75530  0.49599  1.0000
  C   C15       1.0  0.69414  0.25427  0.52872  1.0000
  C   C16       1.0  0.30586  0.74574  0.47128  1.0000
  C   C17       1.0  0.37991  0.26950  0.87084  1.0000
  C   C18       1.0  0.62010  0.73050  0.12916  1.0000
  C   C19       1.0  0.41618  0.28401  0.98510  1.0000
  C   C20       1.0  0.58383  0.71599  0.01490  1.0000
  C   C21       1.0  0.40378  0.18301  0.10468  1.0000
  C   C22       1.0  0.59623  0.81698  0.89533  1.0000
  C   C23       1.0  0.35198  0.06994  0.11016  1.0000
  C   C24       1.0  0.64803  0.93006  0.88984  1.0000
  C   C25       1.0  0.30505  0.06494  0.99684  1.0000
  C   C26       1.0  0.69495  0.93506  0.00316  1.0000
  C   C27       1.0  0.31965  0.16202  0.87632  1.0000
  C   C28       1.0  0.68035  0.83798  0.12368  1.0000
  C   C29       1.0  0.41476  0.36148  0.74061  1.0000
  C   C30       1.0  0.58525  0.63851  0.25939  1.0000
  C   C31       1.0  0.44610  0.18712  0.23101  1.0000
  C   C32       1.0  0.55390  0.81287  0.76899  1.0000
  N   N1        1.0  0.07450  0.79450  0.74582  1.0000
  N   N2        1.0  0.92550  0.20550  0.25418  1.0000
  N   N3        1.0  0.24333  0.95045  0.00590  1.0000
  N   N4        1.0  0.75668  0.04955  0.99410  1.0000
  O   O1        1.0  0.33634  0.17548  0.49661  1.0000
  O   O2        1.0  0.66366  0.82451  0.50339  1.0000
  O   O3        1.0  0.16180  0.38207  0.46083  1.0000
  O   O4        1.0  0.83820  0.61793  0.53917  1.0000
  O   O5        1.0  0.64208  0.38812  0.51958  1.0000
  O   O6        1.0  0.35791  0.61188  0.48041  1.0000
  O   O7        1.0  0.61883  0.19108  0.49671  1.0000
  O   O8        1.0  0.38117  0.80892  0.50329  1.0000
  O   O9        1.0  0.97606  0.74039  0.78486  1.0000
  O   O10       1.0  0.02392  0.25962  0.21513  1.0000
  O   O11       1.0  0.20418  0.72609  0.76400  1.0000
  O   O12       1.0  0.79581  0.27392  0.23600  1.0000
  O   O13       1.0  0.38148  0.33726  0.64344  1.0000
  O   O14       1.0  0.61853  0.66275  0.35656  1.0000
  O   O15       1.0  0.47926  0.45064  0.73948  1.0000
  O   O16       1.0  0.52074  0.54936  0.26052  1.0000
  O   O17       1.0  0.43130  0.30671  0.24541  1.0000
  O   O18       1.0  0.56870  0.69328  0.75459  1.0000
  O   O19       1.0  0.49315  0.05957  0.31513  1.0000
  O   O20       1.0  0.50685  0.94042  0.68488  1.0000
  O   O21       1.0  0.25187  0.85391  0.11347  1.0000
  O   O22       1.0  0.74814  0.14609  0.88653  1.0000
  O   O23       1.0  0.18582  0.95476  0.90841  1.0000
  O   O24       1.0  0.81418  0.04524  0.09159  1.0000
  O   O25       1.0  0.21954  0.58644  0.25608  1.0000
  O   O26       1.0  0.78046  0.41355  0.74391  1.0000
