data_image0
_chemical_formula_structural       Ho2CuH20C32N4O28
_chemical_formula_sum              "Ho2 Cu1 H20 C32 N4 O28"
_cell_length_a       10.2198
_cell_length_b       10.642
_cell_length_c       11.3682
_cell_angle_alpha    84.3739
_cell_angle_beta     75.0134
_cell_angle_gamma    68.8691

_space_group_name_H-M_alt    "P 1"
_space_group_IT_number       1

loop_
  _space_group_symop_operation_xyz
  'x, y, z'

loop_
  _atom_site_type_symbol
  _atom_site_label
  _atom_site_symmetry_multiplicity
  _atom_site_fract_x
  _atom_site_fract_y
  _atom_site_fract_z
  _atom_site_occupancy
  Ho  Ho1       1.0  0.58617  0.60800  0.62715  1.0000
  Ho  Ho2       1.0  0.41384  0.39200  0.37285  1.0000
  Cu  Cu1       1.0  1.00000  0.50000  0.50000  1.0000
  H   H1        1.0  0.36962  0.97765  0.45253  1.0000
  H   H2        1.0  0.63039  0.02235  0.54746  1.0000
  H   H3        1.0  0.96381  0.18144  0.35632  1.0000
  H   H4        1.0  0.03619  0.81854  0.64368  1.0000
  H   H5        1.0  0.16100  0.74883  0.32570  1.0000
  H   H6        1.0  0.83903  0.25116  0.67430  1.0000
  H   H7        1.0  0.66795  0.47942  0.94641  1.0000
  H   H8        1.0  0.33204  0.52060  0.05359  1.0000
  H   H9        1.0  0.92641  0.31737  0.20909  1.0000
  H   H10       1.0  0.07356  0.68266  0.79092  1.0000
  H   H11       1.0  0.13408  0.33719  0.83024  1.0000
  H   H12       1.0  0.86591  0.66281  0.16976  1.0000
  H   H13       1.0  0.46309  0.83304  0.81463  1.0000
  H   H14       1.0  0.53692  0.16694  0.18538  1.0000
  H   H15       1.0  0.34970  0.87081  0.73425  1.0000
  H   H16       1.0  0.65033  0.12920  0.26575  1.0000
  H   H17       1.0  0.71515  0.46937  0.38377  1.0000
  H   H18       1.0  0.28487  0.53062  0.61623  1.0000
  H   H19       1.0  0.80089  0.56824  0.38230  1.0000
  H   H20       1.0  0.19912  0.43177  0.61770  1.0000
  C   C1        1.0  0.27586  0.85020  0.39258  1.0000
  C   C2        1.0  0.72415  0.14980  0.60742  1.0000
  C   C3        1.0  0.28064  0.97489  0.41807  1.0000
  C   C4        1.0  0.71936  0.02510  0.58193  1.0000
  C   C5        1.0  0.16949  0.09435  0.40353  1.0000
  C   C6        1.0  0.83050  0.90564  0.59647  1.0000
  C   C7        1.0  0.05401  0.08976  0.36213  1.0000
  C   C8        1.0  0.94600  0.91023  0.63786  1.0000
  C   C9        1.0  0.05505  0.96634  0.33104  1.0000
  C   C10       1.0  0.94496  0.03364  0.66895  1.0000
  C   C11       1.0  0.16415  0.84522  0.34595  1.0000
  C   C12       1.0  0.83587  0.15477  0.65405  1.0000
  C   C13       1.0  0.38446  0.72152  0.42575  1.0000
  C   C14       1.0  0.61555  0.27848  0.57425  1.0000
  C   C15       1.0  0.16576  0.22993  0.43409  1.0000
  C   C16       1.0  0.83424  0.77007  0.56591  1.0000
  C   C17       1.0  0.89974  0.41722  0.87547  1.0000
  C   C18       1.0  0.10025  0.58279  0.12453  1.0000
  C   C19       1.0  0.77351  0.43629  0.96796  1.0000
  C   C20       1.0  0.22647  0.56373  0.03204  1.0000
  C   C21       1.0  0.78313  0.39948  0.08823  1.0000
  C   C22       1.0  0.21687  0.60052  0.91177  1.0000
  C   C23       1.0  0.91834  0.34422  0.11587  1.0000
  C   C24       1.0  0.08165  0.65579  0.88413  1.0000
  C   C25       1.0  0.04227  0.32172  0.02148  1.0000
  C   C26       1.0  0.95772  0.67829  0.97852  1.0000
  C   C27       1.0  0.03538  0.35678  0.90174  1.0000
  C   C28       1.0  0.96461  0.64323  0.09825  1.0000
  C   C29       1.0  0.89176  0.45996  0.74735  1.0000
  C   C30       1.0  0.10823  0.54005  0.25265  1.0000
  C   C31       1.0  0.64966  0.41242  0.18721  1.0000
  C   C32       1.0  0.35034  0.58757  0.81279  1.0000
  N   N1        1.0  0.93321  0.96553  0.28636  1.0000
  N   N2        1.0  0.06680  0.03445  0.71362  1.0000
  N   N3        1.0  0.18569  0.26042  0.04835  1.0000
  N   N4        1.0  0.81430  0.73959  0.95165  1.0000
  O   O1        1.0  0.39095  0.61082  0.38782  1.0000
  O   O2        1.0  0.60905  0.38918  0.61218  1.0000
  O   O3        1.0  0.45902  0.73413  0.49426  1.0000
  O   O4        1.0  0.54099  0.26587  0.50574  1.0000
  O   O5        1.0  0.28017  0.24799  0.43677  1.0000
  O   O6        1.0  0.71982  0.75202  0.56321  1.0000
  O   O7        1.0  0.03844  0.31878  0.45514  1.0000
  O   O8        1.0  0.96155  0.68120  0.54488  1.0000
  O   O9        1.0  0.84142  0.07754  0.27097  1.0000
  O   O10       1.0  0.15862  0.92244  0.72896  1.0000
  O   O11       1.0  0.92617  0.85626  0.26683  1.0000
  O   O12       1.0  0.07381  0.14372  0.73321  1.0000
  O   O13       1.0  0.01229  0.43783  0.66839  1.0000
  O   O14       1.0  0.98770  0.56217  0.33161  1.0000
  O   O15       1.0  0.77006  0.51325  0.72268  1.0000
  O   O16       1.0  0.22994  0.48677  0.27732  1.0000
  O   O17       1.0  0.52985  0.43670  0.16107  1.0000
  O   O18       1.0  0.47015  0.56329  0.83894  1.0000
  O   O19       1.0  0.66115  0.39028  0.29822  1.0000
  O   O20       1.0  0.33886  0.60972  0.70178  1.0000
  O   O21       1.0  0.19065  0.24608  0.15710  1.0000
  O   O22       1.0  0.80934  0.75393  0.84290  1.0000
  O   O23       1.0  0.29320  0.22748  0.96136  1.0000
  O   O24       1.0  0.70678  0.77254  0.03865  1.0000
  O   O25       1.0  0.45264  0.82428  0.73353  1.0000
  O   O26       1.0  0.54738  0.17573  0.26648  1.0000
  O   O27       1.0  0.73678  0.52584  0.43619  1.0000
  O   O28       1.0  0.26323  0.47416  0.56381  1.0000
