data_image0
_chemical_formula_structural       Ho2CuH16C32N4O26
_chemical_formula_sum              "Ho2 Cu1 H16 C32 N4 O26"
_cell_length_a       9.82284
_cell_length_b       10.229
_cell_length_c       10.9705
_cell_angle_alpha    70.2514
_cell_angle_beta     84.9401
_cell_angle_gamma    71.3987

_space_group_name_H-M_alt    "P 1"
_space_group_IT_number       1

loop_
  _space_group_symop_operation_xyz
  'x, y, z'

loop_
  _atom_site_type_symbol
  _atom_site_label
  _atom_site_symmetry_multiplicity
  _atom_site_fract_x
  _atom_site_fract_y
  _atom_site_fract_z
  _atom_site_occupancy
  Ho  Ho1       1.0  0.40668  0.40565  0.41731  1.0000
  Ho  Ho2       1.0  0.59332  0.59435  0.58269  1.0000
  Cu  Cu1       1.0  0.50000  1.00000  0.50000  1.0000
  H   H1        1.0  0.91982  0.36639  0.48125  1.0000
  H   H2        1.0  0.08018  0.63361  0.51874  1.0000
  H   H3        1.0  0.80693  0.97005  0.66083  1.0000
  H   H4        1.0  0.19307  0.02996  0.33917  1.0000
  H   H5        1.0  0.24918  0.95697  0.65323  1.0000
  H   H6        1.0  0.75082  0.04303  0.34677  1.0000
  H   H7        1.0  0.46238  0.37316  0.97759  1.0000
  H   H8        1.0  0.53763  0.62684  0.02241  1.0000
  H   H9        1.0  0.35056  0.98783  0.20370  1.0000
  H   H10       1.0  0.64944  0.01217  0.79631  1.0000
  H   H11       1.0  0.29342  0.14892  0.78873  1.0000
  H   H12       1.0  0.70658  0.85108  0.21128  1.0000
  H   H13       1.0  0.12740  0.57958  0.27542  1.0000
  H   H14       1.0  0.87260  0.42041  0.72458  1.0000
  H   H15       1.0  0.22758  0.67123  0.19198  1.0000
  H   H16       1.0  0.77242  0.32876  0.80802  1.0000
  C   C1        1.0  0.09573  0.16990  0.56027  1.0000
  C   C2        1.0  0.90427  0.83011  0.43972  1.0000
  C   C3        1.0  0.94997  0.24959  0.53393  1.0000
  C   C4        1.0  0.05003  0.75042  0.46606  1.0000
  C   C5        1.0  0.84600  0.17777  0.56837  1.0000
  C   C6        1.0  0.15400  0.82224  0.43162  1.0000
  C   C7        1.0  0.88613  0.02807  0.63627  1.0000
  C   C8        1.0  0.11387  0.97194  0.36373  1.0000
  C   C9        1.0  0.02983  0.95354  0.67073  1.0000
  C   C10       1.0  0.97017  0.04647  0.32926  1.0000
  C   C11       1.0  0.13691  0.02057  0.63080  1.0000
  C   C12       1.0  0.86309  0.97944  0.36919  1.0000
  C   C13       1.0  0.20329  0.24802  0.50570  1.0000
  C   C14       1.0  0.79671  0.75199  0.49429  1.0000
  C   C15       1.0  0.69356  0.25784  0.52552  1.0000
  C   C16       1.0  0.30644  0.74216  0.47447  1.0000
  C   C17       1.0  0.38288  0.26887  0.87052  1.0000
  C   C18       1.0  0.61712  0.73113  0.12948  1.0000
  C   C19       1.0  0.41932  0.28507  0.98441  1.0000
  C   C20       1.0  0.58068  0.71492  0.01559  1.0000
  C   C21       1.0  0.40674  0.18416  0.10485  1.0000
  C   C22       1.0  0.59327  0.81583  0.89516  1.0000
  C   C23       1.0  0.35348  0.07069  0.11144  1.0000
  C   C24       1.0  0.64652  0.92930  0.88857  1.0000
  C   C25       1.0  0.30593  0.06440  0.99865  1.0000
  C   C26       1.0  0.69407  0.93559  0.00136  1.0000
  C   C27       1.0  0.32178  0.16053  0.87724  1.0000
  C   C28       1.0  0.67822  0.83947  0.12277  1.0000
  C   C29       1.0  0.41815  0.36014  0.73931  1.0000
  C   C30       1.0  0.58185  0.63985  0.26070  1.0000
  C   C31       1.0  0.45077  0.18765  0.23137  1.0000
  C   C32       1.0  0.54923  0.81234  0.76863  1.0000
  N   N1        1.0  0.06946  0.79619  0.74582  1.0000
  N   N2        1.0  0.93054  0.20382  0.25416  1.0000
  N   N3        1.0  0.24260  0.94938  0.00961  1.0000
  N   N4        1.0  0.75739  0.05062  0.99040  1.0000
  O   O1        1.0  0.33561  0.17858  0.49275  1.0000
  O   O2        1.0  0.66439  0.82143  0.50725  1.0000
  O   O3        1.0  0.16485  0.38611  0.46849  1.0000
  O   O4        1.0  0.83515  0.61389  0.53150  1.0000
  O   O5        1.0  0.64137  0.39209  0.51730  1.0000
  O   O6        1.0  0.35863  0.60791  0.48270  1.0000
  O   O7        1.0  0.61812  0.19412  0.49330  1.0000
  O   O8        1.0  0.38189  0.80588  0.50670  1.0000
  O   O9        1.0  0.96979  0.74296  0.78478  1.0000
  O   O10       1.0  0.03021  0.25706  0.21521  1.0000
  O   O11       1.0  0.19871  0.72671  0.76408  1.0000
  O   O12       1.0  0.80129  0.27330  0.23591  1.0000
  O   O13       1.0  0.38802  0.33221  0.64266  1.0000
  O   O14       1.0  0.61198  0.66778  0.35735  1.0000
  O   O15       1.0  0.48002  0.45275  0.73698  1.0000
  O   O16       1.0  0.51998  0.54724  0.26302  1.0000
  O   O17       1.0  0.43725  0.30715  0.24696  1.0000
  O   O18       1.0  0.56275  0.69285  0.75304  1.0000
  O   O19       1.0  0.49788  0.05875  0.31483  1.0000
  O   O20       1.0  0.50212  0.94125  0.68518  1.0000
  O   O21       1.0  0.24671  0.85609  0.11918  1.0000
  O   O22       1.0  0.75329  0.14391  0.88083  1.0000
  O   O23       1.0  0.18785  0.95014  0.91208  1.0000
  O   O24       1.0  0.81215  0.04986  0.08793  1.0000
  O   O25       1.0  0.22632  0.57830  0.25753  1.0000
  O   O26       1.0  0.77368  0.42170  0.74247  1.0000
