data_image0
_chemical_formula_structural       MnH12C16N10O6
_chemical_formula_sum              "Mn1 H12 C16 N10 O6"
_cell_length_a       7.50761
_cell_length_b       7.43805
_cell_length_c       9.60065
_cell_angle_alpha    82.7194
_cell_angle_beta     67.9101
_cell_angle_gamma    79.3502

_space_group_name_H-M_alt    "P 1"
_space_group_IT_number       1

loop_
  _space_group_symop_operation_xyz
  'x, y, z'

loop_
  _atom_site_type_symbol
  _atom_site_label
  _atom_site_symmetry_multiplicity
  _atom_site_fract_x
  _atom_site_fract_y
  _atom_site_fract_z
  _atom_site_occupancy
  Mn  Mn1       1.0  0.99999  1.00000  0.99999  1.0000
  H   H1        1.0  0.86914  0.14308  0.67061  1.0000
  H   H2        1.0  0.13087  0.85692  0.32939  1.0000
  H   H3        1.0  0.88717  0.23387  0.48853  1.0000
  H   H4        1.0  0.11283  0.76614  0.51147  1.0000
  H   H5        1.0  0.80097  0.01885  0.55571  1.0000
  H   H6        1.0  0.19904  0.98115  0.44428  1.0000
  H   H7        1.0  0.29083  0.66050  0.73580  1.0000
  H   H8        1.0  0.70917  0.33950  0.26421  1.0000
  H   H9        1.0  0.04178  0.44775  0.79875  1.0000
  H   H10       1.0  0.95822  0.55225  0.20125  1.0000
  H   H11       1.0  0.47223  0.99826  0.67317  1.0000
  H   H12       1.0  0.52778  0.00174  0.32683  1.0000
  C   C1        1.0  0.79881  0.15589  0.58723  1.0000
  C   C2        1.0  0.20120  0.84411  0.41277  1.0000
  C   C3        1.0  0.59331  0.25003  0.64942  1.0000
  C   C4        1.0  0.40671  0.74996  0.35058  1.0000
  C   C5        1.0  0.53380  0.43938  0.66992  1.0000
  C   C6        1.0  0.46620  0.56061  0.33008  1.0000
  C   C7        1.0  0.33656  0.51456  0.72046  1.0000
  C   C8        1.0  0.66344  0.48543  0.27954  1.0000
  C   C9        1.0  0.19738  0.40200  0.75671  1.0000
  C   C10       1.0  0.80263  0.59800  0.24329  1.0000
  C   C11       1.0  0.44507  0.14488  0.68613  1.0000
  C   C12       1.0  0.55493  0.85512  0.31386  1.0000
  C   C13       1.0  0.57390  0.23396  0.03309  1.0000
  C   C14       1.0  0.42607  0.76604  0.96691  1.0000
  C   C15       1.0  0.24952  0.24801  0.06896  1.0000
  C   C16       1.0  0.75047  0.75200  0.93104  1.0000
  N   N1        1.0  0.73388  0.17305  0.02481  1.0000
  N   N2        1.0  0.26610  0.82694  0.97519  1.0000
  N   N3        1.0  0.40514  0.31779  0.03969  1.0000
  N   N4        1.0  0.59485  0.68221  0.96031  1.0000
  N   N5        1.0  0.09848  0.20032  0.09167  1.0000
  N   N6        1.0  0.90151  0.79969  0.90833  1.0000
  N   N7        1.0  0.67394  0.56326  0.63949  1.0000
  N   N8        1.0  0.32606  0.43674  0.36051  1.0000
  N   N9        1.0  0.25344  0.21811  0.74022  1.0000
  N   N10       1.0  0.74656  0.78188  0.25978  1.0000
  O   O1        1.0  0.12118  0.10938  0.77703  1.0000
  O   O2        1.0  0.87882  0.89061  0.22297  1.0000
  O   O3        1.0  0.62264  0.72900  0.60946  1.0000
  O   O4        1.0  0.37736  0.27100  0.39054  1.0000
  O   O5        1.0  0.83585  0.50054  0.64627  1.0000
  O   O6        1.0  0.16415  0.49946  0.35374  1.0000
