data_image0
_chemical_formula_structural       Co2H22C26N4O12
_chemical_formula_sum              "Co2 H22 C26 N4 O12"
_cell_length_a       4.96392
_cell_length_b       10.2146
_cell_length_c       12.8966
_cell_angle_alpha    108.237
_cell_angle_beta     90.0956
_cell_angle_gamma    97.6681

_space_group_name_H-M_alt    "P 1"
_space_group_IT_number       1

loop_
  _space_group_symop_operation_xyz
  'x, y, z'

loop_
  _atom_site_type_symbol
  _atom_site_label
  _atom_site_symmetry_multiplicity
  _atom_site_fract_x
  _atom_site_fract_y
  _atom_site_fract_z
  _atom_site_occupancy
  Co  Co1       1.0  0.63328  0.85516  0.72817  1.0000
  Co  Co2       1.0  0.36676  0.14484  0.27183  1.0000
  H   H1        1.0  0.69473  0.90122  0.00829  1.0000
  H   H2        1.0  0.30536  0.09880  0.99169  1.0000
  H   H3        1.0  0.79436  0.71376  0.08289  1.0000
  H   H4        1.0  0.20584  0.28623  0.91704  1.0000
  H   H5        1.0  0.10688  0.44959  0.87958  1.0000
  H   H6        1.0  0.89305  0.55046  0.12048  1.0000
  H   H7        1.0  0.03345  0.65003  0.81811  1.0000
  H   H8        1.0  0.96640  0.35004  0.18198  1.0000
  H   H9        1.0  0.30293  0.58638  0.24497  1.0000
  H   H10       1.0  0.69711  0.41359  0.75500  1.0000
  H   H11       1.0  0.71759  0.95980  0.47666  1.0000
  H   H12       1.0  0.28229  0.04020  0.52336  1.0000
  H   H13       1.0  0.84598  0.55881  0.49553  1.0000
  H   H14       1.0  0.15390  0.44119  0.50449  1.0000
  H   H15       1.0  0.06139  0.76571  0.61944  1.0000
  H   H16       1.0  0.93863  0.23422  0.38052  1.0000
  H   H17       1.0  0.05037  0.92441  0.61262  1.0000
  H   H18       1.0  0.94968  0.07559  0.38737  1.0000
  H   H19       1.0  0.08412  0.95186  0.84522  1.0000
  H   H20       1.0  0.91593  0.04814  0.15475  1.0000
  H   H21       1.0  0.91316  0.07264  0.82301  1.0000
  H   H22       1.0  0.08682  0.92736  0.17694  1.0000
  C   C1        1.0  0.57523  0.79855  0.98520  1.0000
  C   C2        1.0  0.42487  0.20147  0.01479  1.0000
  C   C3        1.0  0.62539  0.69182  0.02325  1.0000
  C   C4        1.0  0.37474  0.30818  0.97671  1.0000
  C   C5        1.0  0.46732  0.55931  0.98417  1.0000
  C   C6        1.0  0.53275  0.44069  0.01579  1.0000
  C   C7        1.0  0.24430  0.54689  0.91240  1.0000
  C   C8        1.0  0.75570  0.45315  0.08763  1.0000
  C   C9        1.0  0.19704  0.65625  0.87668  1.0000
  C   C10       1.0  0.80292  0.34380  0.12336  1.0000
  C   C11       1.0  0.50366  0.40322  0.32826  1.0000
  C   C12       1.0  0.49629  0.59676  0.67176  1.0000
  C   C13       1.0  0.57305  0.55699  0.36518  1.0000
  C   C14       1.0  0.42686  0.44299  0.63484  1.0000
  C   C15       1.0  0.44710  0.63662  0.31397  1.0000
  C   C16       1.0  0.55288  0.36336  0.68602  1.0000
  C   C17       1.0  0.51014  0.78142  0.35107  1.0000
  C   C18       1.0  0.48980  0.21856  0.64894  1.0000
  C   C19       1.0  0.68313  0.84653  0.44422  1.0000
  C   C20       1.0  0.31675  0.15347  0.55582  1.0000
  C   C21       1.0  0.79845  0.76733  0.49881  1.0000
  C   C22       1.0  0.20150  0.23266  0.50120  1.0000
  C   C23       1.0  0.75306  0.62199  0.45538  1.0000
  C   C24       1.0  0.24682  0.37800  0.54465  1.0000
  C   C25       1.0  0.38835  0.86696  0.29254  1.0000
  C   C26       1.0  0.61165  0.13303  0.70745  1.0000
  N   N1        1.0  0.36970  0.77822  0.90950  1.0000
  N   N2        1.0  0.63032  0.22181  0.09051  1.0000
  N   N3        1.0  0.93597  0.82978  0.60261  1.0000
  N   N4        1.0  0.06412  0.17020  0.39736  1.0000
  O   O1        1.0  0.35523  0.87517  0.86164  1.0000
  O   O2        1.0  0.64479  0.12485  0.13836  1.0000
  O   O3        1.0  0.29062  0.34493  0.26666  1.0000
  O   O4        1.0  0.70939  0.65504  0.73336  1.0000
  O   O5        1.0  0.64936  0.32647  0.35920  1.0000
  O   O6        1.0  0.35060  0.67353  0.64084  1.0000
  O   O7        1.0  0.17837  0.81420  0.23004  1.0000
  O   O8        1.0  0.82167  0.18579  0.76994  1.0000
  O   O9        1.0  0.51265  0.99219  0.31132  1.0000
  O   O10       1.0  0.48736  0.00780  0.68866  1.0000
  O   O11       1.0  0.90621  0.98711  0.84762  1.0000
  O   O12       1.0  0.09384  0.01290  0.15235  1.0000
