data_image0
_chemical_formula_structural       Cd2H44C44N8O16
_chemical_formula_sum              "Cd2 H44 C44 N8 O16"
_cell_length_a       8.80082
_cell_length_b       11.7239
_cell_length_c       13.0631
_cell_angle_alpha    64.8186
_cell_angle_beta     76.4489
_cell_angle_gamma    81.7728

_space_group_name_H-M_alt    "P 1"
_space_group_IT_number       1

loop_
  _space_group_symop_operation_xyz
  'x, y, z'

loop_
  _atom_site_type_symbol
  _atom_site_label
  _atom_site_symmetry_multiplicity
  _atom_site_fract_x
  _atom_site_fract_y
  _atom_site_fract_z
  _atom_site_occupancy
  Cd  Cd1       1.0  0.83047  0.57169  0.89938  1.0000
  Cd  Cd2       1.0  0.16953  0.42832  0.10062  1.0000
  H   H1        1.0  0.80240  0.41075  0.31885  1.0000
  H   H2        1.0  0.19760  0.58925  0.68116  1.0000
  H   H3        1.0  0.69365  0.29952  0.30949  1.0000
  H   H4        1.0  0.30635  0.70048  0.69051  1.0000
  H   H5        1.0  0.26485  0.50159  0.31627  1.0000
  H   H6        1.0  0.73514  0.49841  0.68373  1.0000
  H   H7        1.0  0.00168  0.58011  0.38290  1.0000
  H   H8        1.0  0.99832  0.41990  0.61710  1.0000
  H   H9        1.0  0.97322  0.74304  0.46134  1.0000
  H   H10       1.0  0.02678  0.25696  0.53866  1.0000
  H   H11       1.0  0.47802  0.75099  0.39946  1.0000
  H   H12       1.0  0.52198  0.24900  0.60055  1.0000
  H   H13       1.0  0.15859  0.06133  0.51632  1.0000
  H   H14       1.0  0.84141  0.93867  0.48368  1.0000
  H   H15       1.0  0.32944  0.00159  0.57740  1.0000
  H   H16       1.0  0.67056  0.99841  0.42260  1.0000
  H   H17       1.0  0.66549  0.72259  0.04734  1.0000
  H   H18       1.0  0.33452  0.27741  0.95266  1.0000
  H   H19       1.0  0.65518  0.93000  0.05784  1.0000
  H   H20       1.0  0.34482  0.07001  0.94215  1.0000
  H   H21       1.0  0.02056  0.04249  0.75190  1.0000
  H   H22       1.0  0.97944  0.95752  0.24809  1.0000
  H   H23       1.0  0.01752  0.82997  0.75535  1.0000
  H   H24       1.0  0.98248  0.17003  0.24465  1.0000
  H   H25       1.0  0.59705  0.34580  0.98846  1.0000
  H   H26       1.0  0.40295  0.65420  0.01154  1.0000
  H   H27       1.0  0.59069  0.13621  0.98786  1.0000
  H   H28       1.0  0.40931  0.86380  0.01214  1.0000
  H   H29       1.0  0.08210  0.16438  0.82789  1.0000
  H   H30       1.0  0.91790  0.83562  0.17211  1.0000
  H   H31       1.0  0.06903  0.37267  0.83266  1.0000
  H   H32       1.0  0.93097  0.62733  0.16734  1.0000
  H   H33       1.0  0.46747  0.39309  0.36602  1.0000
  H   H34       1.0  0.53253  0.60690  0.63398  1.0000
  H   H35       1.0  0.38728  0.95561  0.38012  1.0000
  H   H36       1.0  0.61272  0.04439  0.61988  1.0000
  H   H37       1.0  0.55959  0.71932  0.78918  1.0000
  H   H38       1.0  0.44041  0.28067  0.21082  1.0000
  H   H39       1.0  0.50576  0.57799  0.86974  1.0000
  H   H40       1.0  0.49424  0.42201  0.13025  1.0000
  H   H41       1.0  0.81462  0.67183  0.65629  1.0000
  H   H42       1.0  0.18538  0.32817  0.34371  1.0000
  H   H43       1.0  0.97784  0.71580  0.64863  1.0000
  H   H44       1.0  0.02216  0.28420  0.35137  1.0000
  C   C1        1.0  0.75142  0.46064  0.15236  1.0000
  C   C2        1.0  0.24858  0.53935  0.84765  1.0000
  C   C3        1.0  0.70600  0.40061  0.28359  1.0000
  C   C4        1.0  0.29400  0.59939  0.71642  1.0000
  C   C5        1.0  0.54739  0.57348  0.31433  1.0000
  C   C6        1.0  0.45261  0.42652  0.68567  1.0000
  C   C7        1.0  0.38771  0.62098  0.35463  1.0000
  C   C8        1.0  0.61230  0.37902  0.64537  1.0000
  C   C9        1.0  0.25364  0.57281  0.35056  1.0000
  C   C10       1.0  0.74636  0.42719  0.64944  1.0000
  C   C11       1.0  0.10504  0.61771  0.38739  1.0000
  C   C12       1.0  0.89496  0.38229  0.61261  1.0000
  C   C13       1.0  0.08938  0.70968  0.43043  1.0000
  C   C14       1.0  0.91062  0.29032  0.56958  1.0000
  C   C15       1.0  0.22292  0.75952  0.43441  1.0000
  C   C16       1.0  0.77708  0.24048  0.56559  1.0000
  C   C17       1.0  0.37224  0.71618  0.39490  1.0000
  C   C18       1.0  0.62776  0.28381  0.60510  1.0000
  C   C19       1.0  0.19844  0.85104  0.48923  1.0000
  C   C20       1.0  0.80157  0.14895  0.51077  1.0000
  C   C21       1.0  0.28379  0.03616  0.49700  1.0000
  C   C22       1.0  0.71621  0.96383  0.50300  1.0000
  C   C23       1.0  0.36870  0.15412  0.40835  1.0000
  C   C24       1.0  0.63129  0.84588  0.59165  1.0000
  C   C25       1.0  0.74056  0.79706  0.98268  1.0000
  C   C26       1.0  0.25944  0.20295  0.01732  1.0000
  C   C27       1.0  0.73502  0.91385  0.98720  1.0000
  C   C28       1.0  0.26498  0.08616  0.01280  1.0000
  C   C29       1.0  0.83705  0.00600  0.90468  1.0000
  C   C30       1.0  0.16295  0.99401  0.09532  1.0000
  C   C31       1.0  0.94061  0.97445  0.82004  1.0000
  C   C32       1.0  0.05939  0.02555  0.17996  1.0000
  C   C33       1.0  0.93914  0.85539  0.82138  1.0000
  C   C34       1.0  0.06086  0.14461  0.17862  1.0000
  C   C35       1.0  0.70248  0.30294  0.95296  1.0000
  C   C36       1.0  0.29752  0.69706  0.04704  1.0000
  C   C37       1.0  0.70009  0.18445  0.95348  1.0000
  C   C38       1.0  0.29991  0.81555  0.04652  1.0000
  C   C39       1.0  0.83636  0.13047  0.90760  1.0000
  C   C40       1.0  0.16364  0.86953  0.09240  1.0000
  C   C41       1.0  0.97122  0.19996  0.86418  1.0000
  C   C42       1.0  0.02878  0.80004  0.13582  1.0000
  C   C43       1.0  0.96491  0.31763  0.86719  1.0000
  C   C44       1.0  0.03509  0.68237  0.13281  1.0000
  N   N1        1.0  0.84101  0.76792  0.90138  1.0000
  N   N2        1.0  0.15899  0.23209  0.09862  1.0000
  N   N3        1.0  0.83296  0.36881  0.91023  1.0000
  N   N4        1.0  0.16704  0.63120  0.08977  1.0000
  N   N5        1.0  0.56007  0.45150  0.32849  1.0000
  N   N6        1.0  0.43993  0.54849  0.67152  1.0000
  N   N7        1.0  0.30364  0.93918  0.45297  1.0000
  N   N8        1.0  0.69636  0.06081  0.54703  1.0000
  O   O1        1.0  0.89416  0.45567  0.10529  1.0000
  O   O2        1.0  0.10583  0.54433  0.89472  1.0000
  O   O3        1.0  0.64534  0.51147  0.09265  1.0000
  O   O4        1.0  0.35465  0.48853  0.90735  1.0000
  O   O5        1.0  0.66100  0.64322  0.26916  1.0000
  O   O6        1.0  0.33899  0.35677  0.73084  1.0000
  O   O7        1.0  0.08246  0.84476  0.56899  1.0000
  O   O8        1.0  0.91754  0.15524  0.43102  1.0000
  O   O9        1.0  0.46285  0.14505  0.32183  1.0000
  O   O10       1.0  0.53714  0.85495  0.67817  1.0000
  O   O11       1.0  0.33444  0.25314  0.42806  1.0000
  O   O12       1.0  0.66556  0.74686  0.57194  1.0000
  O   O13       1.0  0.58138  0.64062  0.85706  1.0000
  O   O14       1.0  0.41863  0.35938  0.14293  1.0000
  O   O15       1.0  0.90582  0.64494  0.69503  1.0000
  O   O16       1.0  0.09418  0.35506  0.30498  1.0000
