data_image0
_chemical_formula_structural       Co4H4C20O16
_chemical_formula_sum              "Co4 H4 C20 O16"
_cell_length_a       7.36153
_cell_length_b       8.14159
_cell_length_c       9.06379
_cell_angle_alpha    89.6388
_cell_angle_beta     113.976
_cell_angle_gamma    89.9787

_space_group_name_H-M_alt    "P 1"
_space_group_IT_number       1

loop_
  _space_group_symop_operation_xyz
  'x, y, z'

loop_
  _atom_site_type_symbol
  _atom_site_label
  _atom_site_symmetry_multiplicity
  _atom_site_fract_x
  _atom_site_fract_y
  _atom_site_fract_z
  _atom_site_occupancy
  Co  Co1       1.0  0.11886  0.06124  0.38468  1.0000
  Co  Co2       1.0  0.73415  0.43885  0.61519  1.0000
  Co  Co3       1.0  0.88114  0.93876  0.61533  1.0000
  Co  Co4       1.0  0.26585  0.56115  0.38481  1.0000
  H   H1        1.0  0.74359  0.74996  0.00020  1.0000
  H   H2        1.0  0.25641  0.25004  0.99980  1.0000
  H   H3        1.0  0.06962  0.74995  0.00016  1.0000
  H   H4        1.0  0.93038  0.25006  0.99984  1.0000
  C   C1        1.0  0.32470  0.89037  0.25927  1.0000
  C   C2        1.0  0.06547  0.60950  0.74097  1.0000
  C   C3        1.0  0.67531  0.10963  0.74073  1.0000
  C   C4        1.0  0.93453  0.39049  0.25902  1.0000
  C   C5        1.0  0.37594  0.81979  0.12899  1.0000
  C   C6        1.0  0.24706  0.68005  0.87136  1.0000
  C   C7        1.0  0.62406  0.18021  0.87101  1.0000
  C   C8        1.0  0.75294  0.31995  0.12865  1.0000
  C   C9        1.0  0.56660  0.82278  0.12814  1.0000
  C   C10       1.0  0.43862  0.67710  0.87221  1.0000
  C   C11       1.0  0.43340  0.17722  0.87186  1.0000
  C   C12       1.0  0.56138  0.32290  0.12780  1.0000
  C   C13       1.0  0.73461  0.90050  0.26347  1.0000
  C   C14       1.0  0.47123  0.59953  0.73673  1.0000
  C   C15       1.0  0.26539  0.09949  0.73653  1.0000
  C   C16       1.0  0.52876  0.40047  0.26327  1.0000
  C   C17       1.0  0.59608  0.74991  0.00020  1.0000
  C   C18       1.0  0.40392  0.25009  0.99980  1.0000
  C   C19       1.0  0.21784  0.74989  0.00020  1.0000
  C   C20       1.0  0.78216  0.25011  0.99980  1.0000
  O   O1        1.0  0.27680  0.04134  0.25129  1.0000
  O   O2        1.0  0.02565  0.45853  0.74883  1.0000
  O   O3        1.0  0.72320  0.95866  0.74871  1.0000
  O   O4        1.0  0.97435  0.54147  0.25117  1.0000
  O   O5        1.0  0.30494  0.79653  0.36528  1.0000
  O   O6        1.0  0.93972  0.70337  0.63489  1.0000
  O   O7        1.0  0.69506  0.20347  0.63472  1.0000
  O   O8        1.0  0.06028  0.29663  0.36511  1.0000
  O   O9        1.0  0.89395  0.93176  0.24549  1.0000
  O   O10       1.0  0.64858  0.56842  0.75456  1.0000
  O   O11       1.0  0.10605  0.06824  0.75451  1.0000
  O   O12       1.0  0.35141  0.43158  0.24544  1.0000
  O   O13       1.0  0.70590  0.93318  0.39007  1.0000
  O   O14       1.0  0.31586  0.56684  0.61015  1.0000
  O   O15       1.0  0.29410  0.06682  0.60994  1.0000
  O   O16       1.0  0.68414  0.43316  0.38985  1.0000
