data_image0
_chemical_formula_structural       Cd2H32C28N20O12
_chemical_formula_sum              "Cd2 H32 C28 N20 O12"
_cell_length_a       7.26712
_cell_length_b       11.6313
_cell_length_c       12.681
_cell_angle_alpha    89.9994
_cell_angle_beta     99.1289
_cell_angle_gamma    90.0003

_space_group_name_H-M_alt    "P 1"
_space_group_IT_number       1

loop_
  _space_group_symop_operation_xyz
  'x, y, z'

loop_
  _atom_site_type_symbol
  _atom_site_label
  _atom_site_symmetry_multiplicity
  _atom_site_fract_x
  _atom_site_fract_y
  _atom_site_fract_z
  _atom_site_occupancy
  Cd  Cd1       1.0  1.00000  0.50000  1.00000  1.0000
  Cd  Cd2       1.0  0.50000  0.00000  0.50000  1.0000
  H   H1        1.0  0.35978  0.55937  0.99981  1.0000
  H   H2        1.0  0.14022  0.05936  0.50019  1.0000
  H   H3        1.0  0.64022  0.44063  0.00019  1.0000
  H   H4        1.0  0.85978  0.94064  0.49981  1.0000
  H   H5        1.0  0.40732  0.48103  0.10386  1.0000
  H   H6        1.0  0.09268  0.98102  0.39614  1.0000
  H   H7        1.0  0.59267  0.51898  0.89614  1.0000
  H   H8        1.0  0.90733  0.01898  0.60386  1.0000
  H   H9        1.0  0.80506  0.35030  0.63766  1.0000
  H   H10       1.0  0.69493  0.85030  0.86234  1.0000
  H   H11       1.0  0.19494  0.64970  0.36235  1.0000
  H   H12       1.0  0.30507  0.14970  0.13765  1.0000
  H   H13       1.0  0.96199  0.40566  0.55553  1.0000
  H   H14       1.0  0.53800  0.90566  0.94447  1.0000
  H   H15       1.0  0.03801  0.59434  0.44447  1.0000
  H   H16       1.0  0.46199  0.09434  0.05553  1.0000
  H   H17       1.0  0.23373  0.50374  0.66023  1.0000
  H   H18       1.0  0.26628  0.00375  0.83978  1.0000
  H   H19       1.0  0.76627  0.49626  0.33977  1.0000
  H   H20       1.0  0.73372  0.99625  0.16022  1.0000
  H   H21       1.0  0.07867  0.62101  0.65350  1.0000
  H   H22       1.0  0.42134  0.12102  0.84650  1.0000
  H   H23       1.0  0.92134  0.37900  0.34650  1.0000
  H   H24       1.0  0.57866  0.87898  0.15350  1.0000
  H   H25       1.0  0.20415  0.82315  0.62641  1.0000
  H   H26       1.0  0.29584  0.32315  0.87359  1.0000
  H   H27       1.0  0.79586  0.17686  0.37359  1.0000
  H   H28       1.0  0.70415  0.67685  0.12641  1.0000
  H   H29       1.0  0.79213  0.76279  0.46249  1.0000
  H   H30       1.0  0.70787  0.26279  0.03752  1.0000
  H   H31       1.0  0.20787  0.23720  0.53752  1.0000
  H   H32       1.0  0.29212  0.73721  0.96248  1.0000
  C   C1        1.0  0.22861  0.58600  0.81026  1.0000
  C   C2        1.0  0.27139  0.08600  0.68974  1.0000
  C   C3        1.0  0.77139  0.41400  0.18973  1.0000
  C   C4        1.0  0.72861  0.91400  0.31027  1.0000
  C   C5        1.0  0.21784  0.59181  0.68918  1.0000
  C   C6        1.0  0.28216  0.09182  0.81082  1.0000
  C   C7        1.0  0.78216  0.40820  0.31082  1.0000
  C   C8        1.0  0.71783  0.90818  0.18918  1.0000
  C   C9        1.0  0.32564  0.77420  0.61271  1.0000
  C   C10       1.0  0.17436  0.27420  0.88728  1.0000
  C   C11       1.0  0.67437  0.22580  0.38729  1.0000
  C   C12       1.0  0.82563  0.72580  0.11272  1.0000
  C   C13       1.0  0.57911  0.71953  0.55963  1.0000
  C   C14       1.0  0.92089  0.21953  0.94037  1.0000
  C   C15       1.0  0.42089  0.28047  0.44037  1.0000
  C   C16       1.0  0.07910  0.78047  0.05962  1.0000
  C   C17       1.0  0.73446  0.69892  0.51105  1.0000
  C   C18       1.0  0.76555  0.19892  0.98895  1.0000
  C   C19       1.0  0.26555  0.30108  0.48895  1.0000
  C   C20       1.0  0.23445  0.80108  0.01105  1.0000
  C   C21       1.0  0.74866  0.51292  0.58096  1.0000
  C   C22       1.0  0.75134  0.01292  0.91904  1.0000
  C   C23       1.0  0.25134  0.48708  0.41904  1.0000
  C   C24       1.0  0.24866  0.98708  0.08096  1.0000
  C   C25       1.0  0.51677  0.62569  0.61540  1.0000
  C   C26       1.0  0.98323  0.12570  0.88460  1.0000
  C   C27       1.0  0.48324  0.37430  0.38460  1.0000
  C   C28       1.0  0.01676  0.87430  0.11540  1.0000
  N   N1        1.0  0.35444  0.66287  0.64845  1.0000
  N   N2        1.0  0.14555  0.16288  0.85155  1.0000
  N   N3        1.0  0.64556  0.33713  0.35155  1.0000
  N   N4        1.0  0.85444  0.83712  0.14845  1.0000
  N   N5        1.0  0.45688  0.81153  0.56009  1.0000
  N   N6        1.0  0.04312  0.31153  0.93991  1.0000
  N   N7        1.0  0.54313  0.18847  0.43991  1.0000
  N   N8        1.0  0.95688  0.68847  0.06009  1.0000
  N   N9        1.0  0.81867  0.59650  0.52176  1.0000
  N   N10       1.0  0.68133  0.09649  0.97824  1.0000
  N   N11       1.0  0.18133  0.40350  0.47824  1.0000
  N   N12       1.0  0.31866  0.90350  0.02175  1.0000
  N   N13       1.0  0.59497  0.52247  0.62838  1.0000
  N   N14       1.0  0.90503  0.02247  0.87162  1.0000
  N   N15       1.0  0.40503  0.47753  0.37163  1.0000
  N   N16       1.0  0.09497  0.97753  0.12838  1.0000
  N   N17       1.0  0.84303  0.41245  0.58965  1.0000
  N   N18       1.0  0.65697  0.91245  0.91035  1.0000
  N   N19       1.0  0.15698  0.58755  0.41035  1.0000
  N   N20       1.0  0.34303  0.08755  0.08964  1.0000
  O   O1        1.0  0.31682  0.53767  0.06810  1.0000
  O   O2        1.0  0.18317  0.03767  0.43190  1.0000
  O   O3        1.0  0.68317  0.46233  0.93190  1.0000
  O   O4        1.0  0.81683  0.96233  0.56810  1.0000
  O   O5        1.0  0.07366  0.56400  0.83947  1.0000
  O   O6        1.0  0.42635  0.06399  0.66053  1.0000
  O   O7        1.0  0.92634  0.43600  0.16053  1.0000
  O   O8        1.0  0.57365  0.93600  0.33946  1.0000
  O   O9        1.0  0.38459  0.60032  0.87057  1.0000
  O   O10       1.0  0.11542  0.10032  0.62943  1.0000
  O   O11       1.0  0.61541  0.39969  0.12943  1.0000
  O   O12       1.0  0.88458  0.89968  0.37057  1.0000
