data_image0
_chemical_formula_structural       Cu8H16C16N8Cl8
_chemical_formula_sum              "Cu8 H16 C16 N8 Cl8"
_cell_length_a       3.67631
_cell_length_b       13.1389
_cell_length_c       14.3948
_cell_angle_alpha    89.9992
_cell_angle_beta     89.9997
_cell_angle_gamma    90.0024

_space_group_name_H-M_alt    "P 1"
_space_group_IT_number       1

loop_
  _space_group_symop_operation_xyz
  'x, y, z'

loop_
  _atom_site_type_symbol
  _atom_site_label
  _atom_site_symmetry_multiplicity
  _atom_site_fract_x
  _atom_site_fract_y
  _atom_site_fract_z
  _atom_site_occupancy
  Cu  Cu1       1.0  0.30421  0.52958  0.68606  1.0000
  Cu  Cu2       1.0  0.19584  0.52966  0.18606  1.0000
  Cu  Cu3       1.0  0.30424  0.97035  0.68605  1.0000
  Cu  Cu4       1.0  0.80420  0.02961  0.81393  1.0000
  Cu  Cu5       1.0  0.69584  0.47038  0.31392  1.0000
  Cu  Cu6       1.0  0.80416  0.47038  0.81396  1.0000
  Cu  Cu7       1.0  0.69585  0.02961  0.31395  1.0000
  Cu  Cu8       1.0  0.19579  0.97043  0.18606  1.0000
  H   H1        1.0  0.22135  0.74996  0.73096  1.0000
  H   H2        1.0  0.27855  0.75004  0.23098  1.0000
  H   H3        1.0  0.72141  0.24998  0.76903  1.0000
  H   H4        1.0  0.77859  0.25000  0.26903  1.0000
  H   H5        1.0  0.66742  0.58583  0.51126  1.0000
  H   H6        1.0  0.83268  0.58588  0.01129  1.0000
  H   H7        1.0  0.66731  0.91412  0.51125  1.0000
  H   H8        1.0  0.16746  0.08584  0.98873  1.0000
  H   H9        1.0  0.33262  0.41415  0.48872  1.0000
  H   H10       1.0  0.16740  0.41414  0.98874  1.0000
  H   H11       1.0  0.33266  0.08584  0.48874  1.0000
  H   H12       1.0  0.83253  0.91418  0.01127  1.0000
  H   H13       1.0  0.82287  0.74997  0.42955  1.0000
  H   H14       1.0  0.67705  0.75003  0.92956  1.0000
  H   H15       1.0  0.32293  0.24998  0.07043  1.0000
  H   H16       1.0  0.17713  0.25000  0.57045  1.0000
  C   C1        1.0  0.35384  0.74996  0.66319  1.0000
  C   C2        1.0  0.14609  0.75005  0.16321  1.0000
  C   C3        1.0  0.85392  0.24999  0.83680  1.0000
  C   C4        1.0  0.64613  0.25000  0.33681  1.0000
  C   C5        1.0  0.60054  0.65955  0.54127  1.0000
  C   C6        1.0  0.89941  0.65962  0.04128  1.0000
  C   C7        1.0  0.60050  0.84040  0.54127  1.0000
  C   C8        1.0  0.10057  0.15958  0.95872  1.0000
  C   C9        1.0  0.39948  0.34043  0.45872  1.0000
  C   C10       1.0  0.10060  0.34041  0.95873  1.0000
  C   C11       1.0  0.39948  0.15958  0.45874  1.0000
  C   C12       1.0  0.89940  0.84045  0.04128  1.0000
  C   C13       1.0  0.68738  0.74997  0.49672  1.0000
  C   C14       1.0  0.81248  0.75004  0.99673  1.0000
  C   C15       1.0  0.18746  0.24999  0.00327  1.0000
  C   C16       1.0  0.31259  0.25001  0.50327  1.0000
  N   N1        1.0  0.43169  0.65927  0.62492  1.0000
  N   N2        1.0  0.06834  0.65936  0.12493  1.0000
  N   N3        1.0  0.43159  0.84066  0.62492  1.0000
  N   N4        1.0  0.93170  0.15931  0.87506  1.0000
  N   N5        1.0  0.56837  0.34070  0.37507  1.0000
  N   N6        1.0  0.93166  0.34069  0.87507  1.0000
  N   N7        1.0  0.56841  0.15932  0.37509  1.0000
  N   N8        1.0  0.06832  0.84074  0.12493  1.0000
  Cl  Cl1       1.0  0.34072  0.57682  0.85007  1.0000
  Cl  Cl2       1.0  0.15932  0.57683  0.35007  1.0000
  Cl  Cl3       1.0  0.34067  0.92316  0.85006  1.0000
  Cl  Cl4       1.0  0.84074  0.07679  0.64993  1.0000
  Cl  Cl5       1.0  0.65927  0.42321  0.14992  1.0000
  Cl  Cl6       1.0  0.84063  0.42316  0.64995  1.0000
  Cl  Cl7       1.0  0.65932  0.07686  0.14995  1.0000
  Cl  Cl8       1.0  0.15932  0.92317  0.35006  1.0000
