data_image0
_chemical_formula_structural       Cu2H8C8N4Cl2
_chemical_formula_sum              "Cu2 H8 C8 N4 Cl2"
_cell_length_a       3.73782
_cell_length_b       6.40969
_cell_length_c       11.5245
_cell_angle_alpha    89.9999
_cell_angle_beta     90.0042
_cell_angle_gamma    89.9993

_space_group_name_H-M_alt    "P 1"
_space_group_IT_number       1

loop_
  _space_group_symop_operation_xyz
  'x, y, z'

loop_
  _atom_site_type_symbol
  _atom_site_label
  _atom_site_symmetry_multiplicity
  _atom_site_fract_x
  _atom_site_fract_y
  _atom_site_fract_z
  _atom_site_occupancy
  Cu  Cu1       1.0  0.50000  0.33312  0.50000  1.0000
  Cu  Cu2       1.0  0.50000  0.33314  0.00000  1.0000
  H   H1        1.0  0.68198  0.26114  0.25001  1.0000
  H   H2        1.0  0.31803  0.26115  0.74999  1.0000
  H   H3        1.0  0.26749  0.76376  0.43648  1.0000
  H   H4        1.0  0.73251  0.76377  0.56352  1.0000
  H   H5        1.0  0.73246  0.76379  0.93648  1.0000
  H   H6        1.0  0.26754  0.76378  0.06352  1.0000
  H   H7        1.0  0.13912  0.95135  0.25000  1.0000
  H   H8        1.0  0.86088  0.95135  0.75000  1.0000
  C   C1        1.0  0.55436  0.41418  0.25000  1.0000
  C   C2        1.0  0.44565  0.41419  0.75000  1.0000
  C   C3        1.0  0.33059  0.69271  0.35305  1.0000
  C   C4        1.0  0.66941  0.69271  0.64695  1.0000
  C   C5        1.0  0.66939  0.69272  0.85305  1.0000
  C   C6        1.0  0.33060  0.69272  0.14695  1.0000
  C   C7        1.0  0.25719  0.79629  0.25001  1.0000
  C   C8        1.0  0.74280  0.79630  0.75000  1.0000
  N   N1        1.0  0.47939  0.50009  0.35358  1.0000
  N   N2        1.0  0.52061  0.50010  0.64643  1.0000
  N   N3        1.0  0.52059  0.50010  0.85357  1.0000
  N   N4        1.0  0.47940  0.50010  0.14643  1.0000
  Cl  Cl1       1.0  0.00001  0.11645  0.50001  1.0000
  Cl  Cl2       1.0  0.00001  0.11647  0.99999  1.0000
