data_image0
_chemical_formula_structural       Zn4H40C68N8O12
_chemical_formula_sum              "Zn4 H40 C68 N8 O12"
_cell_length_a       10.6605
_cell_length_b       12.577
_cell_length_c       13.6701
_cell_angle_alpha    90
_cell_angle_beta     90.0003
_cell_angle_gamma    91.2528

_space_group_name_H-M_alt    "P 1"
_space_group_IT_number       1

loop_
  _space_group_symop_operation_xyz
  'x, y, z'

loop_
  _atom_site_type_symbol
  _atom_site_label
  _atom_site_symmetry_multiplicity
  _atom_site_fract_x
  _atom_site_fract_y
  _atom_site_fract_z
  _atom_site_occupancy
  Zn  Zn1       1.0  0.46507  0.12893  0.43180  1.0000
  Zn  Zn2       1.0  0.03492  0.37108  0.93180  1.0000
  Zn  Zn3       1.0  0.53492  0.87107  0.56820  1.0000
  Zn  Zn4       1.0  0.96508  0.62893  0.06820  1.0000
  H   H1        1.0  0.68839  0.08039  0.15004  1.0000
  H   H2        1.0  0.81161  0.41961  0.65004  1.0000
  H   H3        1.0  0.31161  0.91961  0.84996  1.0000
  H   H4        1.0  0.18839  0.58039  0.34995  1.0000
  H   H5        1.0  0.80995  0.21687  0.05232  1.0000
  H   H6        1.0  0.69005  0.28313  0.55232  1.0000
  H   H7        1.0  0.19005  0.78313  0.94768  1.0000
  H   H8        1.0  0.30995  0.71686  0.44768  1.0000
  H   H9        1.0  0.67565  0.46334  0.23823  1.0000
  H   H10       1.0  0.82435  0.03666  0.73823  1.0000
  H   H11       1.0  0.32435  0.53666  0.76177  1.0000
  H   H12       1.0  0.17565  0.96334  0.26177  1.0000
  H   H13       1.0  0.53667  0.43500  0.35746  1.0000
  H   H14       1.0  0.96333  0.06500  0.85746  1.0000
  H   H15       1.0  0.46333  0.56500  0.64254  1.0000
  H   H16       1.0  0.03667  0.93500  0.14254  1.0000
  H   H17       1.0  0.37489  0.50061  0.41224  1.0000
  H   H18       1.0  0.12511  0.99939  0.91223  1.0000
  H   H19       1.0  0.62511  0.49939  0.58776  1.0000
  H   H20       1.0  0.87489  0.00061  0.08776  1.0000
  H   H21       1.0  0.22463  0.57257  0.53092  1.0000
  H   H22       1.0  0.27538  0.92743  0.03092  1.0000
  H   H23       1.0  0.77538  0.42743  0.46908  1.0000
  H   H24       1.0  0.72462  0.07258  0.96908  1.0000
  H   H25       1.0  0.13970  0.46005  0.66711  1.0000
  H   H26       1.0  0.36030  0.03994  0.16711  1.0000
  H   H27       1.0  0.86030  0.53995  0.33290  1.0000
  H   H28       1.0  0.63970  0.96006  0.83289  1.0000
  H   H29       1.0  0.13640  0.28619  0.75365  1.0000
  H   H30       1.0  0.36359  0.21381  0.25365  1.0000
  H   H31       1.0  0.86359  0.71381  0.24635  1.0000
  H   H32       1.0  0.63641  0.78619  0.74635  1.0000
  H   H33       1.0  0.20505  0.09563  0.75950  1.0000
  H   H34       1.0  0.29495  0.40437  0.25951  1.0000
  H   H35       1.0  0.79495  0.90437  0.24050  1.0000
  H   H36       1.0  0.70505  0.59563  0.74049  1.0000
  H   H37       1.0  0.34391  0.02882  0.62666  1.0000
  H   H38       1.0  0.15609  0.47118  0.12667  1.0000
  H   H39       1.0  0.65609  0.97118  0.37334  1.0000
  H   H40       1.0  0.84391  0.52882  0.87333  1.0000
  C   C1        1.0  0.61370  0.19244  0.25200  1.0000
  C   C2        1.0  0.88630  0.30756  0.75200  1.0000
  C   C3        1.0  0.38630  0.80756  0.74800  1.0000
  C   C4        1.0  0.11371  0.69244  0.24800  1.0000
  C   C5        1.0  0.68807  0.16456  0.16908  1.0000
  C   C6        1.0  0.81193  0.33544  0.66908  1.0000
  C   C7        1.0  0.31193  0.83544  0.83092  1.0000
  C   C8        1.0  0.18807  0.66456  0.33092  1.0000
  C   C9        1.0  0.75393  0.23957  0.11551  1.0000
  C   C10       1.0  0.74606  0.26043  0.61551  1.0000
  C   C11       1.0  0.24607  0.76043  0.88449  1.0000
  C   C12       1.0  0.25394  0.73957  0.38449  1.0000
  C   C13       1.0  0.75193  0.34900  0.14083  1.0000
  C   C14       1.0  0.74807  0.15101  0.64083  1.0000
  C   C15       1.0  0.24808  0.65100  0.85917  1.0000
  C   C16       1.0  0.25193  0.84899  0.35917  1.0000
  C   C17       1.0  0.67917  0.37908  0.21966  1.0000
  C   C18       1.0  0.82082  0.12092  0.71967  1.0000
  C   C19       1.0  0.32083  0.62092  0.78033  1.0000
  C   C20       1.0  0.17918  0.87908  0.28034  1.0000
  C   C21       1.0  0.60835  0.30492  0.27599  1.0000
  C   C22       1.0  0.89165  0.19508  0.77599  1.0000
  C   C23       1.0  0.39165  0.69509  0.72401  1.0000
  C   C24       1.0  0.10835  0.80492  0.22401  1.0000
  C   C25       1.0  0.53179  0.34777  0.35125  1.0000
  C   C26       1.0  0.96821  0.15223  0.85125  1.0000
  C   C27       1.0  0.46821  0.65223  0.64876  1.0000
  C   C28       1.0  0.03179  0.84777  0.14875  1.0000
  C   C29       1.0  0.37766  0.34400  0.47632  1.0000
  C   C30       1.0  0.12234  0.15600  0.97632  1.0000
  C   C31       1.0  0.62234  0.65600  0.52368  1.0000
  C   C32       1.0  0.87767  0.84400  0.02368  1.0000
  C   C33       1.0  0.33958  0.44909  0.47072  1.0000
  C   C34       1.0  0.16042  0.05091  0.97072  1.0000
  C   C35       1.0  0.66042  0.55091  0.52928  1.0000
  C   C36       1.0  0.83958  0.94910  0.02928  1.0000
  C   C37       1.0  0.25339  0.49036  0.53845  1.0000
  C   C38       1.0  0.24660  0.00964  0.03845  1.0000
  C   C39       1.0  0.74661  0.50964  0.46155  1.0000
  C   C40       1.0  0.75340  0.99036  0.96155  1.0000
  C   C41       1.0  0.20538  0.42866  0.61378  1.0000
  C   C42       1.0  0.29462  0.07134  0.11378  1.0000
  C   C43       1.0  0.79463  0.57134  0.38622  1.0000
  C   C44       1.0  0.70538  0.92867  0.88621  1.0000
  C   C45       1.0  0.24224  0.32152  0.62268  1.0000
  C   C46       1.0  0.25776  0.17848  0.12268  1.0000
  C   C47       1.0  0.75776  0.67848  0.37732  1.0000
  C   C48       1.0  0.74224  0.82152  0.87731  1.0000
  C   C49       1.0  0.19899  0.25378  0.69883  1.0000
  C   C50       1.0  0.30102  0.24621  0.19883  1.0000
  C   C51       1.0  0.80101  0.74622  0.30117  1.0000
  C   C52       1.0  0.69899  0.75379  0.80116  1.0000
  C   C53       1.0  0.23654  0.14971  0.70186  1.0000
  C   C54       1.0  0.26347  0.35029  0.20186  1.0000
  C   C55       1.0  0.76346  0.85029  0.29814  1.0000
  C   C56       1.0  0.73654  0.64971  0.79814  1.0000
  C   C57       1.0  0.31584  0.11173  0.62775  1.0000
  C   C58       1.0  0.18416  0.38827  0.12775  1.0000
  C   C59       1.0  0.68416  0.88827  0.37225  1.0000
  C   C60       1.0  0.81584  0.61173  0.87225  1.0000
  C   C61       1.0  0.32634  0.27808  0.55289  1.0000
  C   C62       1.0  0.17366  0.22192  0.05289  1.0000
  C   C63       1.0  0.67366  0.72192  0.44711  1.0000
  C   C64       1.0  0.82634  0.77809  0.94711  1.0000
  C   C65       1.0  0.82742  0.42860  0.08470  1.0000
  C   C66       1.0  0.67258  0.07141  0.58470  1.0000
  C   C67       1.0  0.17258  0.57140  0.91530  1.0000
  C   C68       1.0  0.32742  0.92859  0.41530  1.0000
  N   N1        1.0  0.45798  0.29374  0.41090  1.0000
  N   N2        1.0  0.04202  0.20625  0.91090  1.0000
  N   N3        1.0  0.54202  0.70625  0.58910  1.0000
  N   N4        1.0  0.95798  0.79375  0.08910  1.0000
  N   N5        1.0  0.35927  0.17398  0.55627  1.0000
  N   N6        1.0  0.14074  0.32601  0.05627  1.0000
  N   N7        1.0  0.64073  0.82602  0.44373  1.0000
  N   N8        1.0  0.85926  0.67399  0.94373  1.0000
  O   O1        1.0  0.55355  0.11834  0.29881  1.0000
  O   O2        1.0  0.94644  0.38166  0.79881  1.0000
  O   O3        1.0  0.44644  0.88166  0.70119  1.0000
  O   O4        1.0  0.05356  0.61834  0.20119  1.0000
  O   O5        1.0  0.87494  0.39944  0.00355  1.0000
  O   O6        1.0  0.62506  0.10056  0.50355  1.0000
  O   O7        1.0  0.12506  0.60056  0.99645  1.0000
  O   O8        1.0  0.37493  0.89944  0.49645  1.0000
  O   O9        1.0  0.83976  0.52206  0.12081  1.0000
  O   O10       1.0  0.66023  0.97794  0.62081  1.0000
  O   O11       1.0  0.16024  0.47794  0.87919  1.0000
  O   O12       1.0  0.33976  0.02206  0.37920  1.0000
