data_image0
_chemical_formula_structural       Cu2As4H20C10I2N2O4
_chemical_formula_sum              "Cu2 As4 H20 C10 I2 N2 O4"
_cell_length_a       7.84389
_cell_length_b       8.75477
_cell_length_c       9.01201
_cell_angle_alpha    63.8216
_cell_angle_beta     84.4863
_cell_angle_gamma    68.5548

_space_group_name_H-M_alt    "P 1"
_space_group_IT_number       1

loop_
  _space_group_symop_operation_xyz
  'x, y, z'

loop_
  _atom_site_type_symbol
  _atom_site_label
  _atom_site_symmetry_multiplicity
  _atom_site_fract_x
  _atom_site_fract_y
  _atom_site_fract_z
  _atom_site_occupancy
  Cu  Cu1       1.0  0.44704  0.17436  0.83756  1.0000
  Cu  Cu2       1.0  0.55296  0.82564  0.16244  1.0000
  As  As1       1.0  0.65937  0.23805  0.64115  1.0000
  As  As2       1.0  0.34063  0.76195  0.35885  1.0000
  As  As3       1.0  0.41132  0.41741  0.29128  1.0000
  As  As4       1.0  0.58868  0.58260  0.70872  1.0000
  H   H1        1.0  0.97226  0.04109  0.79072  1.0000
  H   H2        1.0  0.02773  0.95891  0.20927  1.0000
  H   H3        1.0  0.98741  0.12934  0.57020  1.0000
  H   H4        1.0  0.01259  0.87065  0.42980  1.0000
  H   H5        1.0  0.91177  0.94007  0.67954  1.0000
  H   H6        1.0  0.08824  0.05992  0.32046  1.0000
  H   H7        1.0  0.14320  0.30870  0.37638  1.0000
  H   H8        1.0  0.85680  0.69130  0.62362  1.0000
  H   H9        1.0  0.34766  0.12648  0.38045  1.0000
  H   H10       1.0  0.65233  0.87352  0.61954  1.0000
  H   H11       1.0  0.31524  0.18922  0.54866  1.0000
  H   H12       1.0  0.68476  0.81079  0.45133  1.0000
  H   H13       1.0  0.21978  0.49167  0.66213  1.0000
  H   H14       1.0  0.78021  0.50832  0.33788  1.0000
  H   H15       1.0  0.11392  0.34508  0.71195  1.0000
  H   H16       1.0  0.88608  0.65492  0.28807  1.0000
  H   H17       1.0  0.21848  0.64348  0.83497  1.0000
  H   H18       1.0  0.78152  0.35652  0.16505  1.0000
  H   H19       1.0  0.94591  0.26047  0.95537  1.0000
  H   H20       1.0  0.05409  0.73953  0.04463  1.0000
  C   C1        1.0  0.91128  0.06790  0.67328  1.0000
  C   C2        1.0  0.08872  0.93210  0.32672  1.0000
  C   C3        1.0  0.29035  0.23982  0.41469  1.0000
  C   C4        1.0  0.70965  0.76018  0.58530  1.0000
  C   C5        1.0  0.09357  0.44582  0.87984  1.0000
  C   C6        1.0  0.90644  0.55417  0.12017  1.0000
  C   C7        1.0  0.12325  0.57966  0.90749  1.0000
  C   C8        1.0  0.87676  0.42034  0.09251  1.0000
  C   C9        1.0  0.96994  0.36640  0.97385  1.0000
  C   C10       1.0  0.03006  0.63361  0.02616  1.0000
  I   I1        1.0  0.38520  0.87906  0.89921  1.0000
  I   I2        1.0  0.61481  0.12093  0.10079  1.0000
  N   N1        1.0  0.19001  0.38863  0.75947  1.0000
  N   N2        1.0  0.80999  0.61138  0.24054  1.0000
  O   O1        1.0  0.63098  0.29942  0.42084  1.0000
  O   O2        1.0  0.36902  0.70059  0.57915  1.0000
  O   O3        1.0  0.72229  0.43222  0.60906  1.0000
  O   O4        1.0  0.27770  0.56777  0.39093  1.0000
