data_image0
_chemical_formula_structural       U4H36C48N8Cl4O32
_chemical_formula_sum              "U4 H36 C48 N8 Cl4 O32"
_cell_length_a       7.21674
_cell_length_b       12.9668
_cell_length_c       16.6338
_cell_angle_alpha    91.9385
_cell_angle_beta     89.9992
_cell_angle_gamma    106.142

_space_group_name_H-M_alt    "P 1"
_space_group_IT_number       1

loop_
  _space_group_symop_operation_xyz
  'x, y, z'

loop_
  _atom_site_type_symbol
  _atom_site_label
  _atom_site_symmetry_multiplicity
  _atom_site_fract_x
  _atom_site_fract_y
  _atom_site_fract_z
  _atom_site_occupancy
  U   U1        1.0  0.27545  0.79404  0.65365  1.0000
  U   U2        1.0  0.48146  0.20608  0.84628  1.0000
  U   U3        1.0  0.72455  0.20595  0.34635  1.0000
  U   U4        1.0  0.51855  0.79392  0.15372  1.0000
  H   H1        1.0  0.39805  0.94939  0.41909  1.0000
  H   H2        1.0  0.44925  0.05082  0.08104  1.0000
  H   H3        1.0  0.60197  0.05061  0.58091  1.0000
  H   H4        1.0  0.55074  0.94918  0.91895  1.0000
  H   H5        1.0  0.19950  0.92452  0.29100  1.0000
  H   H6        1.0  0.27543  0.07574  0.20904  1.0000
  H   H7        1.0  0.80052  0.07549  0.70899  1.0000
  H   H8        1.0  0.72457  0.92426  0.79095  1.0000
  H   H9        1.0  0.69024  0.82850  0.43877  1.0000
  H   H10       1.0  0.86203  0.17170  0.06134  1.0000
  H   H11       1.0  0.30978  0.17149  0.56122  1.0000
  H   H12       1.0  0.13795  0.82830  0.93865  1.0000
  H   H13       1.0  0.90876  0.85740  0.55996  1.0000
  H   H14       1.0  0.05185  0.14283  0.94017  1.0000
  H   H15       1.0  0.09125  0.14259  0.44004  1.0000
  H   H16       1.0  0.94813  0.85716  0.05982  1.0000
  H   H17       1.0  0.29602  0.64960  0.86034  1.0000
  H   H18       1.0  0.64622  0.35021  0.63953  1.0000
  H   H19       1.0  0.70398  0.35040  0.13967  1.0000
  H   H20       1.0  0.35378  0.64979  0.36047  1.0000
  H   H21       1.0  0.52066  0.60718  0.96259  1.0000
  H   H22       1.0  0.91353  0.39267  0.53729  1.0000
  H   H23       1.0  0.47932  0.39281  0.03743  1.0000
  H   H24       1.0  0.08647  0.60733  0.46271  1.0000
  H   H25       1.0  0.88391  0.51669  0.03842  1.0000
  H   H26       1.0  0.36733  0.48359  0.46166  1.0000
  H   H27       1.0  0.11606  0.48330  0.96159  1.0000
  H   H28       1.0  0.63267  0.51641  0.53834  1.0000
  H   H29       1.0  0.91271  0.59504  0.76789  1.0000
  H   H30       1.0  0.31750  0.40486  0.73206  1.0000
  H   H31       1.0  0.08728  0.40496  0.23212  1.0000
  H   H32       1.0  0.68249  0.59514  0.26794  1.0000
  H   H33       1.0  0.67401  0.64181  0.67378  1.0000
  H   H34       1.0  0.03199  0.35810  0.82617  1.0000
  H   H35       1.0  0.32600  0.35819  0.32623  1.0000
  H   H36       1.0  0.96801  0.64190  0.17383  1.0000
  C   C1        1.0  0.24126  0.92254  0.41786  1.0000
  C   C2        1.0  0.31921  0.07762  0.08223  1.0000
  C   C3        1.0  0.75876  0.07746  0.58214  1.0000
  C   C4        1.0  0.68078  0.92239  0.91776  1.0000
  C   C5        1.0  0.12810  0.90926  0.34882  1.0000
  C   C6        1.0  0.21923  0.09098  0.15124  1.0000
  C   C7        1.0  0.87192  0.09075  0.65118  1.0000
  C   C8        1.0  0.78076  0.90902  0.84876  1.0000
  C   C9        1.0  0.92724  0.87490  0.35498  1.0000
  C   C10       1.0  0.05266  0.12532  0.14511  1.0000
  C   C11       1.0  0.07277  0.12510  0.64502  1.0000
  C   C12       1.0  0.94733  0.87468  0.85488  1.0000
  C   C13       1.0  0.79357  0.85382  0.28393  1.0000
  C   C14       1.0  0.93986  0.14626  0.21615  1.0000
  C   C15       1.0  0.20645  0.14618  0.71607  1.0000
  C   C16       1.0  0.06014  0.85374  0.78385  1.0000
  C   C17       1.0  0.84577  0.85583  0.43127  1.0000
  C   C18       1.0  0.99028  0.14439  0.06881  1.0000
  C   C19       1.0  0.15425  0.14417  0.56873  1.0000
  C   C20       1.0  0.00970  0.85562  0.93118  1.0000
  C   C21       1.0  0.96176  0.87056  0.49887  1.0000
  C   C22       1.0  0.09164  0.12964  0.00125  1.0000
  C   C23       1.0  0.03825  0.12944  0.50113  1.0000
  C   C24       1.0  0.90834  0.87036  0.99874  1.0000
  C   C25       1.0  0.43442  0.63656  0.84506  1.0000
  C   C26       1.0  0.79762  0.36321  0.65482  1.0000
  C   C27       1.0  0.56557  0.36343  0.15495  1.0000
  C   C28       1.0  0.20238  0.63679  0.34518  1.0000
  C   C29       1.0  0.55954  0.61221  0.89934  1.0000
  C   C30       1.0  0.94716  0.38763  0.60057  1.0000
  C   C31       1.0  0.44045  0.38779  0.10067  1.0000
  C   C32       1.0  0.05284  0.61237  0.39943  1.0000
  C   C33       1.0  0.73013  0.59256  0.87188  1.0000
  C   C34       1.0  0.13738  0.40733  0.62806  1.0000
  C   C35       1.0  0.26986  0.40744  0.12813  1.0000
  C   C36       1.0  0.86262  0.59267  0.37194  1.0000
  C   C37       1.0  0.85668  0.55488  0.92742  1.0000
  C   C38       1.0  0.30165  0.44501  0.57259  1.0000
  C   C39       1.0  0.14332  0.44511  0.07259  1.0000
  C   C40       1.0  0.69836  0.55499  0.42741  1.0000
  C   C41       1.0  0.77727  0.60532  0.79049  1.0000
  C   C42       1.0  0.17182  0.39461  0.70946  1.0000
  C   C43       1.0  0.22273  0.39468  0.20953  1.0000
  C   C44       1.0  0.82818  0.60539  0.29053  1.0000
  C   C45       1.0  0.65070  0.63120  0.73783  1.0000
  C   C46       1.0  0.01939  0.36869  0.76211  1.0000
  C   C47       1.0  0.34930  0.36881  0.26219  1.0000
  C   C48       1.0  0.98061  0.63131  0.23789  1.0000
  N   N1        1.0  0.15678  0.90341  0.49099  1.0000
  N   N2        1.0  0.25386  0.09677  0.00911  1.0000
  N   N3        1.0  0.84324  0.09658  0.50901  1.0000
  N   N4        1.0  0.74613  0.90323  0.99088  1.0000
  N   N5        1.0  0.47887  0.64153  0.76561  1.0000
  N   N6        1.0  0.83724  0.35835  0.73427  1.0000
  N   N7        1.0  0.52114  0.35847  0.23440  1.0000
  N   N8        1.0  0.16275  0.64165  0.26573  1.0000
  Cl  Cl1       1.0  0.45489  0.72380  0.53177  1.0000
  Cl  Cl2       1.0  0.73116  0.27631  0.96820  1.0000
  Cl  Cl3       1.0  0.54511  0.27619  0.46824  1.0000
  Cl  Cl4       1.0  0.26882  0.72369  0.03181  1.0000
  O   O1        1.0  0.05079  0.69919  0.62032  1.0000
  O   O2        1.0  0.35160  0.30096  0.87960  1.0000
  O   O3        1.0  0.94921  0.30080  0.37968  1.0000
  O   O4        1.0  0.64840  0.69904  0.12040  1.0000
  O   O5        1.0  0.49829  0.88855  0.68905  1.0000
  O   O6        1.0  0.60996  0.11162  0.81090  1.0000
  O   O7        1.0  0.50171  0.11144  0.31095  1.0000
  O   O8        1.0  0.39006  0.88838  0.18910  1.0000
  O   O9        1.0  0.26894  0.92056  0.55644  1.0000
  O   O10       1.0  0.34880  0.07964  0.94362  1.0000
  O   O11       1.0  0.73107  0.07943  0.44356  1.0000
  O   O12       1.0  0.65119  0.92036  0.05638  1.0000
  O   O13       1.0  0.61974  0.79666  0.29505  1.0000
  O   O14       1.0  0.82296  0.20333  0.20506  1.0000
  O   O15       1.0  0.38027  0.20335  0.70495  1.0000
  O   O16       1.0  0.17703  0.79668  0.79494  1.0000
  O   O17       1.0  0.84779  0.88844  0.21475  1.0000
  O   O18       1.0  0.95945  0.11155  0.28529  1.0000
  O   O19       1.0  0.15224  0.11155  0.78525  1.0000
  O   O20       1.0  0.04055  0.88845  0.71470  1.0000
  O   O21       1.0  0.34643  0.65081  0.71357  1.0000
  O   O22       1.0  0.69557  0.34918  0.78631  1.0000
  O   O23       1.0  0.65358  0.34919  0.28644  1.0000
  O   O24       1.0  0.30444  0.65083  0.21369  1.0000
  O   O25       1.0  0.79764  0.54797  0.00204  1.0000
  O   O26       1.0  0.24975  0.45232  0.49800  1.0000
  O   O27       1.0  0.20234  0.45202  0.99797  1.0000
  O   O28       1.0  0.75025  0.54768  0.50200  1.0000
  O   O29       1.0  0.00309  0.53114  0.90234  1.0000
  O   O30       1.0  0.47175  0.46853  0.59769  1.0000
  O   O31       1.0  0.99690  0.46886  0.09767  1.0000
  O   O32       1.0  0.52825  0.53147  0.40231  1.0000
