data_image0
_chemical_formula_structural       Ba4H16C28O28
_chemical_formula_sum              "Ba4 H16 C28 O28"
_cell_length_a       4.34564
_cell_length_b       10.1844
_cell_length_c       19.4539
_cell_angle_alpha    90
_cell_angle_beta     90
_cell_angle_gamma    90

_space_group_name_H-M_alt    "P 1"
_space_group_IT_number       1

loop_
  _space_group_symop_operation_xyz
  'x, y, z'

loop_
  _atom_site_type_symbol
  _atom_site_label
  _atom_site_symmetry_multiplicity
  _atom_site_fract_x
  _atom_site_fract_y
  _atom_site_fract_z
  _atom_site_occupancy
  Ba  Ba1       1.0  0.43791  0.25000  0.83732  1.0000
  Ba  Ba2       1.0  0.93791  0.75000  0.66268  1.0000
  Ba  Ba3       1.0  0.56209  0.75000  0.16268  1.0000
  Ba  Ba4       1.0  0.06209  0.25000  0.33732  1.0000
  H   H1        1.0  0.73840  0.46498  0.03359  1.0000
  H   H2        1.0  0.23840  0.53502  0.46641  1.0000
  H   H3        1.0  0.26159  0.96498  0.96641  1.0000
  H   H4        1.0  0.76160  0.03502  0.53359  1.0000
  H   H5        1.0  0.26160  0.53502  0.96641  1.0000
  H   H6        1.0  0.76160  0.46498  0.53359  1.0000
  H   H7        1.0  0.73840  0.03502  0.03359  1.0000
  H   H8        1.0  0.23840  0.96498  0.46641  1.0000
  H   H9        1.0  0.98283  0.17156  0.71371  1.0000
  H   H10       1.0  0.48283  0.82844  0.78629  1.0000
  H   H11       1.0  0.01717  0.67156  0.28629  1.0000
  H   H12       1.0  0.51716  0.32844  0.21371  1.0000
  H   H13       1.0  0.01717  0.82844  0.28629  1.0000
  H   H14       1.0  0.51717  0.17156  0.21371  1.0000
  H   H15       1.0  0.98283  0.32844  0.71371  1.0000
  H   H16       1.0  0.48283  0.67156  0.78629  1.0000
  C   C1        1.0  0.01989  0.36494  0.10427  1.0000
  C   C2        1.0  0.51989  0.63506  0.39573  1.0000
  C   C3        1.0  0.98011  0.86494  0.89573  1.0000
  C   C4        1.0  0.48011  0.13506  0.60427  1.0000
  C   C5        1.0  0.98011  0.63506  0.89573  1.0000
  C   C6        1.0  0.48011  0.36494  0.60427  1.0000
  C   C7        1.0  0.01989  0.13506  0.10427  1.0000
  C   C8        1.0  0.51989  0.86494  0.39573  1.0000
  C   C9        1.0  0.69203  0.25000  0.02207  1.0000
  C   C10       1.0  0.19203  0.75000  0.47793  1.0000
  C   C11       1.0  0.30797  0.75000  0.97793  1.0000
  C   C12       1.0  0.80797  0.25000  0.52207  1.0000
  C   C13       1.0  0.81310  0.36926  0.05200  1.0000
  C   C14       1.0  0.31310  0.63074  0.44800  1.0000
  C   C15       1.0  0.18689  0.86926  0.94800  1.0000
  C   C16       1.0  0.68690  0.13074  0.55200  1.0000
  C   C17       1.0  0.18690  0.63074  0.94800  1.0000
  C   C18       1.0  0.68690  0.36926  0.55200  1.0000
  C   C19       1.0  0.81310  0.13074  0.05200  1.0000
  C   C20       1.0  0.31310  0.86926  0.44800  1.0000
  C   C21       1.0  0.15577  0.48488  0.13836  1.0000
  C   C22       1.0  0.65577  0.51512  0.36164  1.0000
  C   C23       1.0  0.84423  0.98488  0.86164  1.0000
  C   C24       1.0  0.34424  0.01512  0.63836  1.0000
  C   C25       1.0  0.84424  0.51512  0.86164  1.0000
  C   C26       1.0  0.34424  0.48488  0.63836  1.0000
  C   C27       1.0  0.15577  0.01512  0.13836  1.0000
  C   C28       1.0  0.65576  0.98488  0.36164  1.0000
  O   O1        1.0  0.91742  0.25000  0.74087  1.0000
  O   O2        1.0  0.41742  0.75000  0.75913  1.0000
  O   O3        1.0  0.08258  0.75000  0.25913  1.0000
  O   O4        1.0  0.58258  0.25000  0.24087  1.0000
  O   O5        1.0  0.49200  0.25000  0.97528  1.0000
  O   O6        1.0  0.99200  0.75000  0.52472  1.0000
  O   O7        1.0  0.50800  0.75000  0.02472  1.0000
  O   O8        1.0  0.00800  0.25000  0.47528  1.0000
  O   O9        1.0  0.12725  0.25000  0.13022  1.0000
  O   O10       1.0  0.62725  0.75000  0.36978  1.0000
  O   O11       1.0  0.87275  0.75000  0.86978  1.0000
  O   O12       1.0  0.37276  0.25000  0.63022  1.0000
  O   O13       1.0  0.37366  0.47079  0.18112  1.0000
  O   O14       1.0  0.87366  0.52921  0.31888  1.0000
  O   O15       1.0  0.62634  0.97079  0.81888  1.0000
  O   O16       1.0  0.12634  0.02921  0.68112  1.0000
  O   O17       1.0  0.62634  0.52921  0.81888  1.0000
  O   O18       1.0  0.12634  0.47079  0.68112  1.0000
  O   O19       1.0  0.37366  0.02921  0.18112  1.0000
  O   O20       1.0  0.87366  0.97079  0.31888  1.0000
  O   O21       1.0  0.04391  0.59400  0.11946  1.0000
  O   O22       1.0  0.54391  0.40600  0.38054  1.0000
  O   O23       1.0  0.95609  0.09400  0.88054  1.0000
  O   O24       1.0  0.45608  0.90600  0.61946  1.0000
  O   O25       1.0  0.95609  0.40600  0.88054  1.0000
  O   O26       1.0  0.45609  0.59400  0.61946  1.0000
  O   O27       1.0  0.04391  0.90600  0.11946  1.0000
  O   O28       1.0  0.54391  0.09400  0.38054  1.0000
