data_image0
_chemical_formula_structural       Mn2H22C18N2O20
_chemical_formula_sum              "Mn2 H22 C18 N2 O20"
_cell_length_a       6.42279
_cell_length_b       7.11086
_cell_length_c       13.5888
_cell_angle_alpha    104.614
_cell_angle_beta     102.913
_cell_angle_gamma    93.1086

_space_group_name_H-M_alt    "P 1"
_space_group_IT_number       1

loop_
  _space_group_symop_operation_xyz
  'x, y, z'

loop_
  _atom_site_type_symbol
  _atom_site_label
  _atom_site_symmetry_multiplicity
  _atom_site_fract_x
  _atom_site_fract_y
  _atom_site_fract_z
  _atom_site_occupancy
  Mn  Mn1       1.0  0.09214  0.92051  0.05846  1.0000
  Mn  Mn2       1.0  0.53332  0.86175  0.94136  1.0000
  H   H1        1.0  0.02804  0.24085  0.21703  1.0000
  H   H2        1.0  0.30894  0.02181  0.78216  1.0000
  H   H3        1.0  0.25525  0.27179  0.19527  1.0000
  H   H4        1.0  0.55813  0.07440  0.80436  1.0000
  H   H5        1.0  0.01039  0.58850  0.12324  1.0000
  H   H6        1.0  0.38600  0.46390  0.87692  1.0000
  H   H7        1.0  0.26082  0.58292  0.13192  1.0000
  H   H8        1.0  0.62759  0.44850  0.86857  1.0000
  H   H9        1.0  0.33658  0.24938  0.04591  1.0000
  H   H10       1.0  0.79020  0.20447  0.95391  1.0000
  H   H11       1.0  0.18017  0.17649  0.92884  1.0000
  H   H12       1.0  0.75258  0.24995  0.07115  1.0000
  H   H13       1.0  0.65030  0.05902  0.63985  1.0000
  H   H14       1.0  0.51096  0.42077  0.35958  1.0000
  H   H15       1.0  0.75252  0.29596  0.64107  1.0000
  H   H16       1.0  0.61311  0.65690  0.35940  1.0000
  H   H17       1.0  0.56315  0.14590  0.48876  1.0000
  H   H18       1.0  0.57318  0.65655  0.51151  1.0000
  H   H19       1.0  0.43930  0.06165  0.29741  1.0000
  H   H20       1.0  0.63988  0.76132  0.70299  1.0000
  H   H21       1.0  0.03352  0.82495  0.26929  1.0000
  H   H22       1.0  0.26207  0.55239  0.73090  1.0000
  C   C1        1.0  0.90744  0.20451  0.77410  1.0000
  C   C2        1.0  0.63500  0.43200  0.22600  1.0000
  C   C3        1.0  0.79927  0.15864  0.65787  1.0000
  C   C4        1.0  0.64234  0.50238  0.34210  1.0000
  C   C5        1.0  0.86841  0.02954  0.49083  1.0000
  C   C6        1.0  0.87674  0.53872  0.50944  1.0000
  C   C7        1.0  0.66690  0.07362  0.44137  1.0000
  C   C8        1.0  0.72400  0.63106  0.55888  1.0000
  C   C9        1.0  0.59777  0.02827  0.33294  1.0000
  C   C10       1.0  0.76279  0.69261  0.66735  1.0000
  C   C11       1.0  0.72921  0.94094  0.26868  1.0000
  C   C12       1.0  0.95832  0.66889  0.73150  1.0000
  C   C13       1.0  0.92808  0.89478  0.31613  1.0000
  C   C14       1.0  0.10997  0.57567  0.68408  1.0000
  C   C15       1.0  0.99673  0.93386  0.42482  1.0000
  C   C16       1.0  0.07047  0.50795  0.57535  1.0000
  C   C17       1.0  0.65998  0.89690  0.15252  1.0000
  C   C18       1.0  0.00584  0.74174  0.84757  1.0000
  N   N1        1.0  0.20021  0.86607  0.46484  1.0000
  N   N2        1.0  0.23425  0.40148  0.53475  1.0000
  O   O1        1.0  0.79038  0.83191  0.09686  1.0000
  O   O2        1.0  0.19195  0.73201  0.90314  1.0000
  O   O3        1.0  0.47234  0.92607  0.10791  1.0000
  O   O4        1.0  0.86347  0.81723  0.89220  1.0000
  O   O5        1.0  0.77869  0.25276  0.83356  1.0000
  O   O6        1.0  0.44680  0.42026  0.16625  1.0000
  O   O7        1.0  0.10567  0.19604  0.80582  1.0000
  O   O8        1.0  0.80188  0.39247  0.19457  1.0000
  O   O9        1.0  0.94137  0.07347  0.59568  1.0000
  O   O10       1.0  0.84646  0.47958  0.40464  1.0000
  O   O11       1.0  0.28063  0.91076  0.56109  1.0000
  O   O12       1.0  0.22289  0.35779  0.43893  1.0000
  O   O13       1.0  0.28484  0.76223  0.39957  1.0000
  O   O14       1.0  0.38012  0.35615  0.59917  1.0000
  O   O15       1.0  0.14885  0.16965  0.20010  1.0000
  O   O16       1.0  0.44657  0.96756  0.79945  1.0000
  O   O17       1.0  0.13479  0.64741  0.10705  1.0000
  O   O18       1.0  0.52698  0.53885  0.89333  1.0000
  O   O19       1.0  0.24385  0.13602  0.99335  1.0000
  O   O20       1.0  0.74999  0.14431  0.00635  1.0000
