data_image0
_chemical_formula_structural       Cu2P4H24C16N4O12
_chemical_formula_sum              "Cu2 P4 H24 C16 N4 O12"
_cell_length_a       8.16557
_cell_length_b       8.89366
_cell_length_c       10.247
_cell_angle_alpha    70.9171
_cell_angle_beta     69.1073
_cell_angle_gamma    68.2375

_space_group_name_H-M_alt    "P 1"
_space_group_IT_number       1

loop_
  _space_group_symop_operation_xyz
  'x, y, z'

loop_
  _atom_site_type_symbol
  _atom_site_label
  _atom_site_symmetry_multiplicity
  _atom_site_fract_x
  _atom_site_fract_y
  _atom_site_fract_z
  _atom_site_occupancy
  Cu  Cu1       1.0  0.50648  0.59486  0.25325  1.0000
  Cu  Cu2       1.0  0.49352  0.40514  0.74675  1.0000
  P   P1        1.0  0.77325  0.32906  0.39007  1.0000
  P   P2        1.0  0.22675  0.67094  0.60992  1.0000
  P   P3        1.0  0.17099  0.55956  0.24310  1.0000
  P   P4        1.0  0.82901  0.44043  0.75690  1.0000
  H   H1        1.0  0.26296  0.93270  0.19085  1.0000
  H   H2        1.0  0.73706  0.06730  0.80913  1.0000
  H   H3        1.0  0.27930  0.22045  0.15038  1.0000
  H   H4        1.0  0.72070  0.77955  0.84962  1.0000
  H   H5        1.0  0.84568  0.00468  0.15984  1.0000
  H   H6        1.0  0.15431  0.99532  0.84017  1.0000
  H   H7        1.0  0.80951  0.72780  0.18993  1.0000
  H   H8        1.0  0.19049  0.27220  0.81007  1.0000
  H   H9        1.0  0.49391  0.39894  0.08117  1.0000
  H   H10       1.0  0.50609  0.60106  0.91884  1.0000
  H   H11       1.0  0.71415  0.30868  0.11249  1.0000
  H   H12       1.0  0.28585  0.69132  0.88751  1.0000
  H   H13       1.0  0.65593  0.11096  0.38731  1.0000
  H   H14       1.0  0.34408  0.88903  0.61270  1.0000
  H   H15       1.0  0.50752  0.24037  0.50911  1.0000
  H   H16       1.0  0.49248  0.75963  0.49090  1.0000
  H   H17       1.0  0.25423  0.39610  0.46278  1.0000
  H   H18       1.0  0.74577  0.60390  0.53723  1.0000
  H   H19       1.0  0.25595  0.26265  0.36576  1.0000
  H   H20       1.0  0.74405  0.73735  0.63424  1.0000
  H   H21       1.0  0.99363  0.38827  0.20230  1.0000
  H   H22       1.0  0.00637  0.61174  0.79770  1.0000
  H   H23       1.0  0.06002  0.70003  0.40824  1.0000
  H   H24       1.0  0.93998  0.29997  0.59176  1.0000
  C   C1        1.0  0.38841  0.95579  0.18288  1.0000
  C   C2        1.0  0.61160  0.04421  0.81711  1.0000
  C   C3        1.0  0.39869  0.11441  0.16304  1.0000
  C   C4        1.0  0.60131  0.88559  0.83696  1.0000
  C   C5        1.0  0.56199  0.13579  0.15960  1.0000
  C   C6        1.0  0.43801  0.86421  0.84040  1.0000
  C   C7        1.0  0.71353  0.99519  0.16624  1.0000
  C   C8        1.0  0.28648  0.00481  0.83375  1.0000
  C   C9        1.0  0.69548  0.84018  0.18270  1.0000
  C   C10       1.0  0.30452  0.15983  0.81729  1.0000
  C   C11       1.0  0.57207  0.30369  0.15312  1.0000
  C   C12       1.0  0.42793  0.69631  0.84689  1.0000
  C   C13       1.0  0.59953  0.23957  0.40091  1.0000
  C   C14       1.0  0.40048  0.76043  0.59910  1.0000
  C   C15       1.0  0.29391  0.37353  0.35509  1.0000
  C   C16       1.0  0.70609  0.62647  0.64491  1.0000
  N   N1        1.0  0.53409  0.82103  0.19469  1.0000
  N   N2        1.0  0.46592  0.17896  0.80531  1.0000
  N   N3        1.0  0.49404  0.35046  0.29580  1.0000
  N   N4        1.0  0.50596  0.64954  0.70421  1.0000
  O   O1        1.0  0.92703  0.29597  0.24681  1.0000
  O   O2        1.0  0.07295  0.70403  0.75317  1.0000
  O   O3        1.0  0.67417  0.51760  0.37077  1.0000
  O   O4        1.0  0.32582  0.48240  0.62923  1.0000
  O   O5        1.0  0.83998  0.25038  0.52330  1.0000
  O   O6        1.0  0.16004  0.74962  0.47668  1.0000
  O   O7        1.0  0.31257  0.65811  0.16108  1.0000
  O   O8        1.0  0.68742  0.34189  0.83892  1.0000
  O   O9        1.0  0.09661  0.51640  0.14881  1.0000
  O   O10       1.0  0.90339  0.48360  0.85119  1.0000
  O   O11       1.0  0.00816  0.65937  0.35121  1.0000
  O   O12       1.0  0.99184  0.34063  0.64879  1.0000
