data_image0
_chemical_formula_structural       K6Cu2P2H32C20N4O24
_chemical_formula_sum              "K6 Cu2 P2 H32 C20 N4 O24"
_cell_length_a       8.31468
_cell_length_b       9.73047
_cell_length_c       11.9944
_cell_angle_alpha    90.0002
_cell_angle_beta     89.9998
_cell_angle_gamma    90.0006

_space_group_name_H-M_alt    "P 1"
_space_group_IT_number       1

loop_
  _space_group_symop_operation_xyz
  'x, y, z'

loop_
  _atom_site_type_symbol
  _atom_site_label
  _atom_site_symmetry_multiplicity
  _atom_site_fract_x
  _atom_site_fract_y
  _atom_site_fract_z
  _atom_site_occupancy
  K   K1        1.0  0.49998  0.85601  0.50000  1.0000
  K   K2        1.0  0.99999  0.14399  0.00000  1.0000
  K   K3        1.0  0.15128  0.89258  0.72981  1.0000
  K   K4        1.0  0.84872  0.89259  0.27019  1.0000
  K   K5        1.0  0.65129  0.10741  0.77019  1.0000
  K   K6        1.0  0.34872  0.10741  0.22980  1.0000
  Cu  Cu1       1.0  0.00000  0.25214  0.50000  1.0000
  Cu  Cu2       1.0  0.49999  0.74786  0.00000  1.0000
  P   P1        1.0  0.00001  0.62627  0.50000  1.0000
  P   P2        1.0  0.50001  0.37373  0.00000  1.0000
  H   H1        1.0  0.39289  0.34875  0.64451  1.0000
  H   H2        1.0  0.60712  0.34873  0.35549  1.0000
  H   H3        1.0  0.89288  0.65128  0.85550  1.0000
  H   H4        1.0  0.10710  0.65124  0.14450  1.0000
  H   H5        1.0  0.36117  0.32323  0.49879  1.0000
  H   H6        1.0  0.63885  0.32322  0.50121  1.0000
  H   H7        1.0  0.86115  0.67680  0.00122  1.0000
  H   H8        1.0  0.13884  0.67676  0.99878  1.0000
  H   H9        1.0  0.06955  0.51738  0.71219  1.0000
  H   H10       1.0  0.93046  0.51736  0.28781  1.0000
  H   H11       1.0  0.56956  0.48264  0.78780  1.0000
  H   H12       1.0  0.43045  0.48262  0.21220  1.0000
  H   H13       1.0  0.19612  0.38268  0.75943  1.0000
  H   H14       1.0  0.80390  0.38267  0.24057  1.0000
  H   H15       1.0  0.69611  0.61735  0.74058  1.0000
  H   H16       1.0  0.30388  0.61732  0.25943  1.0000
  H   H17       1.0  0.21685  0.48561  0.43609  1.0000
  H   H18       1.0  0.78315  0.48561  0.56391  1.0000
  H   H19       1.0  0.71686  0.51440  0.06391  1.0000
  H   H20       1.0  0.28315  0.51438  0.93609  1.0000
  H   H21       1.0  0.26844  0.58107  0.55913  1.0000
  H   H22       1.0  0.73156  0.58106  0.44086  1.0000
  H   H23       1.0  0.76844  0.41895  0.94087  1.0000
  H   H24       1.0  0.23156  0.41892  0.05913  1.0000
  H   H25       1.0  0.84547  0.84192  0.60901  1.0000
  H   H26       1.0  0.15452  0.84192  0.39099  1.0000
  H   H27       1.0  0.34549  0.15808  0.89100  1.0000
  H   H28       1.0  0.65453  0.15807  0.10900  1.0000
  H   H29       1.0  0.82416  0.98680  0.55273  1.0000
  H   H30       1.0  0.17584  0.98680  0.44727  1.0000
  H   H31       1.0  0.32417  0.01320  0.94728  1.0000
  H   H32       1.0  0.67583  0.01319  0.05271  1.0000
  C   C1        1.0  0.30783  0.30937  0.58185  1.0000
  C   C2        1.0  0.69218  0.30936  0.41815  1.0000
  C   C3        1.0  0.80782  0.69065  0.91816  1.0000
  C   C4        1.0  0.19217  0.69061  0.08185  1.0000
  C   C5        1.0  0.28389  0.15541  0.59514  1.0000
  C   C6        1.0  0.71613  0.15539  0.40487  1.0000
  C   C7        1.0  0.78386  0.84462  0.90487  1.0000
  C   C8        1.0  0.21612  0.84459  0.09513  1.0000
  C   C9        1.0  0.09885  0.40796  0.70086  1.0000
  C   C10       1.0  0.90116  0.40795  0.29913  1.0000
  C   C11       1.0  0.59885  0.59206  0.79914  1.0000
  C   C12       1.0  0.40114  0.59204  0.20086  1.0000
  C   C13       1.0  0.94784  0.32653  0.73526  1.0000
  C   C14       1.0  0.05217  0.32652  0.26474  1.0000
  C   C15       1.0  0.44782  0.67348  0.76474  1.0000
  C   C16       1.0  0.55216  0.67347  0.23526  1.0000
  C   C17       1.0  0.17597  0.51561  0.51948  1.0000
  C   C18       1.0  0.82403  0.51560  0.48051  1.0000
  C   C19       1.0  0.67597  0.48440  0.98052  1.0000
  C   C20       1.0  0.32403  0.48439  0.01949  1.0000
  N   N1        1.0  0.15463  0.38681  0.58400  1.0000
  N   N2        1.0  0.84538  0.38680  0.41599  1.0000
  N   N3        1.0  0.65462  0.61321  0.91601  1.0000
  N   N4        1.0  0.34537  0.61318  0.08401  1.0000
  O   O1        1.0  0.14393  0.10818  0.56634  1.0000
  O   O2        1.0  0.85608  0.10817  0.43366  1.0000
  O   O3        1.0  0.64391  0.89182  0.93366  1.0000
  O   O4        1.0  0.35606  0.89180  0.06634  1.0000
  O   O5        1.0  0.39739  0.08115  0.62710  1.0000
  O   O6        1.0  0.60262  0.08114  0.37291  1.0000
  O   O7        1.0  0.89737  0.91887  0.87291  1.0000
  O   O8        1.0  0.10260  0.91884  0.12709  1.0000
  O   O9        1.0  0.85347  0.28293  0.65963  1.0000
  O   O10       1.0  0.14654  0.28292  0.34037  1.0000
  O   O11       1.0  0.35346  0.71707  0.84037  1.0000
  O   O12       1.0  0.64651  0.71707  0.15963  1.0000
  O   O13       1.0  0.92637  0.31323  0.83891  1.0000
  O   O14       1.0  0.07364  0.31321  0.16110  1.0000
  O   O15       1.0  0.42636  0.68678  0.66111  1.0000
  O   O16       1.0  0.57362  0.68677  0.33890  1.0000
  O   O17       1.0  0.96856  0.70680  0.60689  1.0000
  O   O18       1.0  0.03144  0.70680  0.39311  1.0000
  O   O19       1.0  0.46858  0.29320  0.89311  1.0000
  O   O20       1.0  0.53145  0.29320  0.10689  1.0000
  O   O21       1.0  0.77826  0.92722  0.61081  1.0000
  O   O22       1.0  0.22172  0.92723  0.38918  1.0000
  O   O23       1.0  0.27828  0.07278  0.88919  1.0000
  O   O24       1.0  0.72173  0.07276  0.11080  1.0000
