data_image0
_chemical_formula_structural       Cd2H16C20S2N6Cl2
_chemical_formula_sum              "Cd2 H16 C20 S2 N6 Cl2"
_cell_length_a       7.44059
_cell_length_b       8.30878
_cell_length_c       10.4131
_cell_angle_alpha    104.127
_cell_angle_beta     98.1703
_cell_angle_gamma    111.918

_space_group_name_H-M_alt    "P 1"
_space_group_IT_number       1

loop_
  _space_group_symop_operation_xyz
  'x, y, z'

loop_
  _atom_site_type_symbol
  _atom_site_label
  _atom_site_symmetry_multiplicity
  _atom_site_fract_x
  _atom_site_fract_y
  _atom_site_fract_z
  _atom_site_occupancy
  Cd  Cd1       1.0  0.63116  0.89584  0.60248  1.0000
  Cd  Cd2       1.0  0.36884  0.10416  0.39752  1.0000
  H   H1        1.0  0.52260  0.79556  0.87345  1.0000
  H   H2        1.0  0.47739  0.20444  0.12655  1.0000
  H   H3        1.0  0.65268  0.92075  0.13147  1.0000
  H   H4        1.0  0.34732  0.07925  0.86853  1.0000
  H   H5        1.0  0.96437  0.21294  0.23594  1.0000
  H   H6        1.0  0.03563  0.78707  0.76406  1.0000
  H   H7        1.0  0.23918  0.47476  0.20460  1.0000
  H   H8        1.0  0.76081  0.52525  0.79540  1.0000
  H   H9        1.0  0.40557  0.62126  0.04807  1.0000
  H   H10       1.0  0.59442  0.37875  0.95193  1.0000
  H   H11       1.0  0.26553  0.47729  0.79387  1.0000
  H   H12       1.0  0.73446  0.52270  0.20613  1.0000
  H   H13       1.0  0.89357  0.24946  0.61523  1.0000
  H   H14       1.0  0.10643  0.75054  0.38477  1.0000
  H   H15       1.0  0.04590  0.14828  0.61636  1.0000
  H   H16       1.0  0.95409  0.85171  0.38364  1.0000
  C   C1        1.0  0.65778  0.92316  0.92349  1.0000
  C   C2        1.0  0.34223  0.07684  0.07652  1.0000
  C   C3        1.0  0.72985  0.99347  0.06728  1.0000
  C   C4        1.0  0.27016  0.00653  0.93272  1.0000
  C   C5        1.0  0.90080  0.15516  0.12514  1.0000
  C   C6        1.0  0.09920  0.84485  0.87486  1.0000
  C   C7        1.0  0.99948  0.24726  0.04012  1.0000
  C   C8        1.0  0.00051  0.75274  0.95988  1.0000
  C   C9        1.0  0.17662  0.41300  0.09384  1.0000
  C   C10       1.0  0.82338  0.58700  0.90616  1.0000
  C   C11       1.0  0.26928  0.49396  0.00603  1.0000
  C   C12       1.0  0.73072  0.50604  0.99397  1.0000
  C   C13       1.0  0.19014  0.41274  0.86258  1.0000
  C   C14       1.0  0.80985  0.58726  0.13742  1.0000
  C   C15       1.0  0.01658  0.25198  0.80609  1.0000
  C   C16       1.0  0.98342  0.74802  0.19391  1.0000
  C   C17       1.0  0.91678  0.16557  0.89472  1.0000
  C   C18       1.0  0.08322  0.83443  0.10528  1.0000
  C   C19       1.0  0.25654  0.46697  0.50048  1.0000
  C   C20       1.0  0.74347  0.53304  0.49951  1.0000
  S   S1        1.0  0.26047  0.66039  0.58923  1.0000
  S   S2        1.0  0.73954  0.33959  0.41076  1.0000
  N   N1        1.0  0.74707  0.00503  0.84074  1.0000
  N   N2        1.0  0.25293  0.99497  0.15926  1.0000
  N   N3        1.0  0.93647  0.16696  0.65945  1.0000
  N   N4        1.0  0.06353  0.83304  0.34055  1.0000
  N   N5        1.0  0.24521  0.32413  0.43447  1.0000
  N   N6        1.0  0.75480  0.67586  0.56552  1.0000
  Cl  Cl1       1.0  0.55968  0.86210  0.34643  1.0000
  Cl  Cl2       1.0  0.44031  0.13790  0.65357  1.0000
