data_image0
_chemical_formula_structural       Cu2H30C26N6O10
_chemical_formula_sum              "Cu2 H30 C26 N6 O10"
_cell_length_a       8.00404
_cell_length_b       9.07171
_cell_length_c       10.3632
_cell_angle_alpha    105.029
_cell_angle_beta     89.9998
_cell_angle_gamma    90.0003

_space_group_name_H-M_alt    "P 1"
_space_group_IT_number       1

loop_
  _space_group_symop_operation_xyz
  'x, y, z'

loop_
  _atom_site_type_symbol
  _atom_site_label
  _atom_site_symmetry_multiplicity
  _atom_site_fract_x
  _atom_site_fract_y
  _atom_site_fract_z
  _atom_site_occupancy
  Cu  Cu1       1.0  0.48127  0.38962  0.32982  1.0000
  Cu  Cu2       1.0  0.51873  0.38962  0.82982  1.0000
  H   H1        1.0  0.32219  0.35790  0.05651  1.0000
  H   H2        1.0  0.67781  0.35790  0.55651  1.0000
  H   H3        1.0  0.27004  0.48119  0.19117  1.0000
  H   H4        1.0  0.72996  0.48119  0.69118  1.0000
  H   H5        1.0  0.66764  0.21547  0.01013  1.0000
  H   H6        1.0  0.33236  0.21546  0.51012  1.0000
  H   H7        1.0  0.75381  0.94334  0.98544  1.0000
  H   H8        1.0  0.24619  0.94333  0.48543  1.0000
  H   H9        1.0  0.75579  0.76134  0.75890  1.0000
  H   H10       1.0  0.24421  0.76134  0.25890  1.0000
  H   H11       1.0  0.57189  0.13066  0.60421  1.0000
  H   H12       1.0  0.42811  0.13065  0.10421  1.0000
  H   H13       1.0  0.53086  0.64240  0.57228  1.0000
  H   H14       1.0  0.46914  0.64240  0.07227  1.0000
  H   H15       1.0  0.78112  0.99173  0.42812  1.0000
  H   H16       1.0  0.21888  0.99173  0.92812  1.0000
  H   H17       1.0  0.67455  0.56363  0.17644  1.0000
  H   H18       1.0  0.32545  0.56363  0.67643  1.0000
  H   H19       1.0  0.90867  0.59534  0.48252  1.0000
  H   H20       1.0  0.09133  0.59534  0.98253  1.0000
  H   H21       1.0  0.06536  0.67405  0.60405  1.0000
  H   H22       1.0  0.93463  0.67405  0.10405  1.0000
  H   H23       1.0  0.01133  0.48010  0.57510  1.0000
  H   H24       1.0  0.98866  0.48010  0.07511  1.0000
  H   H25       1.0  0.91285  0.03346  0.18948  1.0000
  H   H26       1.0  0.08715  0.03347  0.68947  1.0000
  H   H27       1.0  0.04775  0.16696  0.29464  1.0000
  H   H28       1.0  0.95225  0.16696  0.79463  1.0000
  H   H29       1.0  0.97255  0.20200  0.14181  1.0000
  H   H30       1.0  0.02746  0.20200  0.64181  1.0000
  C   C1        1.0  0.66467  0.13114  0.91340  1.0000
  C   C2        1.0  0.33533  0.13113  0.41339  1.0000
  C   C3        1.0  0.71389  0.98023  0.89826  1.0000
  C   C4        1.0  0.28610  0.98022  0.39825  1.0000
  C   C5        1.0  0.71342  0.87873  0.77166  1.0000
  C   C6        1.0  0.28659  0.87872  0.27165  1.0000
  C   C7        1.0  0.66409  0.93187  0.66173  1.0000
  C   C8        1.0  0.33591  0.93186  0.16172  1.0000
  C   C9        1.0  0.61393  0.08419  0.68549  1.0000
  C   C10       1.0  0.38607  0.08417  0.18548  1.0000
  C   C11       1.0  0.58975  0.68755  0.49607  1.0000
  C   C12       1.0  0.41025  0.68754  0.99606  1.0000
  C   C13       1.0  0.66208  0.83241  0.52442  1.0000
  C   C14       1.0  0.33793  0.83241  0.02441  1.0000
  C   C15       1.0  0.72909  0.87715  0.41521  1.0000
  C   C16       1.0  0.27091  0.87714  0.91520  1.0000
  C   C17       1.0  0.66774  0.64424  0.27494  1.0000
  C   C18       1.0  0.33227  0.64423  0.77493  1.0000
  C   C19       1.0  0.15953  0.53301  0.41904  1.0000
  C   C20       1.0  0.84047  0.53302  0.91904  1.0000
  C   C21       1.0  0.02702  0.57256  0.52602  1.0000
  C   C22       1.0  0.97297  0.57256  0.02603  1.0000
  C   C23       1.0  0.79082  0.23443  0.30342  1.0000
  C   C24       1.0  0.20918  0.23444  0.80342  1.0000
  C   C25       1.0  0.94117  0.15597  0.22669  1.0000
  C   C26       1.0  0.05883  0.15598  0.72669  1.0000
  N   N1        1.0  0.61318  0.18017  0.80795  1.0000
  N   N2        1.0  0.38682  0.18016  0.30794  1.0000
  N   N3        1.0  0.59237  0.59488  0.37206  1.0000
  N   N4        1.0  0.40763  0.59487  0.87205  1.0000
  N   N5        1.0  0.73261  0.78357  0.29148  1.0000
  N   N6        1.0  0.26740  0.78356  0.79148  1.0000
  O   O1        1.0  0.29424  0.47334  0.45299  1.0000
  O   O2        1.0  0.70575  0.47335  0.95299  1.0000
  O   O3        1.0  0.13440  0.55976  0.30724  1.0000
  O   O4        1.0  0.86560  0.55976  0.80725  1.0000
  O   O5        1.0  0.68865  0.29684  0.23688  1.0000
  O   O6        1.0  0.31135  0.29683  0.73687  1.0000
  O   O7        1.0  0.77139  0.23155  0.42342  1.0000
  O   O8        1.0  0.22860  0.23157  0.92342  1.0000
  O   O9        1.0  0.36865  0.43266  0.13620  1.0000
  O   O10       1.0  0.63136  0.43266  0.63621  1.0000
