data_image0
_chemical_formula_structural       Mn2H28C22S4N22O2
_chemical_formula_sum              "Mn2 H28 C22 S4 N22 O2"
_cell_length_a       7.88027
_cell_length_b       8.30899
_cell_length_c       14.7477
_cell_angle_alpha    85.6144
_cell_angle_beta     76.2957
_cell_angle_gamma    78.4395

_space_group_name_H-M_alt    "P 1"
_space_group_IT_number       1

loop_
  _space_group_symop_operation_xyz
  'x, y, z'

loop_
  _atom_site_type_symbol
  _atom_site_label
  _atom_site_symmetry_multiplicity
  _atom_site_fract_x
  _atom_site_fract_y
  _atom_site_fract_z
  _atom_site_occupancy
  Mn  Mn1       1.0  0.50000  0.50000  0.50000  1.0000
  Mn  Mn2       1.0  1.00000  0.50000  1.00000  1.0000
  H   H1        1.0  0.23051  0.67994  0.41514  1.0000
  H   H2        1.0  0.76948  0.32006  0.58486  1.0000
  H   H3        1.0  0.42018  0.67580  0.34279  1.0000
  H   H4        1.0  0.57982  0.32419  0.65721  1.0000
  H   H5        1.0  0.06960  0.48543  0.62129  1.0000
  H   H6        1.0  0.93040  0.51457  0.37871  1.0000
  H   H7        1.0  0.39758  0.13609  0.43173  1.0000
  H   H8        1.0  0.60242  0.86391  0.56827  1.0000
  H   H9        1.0  0.17379  0.96440  0.42454  1.0000
  H   H10       1.0  0.82620  0.03560  0.57546  1.0000
  H   H11       1.0  0.97731  0.10706  0.41177  1.0000
  H   H12       1.0  0.02268  0.89294  0.58823  1.0000
  H   H13       1.0  0.20082  0.83813  0.91002  1.0000
  H   H14       1.0  0.79918  0.16187  0.08998  1.0000
  H   H15       1.0  0.06476  0.67263  0.19003  1.0000
  H   H16       1.0  0.93524  0.32736  0.80997  1.0000
  H   H17       1.0  0.70240  0.44047  0.21696  1.0000
  H   H18       1.0  0.29760  0.55953  0.78304  1.0000
  H   H19       1.0  0.68771  0.83894  0.02230  1.0000
  H   H20       1.0  0.31229  0.16106  0.97770  1.0000
  H   H21       1.0  0.19326  0.86446  0.26280  1.0000
  H   H22       1.0  0.80674  0.13554  0.73720  1.0000
  H   H23       1.0  0.14204  0.06537  0.21339  1.0000
  H   H24       1.0  0.85796  0.93463  0.78661  1.0000
  H   H25       1.0  0.45514  0.04368  0.12172  1.0000
  H   H26       1.0  0.54486  0.95632  0.87828  1.0000
  H   H27       1.0  0.44757  0.01571  0.24273  1.0000
  H   H28       1.0  0.55243  0.98429  0.75727  1.0000
  C   C1        1.0  0.11717  0.38138  0.57558  1.0000
  C   C2        1.0  0.88283  0.61862  0.42442  1.0000
  C   C3        1.0  0.28590  0.20645  0.47978  1.0000
  C   C4        1.0  0.71410  0.79355  0.52022  1.0000
  C   C5        1.0  0.05579  0.04769  0.46180  1.0000
  C   C6        1.0  0.94421  0.95232  0.53820  1.0000
  C   C7        1.0  0.30372  0.77543  0.65418  1.0000
  C   C8        1.0  0.69628  0.22460  0.34583  1.0000
  C   C9        1.0  0.18475  0.82666  0.98544  1.0000
  C   C10       1.0  0.81525  0.17334  0.01456  1.0000
  C   C11       1.0  0.11161  0.74082  0.12639  1.0000
  C   C12       1.0  0.88839  0.25918  0.87361  1.0000
  C   C13       1.0  0.66624  0.55922  0.18375  1.0000
  C   C14       1.0  0.33376  0.44078  0.81625  1.0000
  C   C15       1.0  0.65969  0.75796  0.08329  1.0000
  C   C16       1.0  0.34031  0.24204  0.91671  1.0000
  C   C17       1.0  0.22827  0.94432  0.20125  1.0000
  C   C18       1.0  0.77173  0.05568  0.79875  1.0000
  C   C19       1.0  0.42197  0.96216  0.18263  1.0000
  C   C20       1.0  0.57804  0.03784  0.81737  1.0000
  C   C21       1.0  0.14634  0.35881  0.17944  1.0000
  C   C22       1.0  0.85365  0.64119  0.82056  1.0000
  S   S1        1.0  0.25010  0.94733  0.70833  1.0000
  S   S2        1.0  0.74990  0.05268  0.29167  1.0000
  S   S3        1.0  0.24137  0.36586  0.26472  1.0000
  S   S4        1.0  0.75864  0.63414  0.73528  1.0000
  N   N1        1.0  0.12108  0.17199  0.50141  1.0000
  N   N2        1.0  0.87892  0.82801  0.49859  1.0000
  N   N3        1.0  0.01106  0.28343  0.56266  1.0000
  N   N4        1.0  0.98893  0.71657  0.43734  1.0000
  N   N5        1.0  0.28762  0.33910  0.52526  1.0000
  N   N6        1.0  0.71237  0.66091  0.47474  1.0000
  N   N7        1.0  0.34419  0.64938  0.61404  1.0000
  N   N8        1.0  0.65582  0.35062  0.38595  1.0000
  N   N9        1.0  0.19188  0.86975  0.12353  1.0000
  N   N10       1.0  0.80812  0.13025  0.87647  1.0000
  N   N11       1.0  0.24060  0.92619  0.03379  1.0000
  N   N12       1.0  0.75940  0.07381  0.96621  1.0000
  N   N13       1.0  0.10481  0.71028  0.03985  1.0000
  N   N14       1.0  0.89520  0.28972  0.96015  1.0000
  N   N15       1.0  0.54212  0.80524  0.16300  1.0000
  N   N16       1.0  0.45789  0.19476  0.83700  1.0000
  N   N17       1.0  0.54397  0.67932  0.22780  1.0000
  N   N18       1.0  0.45603  0.32068  0.77220  1.0000
  N   N19       1.0  0.74115  0.60281  0.09447  1.0000
  N   N20       1.0  0.25885  0.39719  0.90553  1.0000
  N   N21       1.0  0.07692  0.35525  0.11607  1.0000
  N   N22       1.0  0.92308  0.64474  0.88393  1.0000
  O   O1        1.0  0.35862  0.67882  0.41036  1.0000
  O   O2        1.0  0.64137  0.32118  0.58964  1.0000
