data_image0
_chemical_formula_structural       V2Ag2H6C14N2O12
_chemical_formula_sum              "V2 Ag2 H6 C14 N2 O12"
_cell_length_a       6.5564
_cell_length_b       8.33947
_cell_length_c       9.34612
_cell_angle_alpha    90.0002
_cell_angle_beta     89.9994
_cell_angle_gamma    113.171

_space_group_name_H-M_alt    "P 1"
_space_group_IT_number       1

loop_
  _space_group_symop_operation_xyz
  'x, y, z'

loop_
  _atom_site_type_symbol
  _atom_site_label
  _atom_site_symmetry_multiplicity
  _atom_site_fract_x
  _atom_site_fract_y
  _atom_site_fract_z
  _atom_site_occupancy
  V   V1        1.0  0.98178  0.96344  0.75010  1.0000
  V   V2        1.0  0.01822  0.03656  0.25010  1.0000
  Ag  Ag1       1.0  0.65880  0.00056  0.50008  1.0000
  Ag  Ag2       1.0  0.34120  0.99943  0.00009  1.0000
  H   H1        1.0  0.57403  0.57448  0.63534  1.0000
  H   H2        1.0  0.42598  0.42553  0.13534  1.0000
  H   H3        1.0  0.99922  0.57392  0.86445  1.0000
  H   H4        1.0  0.00078  0.42608  0.36445  1.0000
  H   H5        1.0  0.36799  0.73739  0.74975  1.0000
  H   H6        1.0  0.63200  0.26261  0.24975  1.0000
  C   C1        1.0  0.31745  0.32368  0.68930  1.0000
  C   C2        1.0  0.68256  0.67633  0.18930  1.0000
  C   C3        1.0  0.00569  0.32341  0.81069  1.0000
  C   C4        1.0  0.99431  0.67659  0.31069  1.0000
  C   C5        1.0  0.41317  0.50502  0.68555  1.0000
  C   C6        1.0  0.58683  0.49498  0.18554  1.0000
  C   C7        1.0  0.09079  0.50472  0.81420  1.0000
  C   C8        1.0  0.90921  0.49528  0.31420  1.0000
  C   C9        1.0  0.29706  0.59529  0.74982  1.0000
  C   C10       1.0  0.70293  0.40471  0.24982  1.0000
  C   C11       1.0  0.40946  0.19764  0.63500  1.0000
  C   C12       1.0  0.59054  0.80237  0.13500  1.0000
  C   C13       1.0  0.78782  0.19715  0.86521  1.0000
  C   C14       1.0  0.21218  0.80285  0.36521  1.0000
  N   N1        1.0  0.11924  0.23868  0.75005  1.0000
  N   N2        1.0  0.88076  0.76132  0.25005  1.0000
  O   O1        1.0  0.83063  0.84069  0.61964  1.0000
  O   O2        1.0  0.16938  0.15931  0.11964  1.0000
  O   O3        1.0  0.00973  0.84012  0.88022  1.0000
  O   O4        1.0  0.99027  0.15988  0.38023  1.0000
  O   O5        1.0  0.28094  0.03491  0.66133  1.0000
  O   O6        1.0  0.71906  0.96510  0.16133  1.0000
  O   O7        1.0  0.75389  0.03449  0.83899  1.0000
  O   O8        1.0  0.24611  0.96551  0.33899  1.0000
  O   O9        1.0  0.59229  0.24475  0.57396  1.0000
  O   O10       1.0  0.40771  0.75525  0.07397  1.0000
  O   O11       1.0  0.65200  0.24408  0.92630  1.0000
  O   O12       1.0  0.34799  0.75592  0.42631  1.0000
