data_image0
_chemical_formula_structural       CuH20C20N8O4
_chemical_formula_sum              "Cu1 H20 C20 N8 O4"
_cell_length_a       8.0189
_cell_length_b       8.43481
_cell_length_c       8.81387
_cell_angle_alpha    77.1947
_cell_angle_beta     68.2692
_cell_angle_gamma    76.5305

_space_group_name_H-M_alt    "P 1"
_space_group_IT_number       1

loop_
  _space_group_symop_operation_xyz
  'x, y, z'

loop_
  _atom_site_type_symbol
  _atom_site_label
  _atom_site_symmetry_multiplicity
  _atom_site_fract_x
  _atom_site_fract_y
  _atom_site_fract_z
  _atom_site_occupancy
  Cu  Cu1       1.0  0.50000  0.50000  0.50000  1.0000
  H   H1        1.0  0.96850  0.34470  0.79592  1.0000
  H   H2        1.0  0.03150  0.65530  0.20408  1.0000
  H   H3        1.0  0.95752  0.11832  0.12296  1.0000
  H   H4        1.0  0.04249  0.88168  0.87704  1.0000
  H   H5        1.0  0.55992  0.74273  0.71452  1.0000
  H   H6        1.0  0.44008  0.25727  0.28548  1.0000
  H   H7        1.0  0.81239  0.63200  0.87609  1.0000
  H   H8        1.0  0.18761  0.36800  0.12391  1.0000
  H   H9        1.0  0.85505  0.28053  0.58301  1.0000
  H   H10       1.0  0.14495  0.71948  0.41699  1.0000
  H   H11       1.0  0.81338  0.40863  0.17849  1.0000
  H   H12       1.0  0.18663  0.59137  0.82151  1.0000
  H   H13       1.0  0.82554  0.90264  0.38272  1.0000
  H   H14       1.0  0.17447  0.09736  0.61728  1.0000
  H   H15       1.0  0.56971  0.09636  0.61122  1.0000
  H   H16       1.0  0.43029  0.90364  0.38877  1.0000
  H   H17       1.0  0.45081  0.71678  0.13849  1.0000
  H   H18       1.0  0.54919  0.28321  0.86152  1.0000
  H   H19       1.0  0.78485  0.09369  0.96893  1.0000
  H   H20       1.0  0.21515  0.90631  0.03108  1.0000
  C   C1        1.0  0.65874  0.63041  0.70966  1.0000
  C   C2        1.0  0.34126  0.36959  0.29034  1.0000
  C   C3        1.0  0.78363  0.57692  0.79063  1.0000
  C   C4        1.0  0.21637  0.42308  0.20936  1.0000
  C   C5        1.0  0.80842  0.39245  0.63809  1.0000
  C   C6        1.0  0.19157  0.60756  0.36191  1.0000
  C   C7        1.0  0.78278  0.29747  0.26499  1.0000
  C   C8        1.0  0.21723  0.70253  0.73502  1.0000
  C   C9        1.0  0.78671  0.03513  0.37597  1.0000
  C   C10       1.0  0.21330  0.96487  0.62403  1.0000
  C   C11       1.0  0.65933  0.13186  0.48741  1.0000
  C   C12       1.0  0.34068  0.86813  0.51258  1.0000
  C   C13       1.0  0.76428  0.77764  0.13508  1.0000
  C   C14       1.0  0.23571  0.22235  0.86492  1.0000
  C   C15       1.0  0.63061  0.89345  0.06176  1.0000
  C   C16       1.0  0.36938  0.10655  0.93825  1.0000
  C   C17       1.0  0.47021  0.84153  0.07785  1.0000
  C   C18       1.0  0.52978  0.15847  0.92216  1.0000
  C   C19       1.0  0.66021  0.05294  0.98222  1.0000
  C   C20       1.0  0.33978  0.94706  0.01778  1.0000
  N   N1        1.0  0.67460  0.51334  0.61503  1.0000
  N   N2        1.0  0.32539  0.48666  0.38497  1.0000
  N   N3        1.0  0.87645  0.42685  0.74382  1.0000
  N   N4        1.0  0.12355  0.57315  0.25618  1.0000
  N   N5        1.0  0.65866  0.29548  0.41609  1.0000
  N   N6        1.0  0.34134  0.70452  0.58390  1.0000
  N   N7        1.0  0.86244  0.14225  0.23712  1.0000
  N   N8        1.0  0.13757  0.85775  0.76288  1.0000
  O   O1        1.0  0.71096  0.65606  0.24029  1.0000
  O   O2        1.0  0.28904  0.34393  0.75972  1.0000
  O   O3        1.0  0.92765  0.80935  0.08649  1.0000
  O   O4        1.0  0.07235  0.19065  0.91351  1.0000
