data_image0
_chemical_formula_structural       Tl4H36C48N8Cl8O16
_chemical_formula_sum              "Tl4 H36 C48 N8 Cl8 O16"
_cell_length_a       7.92119
_cell_length_b       12.8288
_cell_length_c       14.6587
_cell_angle_alpha    92.9811
_cell_angle_beta     89.9998
_cell_angle_gamma    90.0001

_space_group_name_H-M_alt    "P 1"
_space_group_IT_number       1

loop_
  _space_group_symop_operation_xyz
  'x, y, z'

loop_
  _atom_site_type_symbol
  _atom_site_label
  _atom_site_symmetry_multiplicity
  _atom_site_fract_x
  _atom_site_fract_y
  _atom_site_fract_z
  _atom_site_occupancy
  Tl  Tl1       1.0  0.93767  0.51919  0.78659  1.0000
  Tl  Tl2       1.0  0.56233  0.01919  0.28659  1.0000
  Tl  Tl3       1.0  0.06233  0.48081  0.21341  1.0000
  Tl  Tl4       1.0  0.43767  0.98081  0.71341  1.0000
  H   H1        1.0  0.87821  0.42867  0.43530  1.0000
  H   H2        1.0  0.62179  0.92867  0.93530  1.0000
  H   H3        1.0  0.12179  0.57133  0.56470  1.0000
  H   H4        1.0  0.37821  0.07133  0.06470  1.0000
  H   H5        1.0  0.69659  0.38721  0.31228  1.0000
  H   H6        1.0  0.80341  0.88721  0.81227  1.0000
  H   H7        1.0  0.30341  0.61279  0.68773  1.0000
  H   H8        1.0  0.19659  0.11279  0.18773  1.0000
  H   H9        1.0  0.41861  0.32734  0.32446  1.0000
  H   H10       1.0  0.08139  0.82735  0.82446  1.0000
  H   H11       1.0  0.58139  0.67265  0.67554  1.0000
  H   H12       1.0  0.91861  0.17265  0.17554  1.0000
  H   H13       1.0  0.28683  0.31894  0.47954  1.0000
  H   H14       1.0  0.21316  0.81894  0.97954  1.0000
  H   H15       1.0  0.71316  0.68106  0.52046  1.0000
  H   H16       1.0  0.78684  0.18106  0.02046  1.0000
  H   H17       1.0  0.46490  0.36986  0.61817  1.0000
  H   H18       1.0  0.03510  0.86986  0.11816  1.0000
  H   H19       1.0  0.53510  0.63014  0.38184  1.0000
  H   H20       1.0  0.96490  0.13014  0.88184  1.0000
  H   H21       1.0  0.54551  0.53098  0.79107  1.0000
  H   H22       1.0  0.95449  0.03098  0.29107  1.0000
  H   H23       1.0  0.45449  0.46902  0.20893  1.0000
  H   H24       1.0  0.04551  0.96902  0.70893  1.0000
  H   H25       1.0  0.87493  0.62473  0.99955  1.0000
  H   H26       1.0  0.62507  0.12473  0.49955  1.0000
  H   H27       1.0  0.12507  0.37527  0.00045  1.0000
  H   H28       1.0  0.37493  0.87527  0.50045  1.0000
  H   H29       1.0  0.63646  0.68411  0.10121  1.0000
  H   H30       1.0  0.86354  0.18411  0.60121  1.0000
  H   H31       1.0  0.36354  0.31589  0.89879  1.0000
  H   H32       1.0  0.13647  0.81589  0.39879  1.0000
  H   H33       1.0  0.33684  0.66328  0.04276  1.0000
  H   H34       1.0  0.16316  0.16328  0.54276  1.0000
  H   H35       1.0  0.66316  0.33672  0.95724  1.0000
  H   H36       1.0  0.83685  0.83671  0.45724  1.0000
  C   C1        1.0  0.79206  0.43538  0.61839  1.0000
  C   C2        1.0  0.70794  0.93538  0.11839  1.0000
  C   C3        1.0  0.20794  0.56462  0.38161  1.0000
  C   C4        1.0  0.29206  0.06463  0.88161  1.0000
  C   C5        1.0  0.68486  0.40059  0.53778  1.0000
  C   C6        1.0  0.81513  0.90059  0.03778  1.0000
  C   C7        1.0  0.31513  0.59941  0.46222  1.0000
  C   C8        1.0  0.18487  0.09942  0.96222  1.0000
  C   C9        1.0  0.75003  0.40347  0.44991  1.0000
  C   C10       1.0  0.74997  0.90347  0.94990  1.0000
  C   C11       1.0  0.24997  0.59653  0.55009  1.0000
  C   C12       1.0  0.25003  0.09653  0.05009  1.0000
  C   C13       1.0  0.48796  0.34715  0.38691  1.0000
  C   C14       1.0  0.01203  0.84716  0.88690  1.0000
  C   C15       1.0  0.51204  0.65285  0.61309  1.0000
  C   C16       1.0  0.98797  0.15285  0.11309  1.0000
  C   C17       1.0  0.41803  0.34247  0.47318  1.0000
  C   C18       1.0  0.08197  0.84247  0.97318  1.0000
  C   C19       1.0  0.58197  0.65752  0.52682  1.0000
  C   C20       1.0  0.91803  0.15753  0.02682  1.0000
  C   C21       1.0  0.51647  0.37038  0.54932  1.0000
  C   C22       1.0  0.98353  0.87038  0.04931  1.0000
  C   C23       1.0  0.48353  0.62962  0.45068  1.0000
  C   C24       1.0  0.01647  0.12962  0.95068  1.0000
  C   C25       1.0  0.24887  0.58071  0.87017  1.0000
  C   C26       1.0  0.25113  0.08071  0.37017  1.0000
  C   C27       1.0  0.75113  0.41929  0.12983  1.0000
  C   C28       1.0  0.74887  0.91929  0.62983  1.0000
  C   C29       1.0  0.41999  0.59832  0.91118  1.0000
  C   C30       1.0  0.08001  0.09832  0.41119  1.0000
  C   C31       1.0  0.58001  0.40168  0.08882  1.0000
  C   C32       1.0  0.91999  0.90168  0.58882  1.0000
  C   C33       1.0  0.56048  0.56719  0.85934  1.0000
  C   C34       1.0  0.93952  0.06719  0.35934  1.0000
  C   C35       1.0  0.43952  0.43281  0.14066  1.0000
  C   C36       1.0  0.06048  0.93281  0.64066  1.0000
  C   C37       1.0  0.74438  0.61933  0.97627  1.0000
  C   C38       1.0  0.75562  0.11933  0.47627  1.0000
  C   C39       1.0  0.25562  0.38067  0.02373  1.0000
  C   C40       1.0  0.24439  0.88067  0.52373  1.0000
  C   C41       1.0  0.61013  0.65203  0.03234  1.0000
  C   C42       1.0  0.88988  0.15203  0.53234  1.0000
  C   C43       1.0  0.38987  0.34797  0.96766  1.0000
  C   C44       1.0  0.11013  0.84796  0.46766  1.0000
  C   C45       1.0  0.44511  0.64101  0.99995  1.0000
  C   C46       1.0  0.05489  0.14101  0.49996  1.0000
  C   C47       1.0  0.55489  0.35899  0.00005  1.0000
  C   C48       1.0  0.94511  0.85898  0.50004  1.0000
  N   N1        1.0  0.64983  0.37769  0.37802  1.0000
  N   N2        1.0  0.85016  0.87769  0.87802  1.0000
  N   N3        1.0  0.35016  0.62231  0.62198  1.0000
  N   N4        1.0  0.14984  0.12231  0.12198  1.0000
  N   N5        1.0  0.71815  0.57738  0.89132  1.0000
  N   N6        1.0  0.78185  0.07738  0.39132  1.0000
  N   N7        1.0  0.28185  0.42262  0.10868  1.0000
  N   N8        1.0  0.21815  0.92262  0.60869  1.0000
  Cl  Cl1       1.0  0.97862  0.33870  0.83412  1.0000
  Cl  Cl2       1.0  0.52138  0.83870  0.33412  1.0000
  Cl  Cl3       1.0  0.02138  0.66131  0.16588  1.0000
  Cl  Cl4       1.0  0.47862  0.16131  0.66588  1.0000
  Cl  Cl5       1.0  0.92272  0.68792  0.70448  1.0000
  Cl  Cl6       1.0  0.57728  0.18792  0.20448  1.0000
  Cl  Cl7       1.0  0.07728  0.31208  0.29552  1.0000
  Cl  Cl8       1.0  0.42272  0.81207  0.79552  1.0000
  O   O1        1.0  0.94975  0.44114  0.61010  1.0000
  O   O2        1.0  0.55024  0.94114  0.11009  1.0000
  O   O3        1.0  0.05024  0.55887  0.38990  1.0000
  O   O4        1.0  0.44976  0.05886  0.88990  1.0000
  O   O5        1.0  0.70909  0.45963  0.69168  1.0000
  O   O6        1.0  0.79090  0.95963  0.19168  1.0000
  O   O7        1.0  0.29090  0.54037  0.30832  1.0000
  O   O8        1.0  0.20910  0.04038  0.80832  1.0000
  O   O9        1.0  0.11936  0.59428  0.91931  1.0000
  O   O10       1.0  0.38064  0.09428  0.41931  1.0000
  O   O11       1.0  0.88064  0.40572  0.08070  1.0000
  O   O12       1.0  0.61936  0.90572  0.58069  1.0000
  O   O13       1.0  0.24168  0.54839  0.78535  1.0000
  O   O14       1.0  0.25832  0.04839  0.28535  1.0000
  O   O15       1.0  0.75832  0.45161  0.21465  1.0000
  O   O16       1.0  0.74168  0.95161  0.71465  1.0000
