data_image0
_chemical_formula_structural       Cd2H44C52N4O12
_chemical_formula_sum              "Cd2 H44 C52 N4 O12"
_cell_length_a       9.04912
_cell_length_b       10.1613
_cell_length_c       14.7457
_cell_angle_alpha    73.2441
_cell_angle_beta     82.8296
_cell_angle_gamma    63.663

_space_group_name_H-M_alt    "P 1"
_space_group_IT_number       1

loop_
  _space_group_symop_operation_xyz
  'x, y, z'

loop_
  _atom_site_type_symbol
  _atom_site_label
  _atom_site_symmetry_multiplicity
  _atom_site_fract_x
  _atom_site_fract_y
  _atom_site_fract_z
  _atom_site_occupancy
  Cd  Cd1       1.0  0.24990  0.22689  0.55065  1.0000
  Cd  Cd2       1.0  0.75010  0.77311  0.44935  1.0000
  H   H1        1.0  0.37761  0.43274  0.38535  1.0000
  H   H2        1.0  0.62239  0.56726  0.61465  1.0000
  H   H3        1.0  0.38802  0.52235  0.21282  1.0000
  H   H4        1.0  0.61198  0.47765  0.78718  1.0000
  H   H5        1.0  0.12005  0.26722  0.19410  1.0000
  H   H6        1.0  0.87995  0.73278  0.80590  1.0000
  H   H7        1.0  0.12996  0.17987  0.36816  1.0000
  H   H8        1.0  0.87004  0.82013  0.63184  1.0000
  H   H9        1.0  0.30945  0.64741  0.07825  1.0000
  H   H10       1.0  0.69055  0.35260  0.92175  1.0000
  H   H11       1.0  0.30960  0.73815  0.90493  1.0000
  H   H12       1.0  0.69040  0.26185  0.09507  1.0000
  H   H13       1.0  0.24990  0.60868  0.80377  1.0000
  H   H14       1.0  0.75010  0.39132  0.19622  1.0000
  H   H15       1.0  0.19094  0.38432  0.88057  1.0000
  H   H16       1.0  0.80906  0.61568  0.11943  1.0000
  H   H17       1.0  0.19322  0.28945  0.05395  1.0000
  H   H18       1.0  0.80678  0.71055  0.94605  1.0000
  H   H19       1.0  0.02965  0.32624  0.72951  1.0000
  H   H20       1.0  0.97035  0.67376  0.27049  1.0000
  H   H21       1.0  0.02199  0.24767  0.90500  1.0000
  H   H22       1.0  0.97801  0.75233  0.09500  1.0000
  H   H23       1.0  0.48161  0.85397  0.89513  1.0000
  H   H24       1.0  0.51839  0.14603  0.10487  1.0000
  H   H25       1.0  0.47180  0.95350  0.72047  1.0000
  H   H26       1.0  0.52821  0.04649  0.27953  1.0000
  H   H27       1.0  0.99084  0.12800  0.03665  1.0000
  H   H28       1.0  0.00916  0.87201  0.96335  1.0000
  H   H29       1.0  0.99179  0.03915  0.21152  1.0000
  H   H30       1.0  0.00820  0.96086  0.78848  1.0000
  H   H31       1.0  0.24838  0.84509  0.29762  1.0000
  H   H32       1.0  0.75161  0.15492  0.70238  1.0000
  H   H33       1.0  0.50743  0.74207  0.20901  1.0000
  H   H34       1.0  0.49256  0.25794  0.79099  1.0000
  H   H35       1.0  0.51152  0.83435  0.03451  1.0000
  H   H36       1.0  0.48848  0.16565  0.96550  1.0000
  H   H37       1.0  0.53331  0.22258  0.59154  1.0000
  H   H38       1.0  0.46669  0.77741  0.40846  1.0000
  H   H39       1.0  0.60791  0.09653  0.52969  1.0000
  H   H40       1.0  0.39209  0.90346  0.47031  1.0000
  H   H41       1.0  0.89516  0.38326  0.52429  1.0000
  H   H42       1.0  0.10484  0.61674  0.47571  1.0000
  H   H43       1.0  0.96331  0.20595  0.58626  1.0000
  H   H44       1.0  0.03668  0.79405  0.41374  1.0000
  C   C1        1.0  0.32316  0.39669  0.34080  1.0000
  C   C2        1.0  0.67684  0.60331  0.65920  1.0000
  C   C3        1.0  0.32689  0.44829  0.24281  1.0000
  C   C4        1.0  0.67311  0.55171  0.75719  1.0000
  C   C5        1.0  0.25325  0.40479  0.18523  1.0000
  C   C6        1.0  0.74675  0.59521  0.81477  1.0000
  C   C7        1.0  0.18068  0.30644  0.23263  1.0000
  C   C8        1.0  0.81932  0.69357  0.76737  1.0000
  C   C9        1.0  0.18413  0.25761  0.33103  1.0000
  C   C10       1.0  0.81587  0.74239  0.66897  1.0000
  C   C11       1.0  0.25208  0.46028  0.08056  1.0000
  C   C12       1.0  0.74792  0.53972  0.91944  1.0000
  C   C13       1.0  0.28461  0.58733  0.03601  1.0000
  C   C14       1.0  0.71538  0.41267  0.96399  1.0000
  C   C15       1.0  0.28413  0.63970  0.93762  1.0000
  C   C16       1.0  0.71587  0.36030  0.06238  1.0000
  C   C17       1.0  0.25036  0.56751  0.88084  1.0000
  C   C18       1.0  0.74964  0.43249  0.11916  1.0000
  C   C19       1.0  0.21708  0.44196  0.92396  1.0000
  C   C20       1.0  0.78292  0.55804  0.07603  1.0000
  C   C21       1.0  0.21815  0.38866  0.02241  1.0000
  C   C22       1.0  0.78186  0.61134  0.97759  1.0000
  C   C23       1.0  0.12816  0.22307  0.76963  1.0000
  C   C24       1.0  0.87184  0.77692  0.23037  1.0000
  C   C25       1.0  0.12441  0.17697  0.86780  1.0000
  C   C26       1.0  0.87559  0.82303  0.13220  1.0000
  C   C27       1.0  0.25160  0.04174  0.91757  1.0000
  C   C28       1.0  0.74839  0.95826  0.08244  1.0000
  C   C29       1.0  0.37840  0.95997  0.86243  1.0000
  C   C30       1.0  0.62161  0.04002  0.13757  1.0000
  C   C31       1.0  0.37359  0.01373  0.76447  1.0000
  C   C32       1.0  0.62641  0.98626  0.23554  1.0000
  C   C33       1.0  0.25134  0.98836  0.02178  1.0000
  C   C34       1.0  0.74866  0.01164  0.97822  1.0000
  C   C35       1.0  0.10567  0.04521  0.07350  1.0000
  C   C36       1.0  0.89433  0.95479  0.92650  1.0000
  C   C37       1.0  0.10496  0.99465  0.17185  1.0000
  C   C38       1.0  0.89504  0.00536  0.82815  1.0000
  C   C39       1.0  0.24941  0.88488  0.22081  1.0000
  C   C40       1.0  0.75059  0.11513  0.77920  1.0000
  C   C41       1.0  0.39487  0.82706  0.17046  1.0000
  C   C42       1.0  0.60512  0.17295  0.82954  1.0000
  C   C43       1.0  0.39606  0.87880  0.07213  1.0000
  C   C44       1.0  0.60394  0.12120  0.92787  1.0000
  C   C45       1.0  0.33558  0.48746  0.59184  1.0000
  C   C46       1.0  0.66443  0.51254  0.40816  1.0000
  C   C47       1.0  0.27482  0.64313  0.59824  1.0000
  C   C48       1.0  0.72519  0.35688  0.40175  1.0000
  C   C49       1.0  0.21915  0.77746  0.59570  1.0000
  C   C50       1.0  0.78085  0.22254  0.40429  1.0000
  C   C51       1.0  0.15831  0.93983  0.58491  1.0000
  C   C52       1.0  0.84168  0.06017  0.41509  1.0000
  N   N1        1.0  0.25332  0.30247  0.38497  1.0000
  N   N2        1.0  0.74668  0.69753  0.61503  1.0000
  N   N3        1.0  0.25061  0.14323  0.71826  1.0000
  N   N4        1.0  0.74939  0.85676  0.28174  1.0000
  O   O1        1.0  0.52841  0.13245  0.58032  1.0000
  O   O2        1.0  0.47159  0.86754  0.41968  1.0000
  O   O3        1.0  0.96957  0.30448  0.57723  1.0000
  O   O4        1.0  0.03043  0.69551  0.42277  1.0000
  O   O5        1.0  0.23270  0.46393  0.55324  1.0000
  O   O6        1.0  0.76731  0.53606  0.44676  1.0000
  O   O7        1.0  0.47798  0.39269  0.62184  1.0000
  O   O8        1.0  0.52203  0.60731  0.37816  1.0000
  O   O9        1.0  0.26001  0.99502  0.54336  1.0000
  O   O10       1.0  0.73999  0.00498  0.45663  1.0000
  O   O11       1.0  0.01697  0.01102  0.61492  1.0000
  O   O12       1.0  0.98303  0.98898  0.38507  1.0000
