data_image0
_chemical_formula_structural       Zn2H44C52N4O12
_chemical_formula_sum              "Zn2 H44 C52 N4 O12"
_cell_length_a       9.07574
_cell_length_b       9.95174
_cell_length_c       14.7396
_cell_angle_alpha    70.1971
_cell_angle_beta     81.3931
_cell_angle_gamma    63.7745

_space_group_name_H-M_alt    "P 1"
_space_group_IT_number       1

loop_
  _space_group_symop_operation_xyz
  'x, y, z'

loop_
  _atom_site_type_symbol
  _atom_site_label
  _atom_site_symmetry_multiplicity
  _atom_site_fract_x
  _atom_site_fract_y
  _atom_site_fract_z
  _atom_site_occupancy
  Zn  Zn1       1.0  0.74995  0.22357  0.55242  1.0000
  Zn  Zn2       1.0  0.25005  0.77643  0.44758  1.0000
  H   H1        1.0  0.88339  0.42915  0.39008  1.0000
  H   H2        1.0  0.61703  0.18006  0.39017  1.0000
  H   H3        1.0  0.11661  0.57086  0.60992  1.0000
  H   H4        1.0  0.38297  0.81995  0.60983  1.0000
  H   H5        1.0  0.47781  0.20268  0.57998  1.0000
  H   H6        1.0  0.02205  0.21674  0.58001  1.0000
  H   H7        1.0  0.52219  0.79732  0.42002  1.0000
  H   H8        1.0  0.97795  0.78326  0.41999  1.0000
  H   H9        1.0  0.89315  0.51959  0.21319  1.0000
  H   H10       1.0  0.60707  0.26714  0.21332  1.0000
  H   H11       1.0  0.10685  0.48041  0.78681  1.0000
  H   H12       1.0  0.39292  0.73286  0.78668  1.0000
  H   H13       1.0  0.68825  0.27688  0.07345  1.0000
  H   H14       1.0  0.81184  0.64995  0.07306  1.0000
  H   H15       1.0  0.31175  0.72312  0.92655  1.0000
  H   H16       1.0  0.18816  0.35005  0.92694  1.0000
  H   H17       1.0  0.68741  0.36746  0.89628  1.0000
  H   H18       1.0  0.81316  0.73621  0.89589  1.0000
  H   H19       1.0  0.31259  0.63254  0.10372  1.0000
  H   H20       1.0  0.18684  0.26379  0.10411  1.0000
  H   H21       1.0  0.75056  0.59703  0.80532  1.0000
  H   H22       1.0  0.24944  0.40297  0.19468  1.0000
  H   H23       1.0  0.52832  0.33310  0.71419  1.0000
  H   H24       1.0  0.97143  0.95306  0.71425  1.0000
  H   H25       1.0  0.47167  0.66691  0.28581  1.0000
  H   H26       1.0  0.02857  0.04694  0.28575  1.0000
  H   H27       1.0  0.51743  0.25287  0.89290  1.0000
  H   H28       1.0  0.98273  0.85438  0.89296  1.0000
  H   H29       1.0  0.48256  0.74714  0.10710  1.0000
  H   H30       1.0  0.01726  0.14563  0.10704  1.0000
  H   H31       1.0  0.49004  0.13169  0.03155  1.0000
  H   H32       1.0  0.01004  0.83679  0.03151  1.0000
  H   H33       1.0  0.50996  0.86831  0.96845  1.0000
  H   H34       1.0  0.98996  0.16320  0.96849  1.0000
  H   H35       1.0  0.49255  0.04396  0.20980  1.0000
  H   H36       1.0  0.00782  0.74593  0.20976  1.0000
  H   H37       1.0  0.50746  0.95604  0.79020  1.0000
  H   H38       1.0  0.99219  0.25407  0.79024  1.0000
  H   H39       1.0  0.75025  0.85012  0.29928  1.0000
  H   H40       1.0  0.24976  0.14988  0.70072  1.0000
  H   H41       1.0  0.41524  0.38826  0.51491  1.0000
  H   H42       1.0  0.08451  0.09679  0.51473  1.0000
  H   H43       1.0  0.58476  0.61174  0.48509  1.0000
  H   H44       1.0  0.91549  0.90321  0.48527  1.0000
  C   C1        1.0  0.82468  0.39414  0.34848  1.0000
  C   C2        1.0  0.67574  0.25677  0.34856  1.0000
  C   C3        1.0  0.17533  0.60586  0.65152  1.0000
  C   C4        1.0  0.32426  0.74323  0.65145  1.0000
  C   C5        1.0  0.82832  0.44587  0.24833  1.0000
  C   C6        1.0  0.67201  0.30556  0.24840  1.0000
  C   C7        1.0  0.17168  0.55413  0.75167  1.0000
  C   C8        1.0  0.32799  0.69444  0.75160  1.0000
  C   C9        1.0  0.75011  0.40261  0.19477  1.0000
  C   C10       1.0  0.24988  0.59739  0.80523  1.0000
  C   C11       1.0  0.75013  0.45604  0.08794  1.0000
  C   C12       1.0  0.24986  0.54396  0.91206  1.0000
  C   C13       1.0  0.71470  0.37876  0.03569  1.0000
  C   C14       1.0  0.78564  0.58562  0.03546  1.0000
  C   C15       1.0  0.28530  0.62124  0.96431  1.0000
  C   C16       1.0  0.21436  0.41439  0.96454  1.0000
  C   C17       1.0  0.71476  0.42931  0.93515  1.0000
  C   C18       1.0  0.78588  0.63539  0.93492  1.0000
  C   C19       1.0  0.28524  0.57069  0.06486  1.0000
  C   C20       1.0  0.21412  0.36461  0.06508  1.0000
  C   C21       1.0  0.75050  0.55771  0.88404  1.0000
  C   C22       1.0  0.24950  0.44229  0.11596  1.0000
  C   C23       1.0  0.62650  0.22823  0.75737  1.0000
  C   C24       1.0  0.87336  0.01477  0.75742  1.0000
  C   C25       1.0  0.37349  0.77178  0.24263  1.0000
  C   C26       1.0  0.12664  0.98523  0.24258  1.0000
  C   C27       1.0  0.62171  0.18133  0.85739  1.0000
  C   C28       1.0  0.87836  0.96152  0.85743  1.0000
  C   C29       1.0  0.37829  0.81867  0.14262  1.0000
  C   C30       1.0  0.12164  0.03848  0.14256  1.0000
  C   C31       1.0  0.75005  0.04461  0.91095  1.0000
  C   C32       1.0  0.24995  0.95539  0.08905  1.0000
  C   C33       1.0  0.75004  0.99141  0.01735  1.0000
  C   C34       1.0  0.24995  0.00859  0.98265  1.0000
  C   C35       1.0  0.60503  0.04866  0.06955  1.0000
  C   C36       1.0  0.89512  0.88179  0.06954  1.0000
  C   C37       1.0  0.39496  0.95134  0.93045  1.0000
  C   C38       1.0  0.10488  0.11821  0.93046  1.0000
  C   C39       1.0  0.60537  0.99889  0.17000  1.0000
  C   C40       1.0  0.89494  0.83090  0.16997  1.0000
  C   C41       1.0  0.39463  0.00111  0.83000  1.0000
  C   C42       1.0  0.10506  0.16910  0.83002  1.0000
  C   C43       1.0  0.75019  0.88946  0.22081  1.0000
  C   C44       1.0  0.24981  0.11054  0.77919  1.0000
  C   C45       1.0  0.66610  0.93500  0.58767  1.0000
  C   C46       1.0  0.83422  0.47653  0.58747  1.0000
  C   C47       1.0  0.33391  0.06500  0.41233  1.0000
  C   C48       1.0  0.16580  0.52346  0.41253  1.0000
  C   C49       1.0  0.72478  0.77035  0.59390  1.0000
  C   C50       1.0  0.77558  0.63481  0.59384  1.0000
  C   C51       1.0  0.27523  0.22964  0.40609  1.0000
  C   C52       1.0  0.22443  0.36519  0.40615  1.0000
  N   N1        1.0  0.75018  0.30036  0.39865  1.0000
  N   N2        1.0  0.24982  0.69964  0.60135  1.0000
  N   N3        1.0  0.74987  0.14639  0.70759  1.0000
  N   N4        1.0  0.25012  0.85361  0.29241  1.0000
  O   O1        1.0  0.49364  0.30088  0.56595  1.0000
  O   O2        1.0  0.00626  0.13264  0.56590  1.0000
  O   O3        1.0  0.50636  0.69912  0.43406  1.0000
  O   O4        1.0  0.99374  0.86736  0.43410  1.0000
  O   O5        1.0  0.77155  0.99370  0.55465  1.0000
  O   O6        1.0  0.72877  0.45125  0.55421  1.0000
  O   O7        1.0  0.22846  0.00630  0.44534  1.0000
  O   O8        1.0  0.27123  0.54875  0.44580  1.0000
  O   O9        1.0  0.52114  0.00538  0.61341  1.0000
  O   O10       1.0  0.97909  0.38014  0.61332  1.0000
  O   O11       1.0  0.47887  0.99461  0.38659  1.0000
  O   O12       1.0  0.02092  0.61985  0.38668  1.0000
