data_image0
_chemical_formula_structural       Cu3P2H22C14N2O16
_chemical_formula_sum              "Cu3 P2 H22 C14 N2 O16"
_cell_length_a       8.60554
_cell_length_b       9.76124
_cell_length_c       10.5516
_cell_angle_alpha    111.039
_cell_angle_beta     102.226
_cell_angle_gamma    121.286

_space_group_name_H-M_alt    "P 1"
_space_group_IT_number       1

loop_
  _space_group_symop_operation_xyz
  'x, y, z'

loop_
  _atom_site_type_symbol
  _atom_site_label
  _atom_site_symmetry_multiplicity
  _atom_site_fract_x
  _atom_site_fract_y
  _atom_site_fract_z
  _atom_site_occupancy
  Cu  Cu1       1.0  0.50021  0.50019  0.49914  1.0000
  Cu  Cu2       1.0  0.75972  0.90495  0.26836  1.0000
  Cu  Cu3       1.0  0.24123  0.09583  0.73133  1.0000
  P   P1        1.0  0.24342  0.09185  0.43288  1.0000
  P   P2        1.0  0.75764  0.90949  0.56636  1.0000
  H   H1        1.0  0.14789  0.04393  0.13008  1.0000
  H   H2        1.0  0.84960  0.95385  0.86770  1.0000
  H   H3        1.0  0.30925  0.70470  0.92484  1.0000
  H   H4        1.0  0.69088  0.29487  0.07474  1.0000
  H   H5        1.0  0.35726  0.85110  0.37697  1.0000
  H   H6        1.0  0.64515  0.15161  0.62355  1.0000
  H   H7        1.0  0.38525  0.57310  0.06177  1.0000
  H   H8        1.0  0.61592  0.42751  0.93945  1.0000
  H   H9        1.0  0.43499  0.65452  0.24908  1.0000
  H   H10       1.0  0.56748  0.34852  0.75267  1.0000
  H   H11       1.0  0.14750  0.30278  0.45223  1.0000
  H   H12       1.0  0.85302  0.69805  0.54619  1.0000
  H   H13       1.0  0.16614  0.46131  0.42984  1.0000
  H   H14       1.0  0.83559  0.54099  0.57001  1.0000
  H   H15       1.0  0.57697  0.38362  0.27344  1.0000
  H   H16       1.0  0.41888  0.61121  0.72429  1.0000
  H   H17       1.0  0.39818  0.25202  0.09172  1.0000
  H   H18       1.0  0.59806  0.74512  0.90658  1.0000
  H   H19       1.0  0.89244  0.68862  0.21934  1.0000
  H   H20       1.0  0.10826  0.31201  0.79067  1.0000
  H   H21       1.0  0.65619  0.54317  0.18001  1.0000
  H   H22       1.0  0.34128  0.45578  0.82251  1.0000
  C   C1        1.0  0.24699  0.95474  0.26574  1.0000
  C   C2        1.0  0.75308  0.04560  0.73343  1.0000
  C   C3        1.0  0.20166  0.96579  0.13570  1.0000
  C   C4        1.0  0.79684  0.03290  0.86271  1.0000
  C   C5        1.0  0.22541  0.87564  0.01356  1.0000
  C   C6        1.0  0.77336  0.12296  0.98508  1.0000
  C   C7        1.0  0.29072  0.77286  0.02054  1.0000
  C   C8        1.0  0.70915  0.22671  0.97887  1.0000
  C   C9        1.0  0.34372  0.76802  0.15270  1.0000
  C   C10       1.0  0.65720  0.23283  0.84732  1.0000
  C   C11       1.0  0.31805  0.85605  0.27441  1.0000
  C   C12       1.0  0.68319  0.14540  0.72555  1.0000
  C   C13       1.0  0.20118  0.89717  0.87814  1.0000
  C   C14       1.0  0.79811  0.10140  0.12048  1.0000
  N   N1        1.0  0.44201  0.69027  0.16837  1.0000
  N   N2        1.0  0.55950  0.31130  0.83244  1.0000
  O   O1        1.0  0.06648  0.09506  0.37127  1.0000
  O   O2        1.0  0.93461  0.90627  0.62787  1.0000
  O   O3        1.0  0.45496  0.30411  0.53464  1.0000
  O   O4        1.0  0.54634  0.69698  0.46422  1.0000
  O   O5        1.0  0.22064  0.99649  0.52285  1.0000
  O   O6        1.0  0.78082  0.00555  0.47700  1.0000
  O   O7        1.0  0.14218  0.76564  0.74802  1.0000
  O   O8        1.0  0.85754  0.23309  0.25070  1.0000
  O   O9        1.0  0.25680  0.06398  0.91163  1.0000
  O   O10       1.0  0.74298  0.93474  0.08702  1.0000
  O   O11       1.0  0.24393  0.44911  0.50122  1.0000
  O   O12       1.0  0.75718  0.55195  0.49773  1.0000
  O   O13       1.0  0.49048  0.38154  0.19424  1.0000
  O   O14       1.0  0.50452  0.61442  0.80513  1.0000
  O   O15       1.0  0.75169  0.63843  0.15763  1.0000
  O   O16       1.0  0.25030  0.36229  0.84809  1.0000
