data_image0
_chemical_formula_structural       Mn4P4H48C28N4O20
_chemical_formula_sum              "Mn4 P4 H48 C28 N4 O20"
_cell_length_a       9.02422
_cell_length_b       10.2394
_cell_length_c       11.1067
_cell_angle_alpha    107.441
_cell_angle_beta     90
_cell_angle_gamma    90.0002

_space_group_name_H-M_alt    "P 1"
_space_group_IT_number       1

loop_
  _space_group_symop_operation_xyz
  'x, y, z'

loop_
  _atom_site_type_symbol
  _atom_site_label
  _atom_site_symmetry_multiplicity
  _atom_site_fract_x
  _atom_site_fract_y
  _atom_site_fract_z
  _atom_site_occupancy
  Mn  Mn1       1.0  0.89932  0.64205  0.15580  1.0000
  Mn  Mn2       1.0  0.60068  0.14205  0.15580  1.0000
  Mn  Mn3       1.0  0.10068  0.35795  0.84420  1.0000
  Mn  Mn4       1.0  0.39932  0.85795  0.84420  1.0000
  P   P1        1.0  0.68885  0.81599  0.00419  1.0000
  P   P2        1.0  0.81115  0.31599  0.00419  1.0000
  P   P3        1.0  0.31115  0.18401  0.99581  1.0000
  P   P4        1.0  0.18885  0.68401  0.99581  1.0000
  H   H1        1.0  0.74304  0.85651  0.75955  1.0000
  H   H2        1.0  0.75696  0.35651  0.75955  1.0000
  H   H3        1.0  0.25696  0.14349  0.24045  1.0000
  H   H4        1.0  0.24304  0.64349  0.24045  1.0000
  H   H5        1.0  0.95199  0.84856  0.96491  1.0000
  H   H6        1.0  0.54801  0.34856  0.96491  1.0000
  H   H7        1.0  0.04801  0.15144  0.03509  1.0000
  H   H8        1.0  0.45199  0.65144  0.03509  1.0000
  H   H9        1.0  0.83986  0.99291  0.96548  1.0000
  H   H10       1.0  0.66014  0.49291  0.96548  1.0000
  H   H11       1.0  0.16014  0.00709  0.03452  1.0000
  H   H12       1.0  0.33986  0.50709  0.03451  1.0000
  H   H13       1.0  0.98559  0.66574  0.76873  1.0000
  H   H14       1.0  0.51441  0.16574  0.76873  1.0000
  H   H15       1.0  0.01441  0.33426  0.23127  1.0000
  H   H16       1.0  0.48560  0.83426  0.23127  1.0000
  H   H17       1.0  0.79226  0.63338  0.76956  1.0000
  H   H18       1.0  0.70774  0.13338  0.76956  1.0000
  H   H19       1.0  0.20774  0.36662  0.23044  1.0000
  H   H20       1.0  0.29227  0.86662  0.23044  1.0000
  H   H21       1.0  0.89234  0.54125  0.55281  1.0000
  H   H22       1.0  0.60766  0.04125  0.55281  1.0000
  H   H23       1.0  0.10766  0.45875  0.44719  1.0000
  H   H24       1.0  0.39234  0.95875  0.44719  1.0000
  H   H25       1.0  0.76190  0.67244  0.55983  1.0000
  H   H26       1.0  0.73810  0.17244  0.55983  1.0000
  H   H27       1.0  0.23810  0.32756  0.44017  1.0000
  H   H28       1.0  0.26190  0.82756  0.44016  1.0000
  H   H29       1.0  0.09973  0.70827  0.56562  1.0000
  H   H30       1.0  0.40027  0.20827  0.56562  1.0000
  H   H31       1.0  0.90027  0.29173  0.43438  1.0000
  H   H32       1.0  0.59973  0.79172  0.43438  1.0000
  H   H33       1.0  0.85274  0.91550  0.57158  1.0000
  H   H34       1.0  0.64726  0.41550  0.57158  1.0000
  H   H35       1.0  0.14726  0.08450  0.42842  1.0000
  H   H36       1.0  0.35274  0.58450  0.42842  1.0000
  H   H37       1.0  0.04587  0.94980  0.57803  1.0000
  H   H38       1.0  0.45413  0.44980  0.57803  1.0000
  H   H39       1.0  0.95413  0.05020  0.42197  1.0000
  H   H40       1.0  0.54587  0.55020  0.42197  1.0000
  H   H41       1.0  0.93518  0.03056  0.79321  1.0000
  H   H42       1.0  0.56482  0.53056  0.79321  1.0000
  H   H43       1.0  0.06482  0.96944  0.20679  1.0000
  H   H44       1.0  0.43518  0.46944  0.20679  1.0000
  H   H45       1.0  0.06838  0.89888  0.78202  1.0000
  H   H46       1.0  0.43162  0.39888  0.78202  1.0000
  H   H47       1.0  0.93162  0.10112  0.21798  1.0000
  H   H48       1.0  0.56838  0.60112  0.21798  1.0000
  C   C1        1.0  0.84688  0.88063  0.93315  1.0000
  C   C2        1.0  0.65312  0.38063  0.93315  1.0000
  C   C3        1.0  0.15312  0.11937  0.06685  1.0000
  C   C4        1.0  0.34688  0.61937  0.06685  1.0000
  C   C5        1.0  0.87759  0.68799  0.73367  1.0000
  C   C6        1.0  0.62241  0.18799  0.73367  1.0000
  C   C7        1.0  0.12241  0.31201  0.26633  1.0000
  C   C8        1.0  0.37759  0.81201  0.26633  1.0000
  C   C9        1.0  0.87279  0.65168  0.59066  1.0000
  C   C10       1.0  0.62721  0.15168  0.59066  1.0000
  C   C11       1.0  0.12721  0.34832  0.40934  1.0000
  C   C12       1.0  0.37279  0.84832  0.40933  1.0000
  C   C13       1.0  0.98756  0.73417  0.54107  1.0000
  C   C14       1.0  0.51244  0.23417  0.54107  1.0000
  C   C15       1.0  0.01244  0.26583  0.45893  1.0000
  C   C16       1.0  0.48756  0.76583  0.45893  1.0000
  C   C17       1.0  0.95980  0.88735  0.60418  1.0000
  C   C18       1.0  0.54020  0.38735  0.60418  1.0000
  C   C19       1.0  0.04020  0.11265  0.39582  1.0000
  C   C20       1.0  0.45980  0.61265  0.39582  1.0000
  C   C21       1.0  0.96062  0.92213  0.74704  1.0000
  C   C22       1.0  0.53938  0.42213  0.74704  1.0000
  C   C23       1.0  0.03938  0.07787  0.25296  1.0000
  C   C24       1.0  0.46062  0.57787  0.25296  1.0000
  C   C25       1.0  0.97742  0.69635  0.39801  1.0000
  C   C26       1.0  0.52258  0.19635  0.39801  1.0000
  C   C27       1.0  0.02258  0.30365  0.60199  1.0000
  C   C28       1.0  0.47742  0.80365  0.60199  1.0000
  N   N1        1.0  0.84793  0.83835  0.79205  1.0000
  N   N2        1.0  0.65207  0.33835  0.79204  1.0000
  N   N3        1.0  0.15207  0.16165  0.20796  1.0000
  N   N4        1.0  0.34793  0.66165  0.20795  1.0000
  O   O1        1.0  0.73848  0.69688  0.05143  1.0000
  O   O2        1.0  0.76151  0.19688  0.05143  1.0000
  O   O3        1.0  0.26152  0.30312  0.94857  1.0000
  O   O4        1.0  0.23849  0.80312  0.94857  1.0000
  O   O5        1.0  0.63595  0.93865  0.11245  1.0000
  O   O6        1.0  0.86405  0.43865  0.11245  1.0000
  O   O7        1.0  0.36405  0.06135  0.88755  1.0000
  O   O8        1.0  0.13595  0.56135  0.88755  1.0000
  O   O9        1.0  0.57531  0.76495  0.89717  1.0000
  O   O10       1.0  0.92469  0.26495  0.89717  1.0000
  O   O11       1.0  0.42469  0.23505  0.10283  1.0000
  O   O12       1.0  0.07531  0.73505  0.10283  1.0000
  O   O13       1.0  0.08051  0.62722  0.33009  1.0000
  O   O14       1.0  0.41949  0.12721  0.33009  1.0000
  O   O15       1.0  0.91949  0.37279  0.66991  1.0000
  O   O16       1.0  0.58051  0.87279  0.66991  1.0000
  O   O17       1.0  0.86087  0.73314  0.34997  1.0000
  O   O18       1.0  0.63913  0.23314  0.34997  1.0000
  O   O19       1.0  0.13913  0.26686  0.65003  1.0000
  O   O20       1.0  0.36087  0.76686  0.65003  1.0000
