data_image0
_chemical_formula_structural       Li4H68C36N16
_chemical_formula_sum              "Li4 H68 C36 N16"
_cell_length_a       10.0815
_cell_length_b       10.2974
_cell_length_c       11.4596
_cell_angle_alpha    90.0002
_cell_angle_beta     90.0001
_cell_angle_gamma    94.438

_space_group_name_H-M_alt    "P 1"
_space_group_IT_number       1

loop_
  _space_group_symop_operation_xyz
  'x, y, z'

loop_
  _atom_site_type_symbol
  _atom_site_label
  _atom_site_symmetry_multiplicity
  _atom_site_fract_x
  _atom_site_fract_y
  _atom_site_fract_z
  _atom_site_occupancy
  Li  Li1       1.0  0.99298  0.83488  0.74543  1.0000
  Li  Li2       1.0  0.49297  0.33488  0.75457  1.0000
  Li  Li3       1.0  0.00702  0.16512  0.25456  1.0000
  Li  Li4       1.0  0.50702  0.66512  0.24544  1.0000
  H   H1        1.0  0.96171  0.53419  0.10610  1.0000
  H   H2        1.0  0.46172  0.03419  0.39390  1.0000
  H   H3        1.0  0.03827  0.46581  0.89390  1.0000
  H   H4        1.0  0.53829  0.96582  0.60610  1.0000
  H   H5        1.0  0.17598  0.94851  0.93482  1.0000
  H   H6        1.0  0.67598  0.44851  0.56518  1.0000
  H   H7        1.0  0.82402  0.05149  0.06518  1.0000
  H   H8        1.0  0.32402  0.55149  0.43482  1.0000
  H   H9        1.0  0.07005  0.07603  0.91300  1.0000
  H   H10       1.0  0.57005  0.57604  0.58700  1.0000
  H   H11       1.0  0.92995  0.92396  0.08700  1.0000
  H   H12       1.0  0.42995  0.42396  0.41300  1.0000
  H   H13       1.0  0.24443  0.10662  0.88891  1.0000
  H   H14       1.0  0.74443  0.60662  0.61110  1.0000
  H   H15       1.0  0.75557  0.89338  0.11110  1.0000
  H   H16       1.0  0.25557  0.39338  0.38891  1.0000
  H   H17       1.0  0.18062  0.18032  0.68538  1.0000
  H   H18       1.0  0.68062  0.68032  0.81462  1.0000
  H   H19       1.0  0.81938  0.81968  0.31462  1.0000
  H   H20       1.0  0.31938  0.31968  0.18538  1.0000
  H   H21       1.0  0.00987  0.13716  0.72164  1.0000
  H   H22       1.0  0.50987  0.63716  0.77836  1.0000
  H   H23       1.0  0.99013  0.86284  0.27836  1.0000
  H   H24       1.0  0.49013  0.36284  0.22164  1.0000
  H   H25       1.0  0.08093  0.06724  0.59707  1.0000
  H   H26       1.0  0.58093  0.56724  0.90293  1.0000
  H   H27       1.0  0.91907  0.93276  0.40293  1.0000
  H   H28       1.0  0.41908  0.43276  0.09707  1.0000
  H   H29       1.0  0.29455  0.87218  0.78151  1.0000
  H   H30       1.0  0.79455  0.37218  0.71849  1.0000
  H   H31       1.0  0.70546  0.12782  0.21849  1.0000
  H   H32       1.0  0.20545  0.62782  0.28151  1.0000
  H   H33       1.0  0.33450  0.00728  0.68859  1.0000
  H   H34       1.0  0.83450  0.50728  0.81141  1.0000
  H   H35       1.0  0.66550  0.99272  0.31141  1.0000
  H   H36       1.0  0.16550  0.49272  0.18859  1.0000
  H   H37       1.0  0.17737  0.90493  0.53696  1.0000
  H   H38       1.0  0.67737  0.40493  0.96304  1.0000
  H   H39       1.0  0.82263  0.09507  0.46304  1.0000
  H   H40       1.0  0.32263  0.59507  0.03696  1.0000
  H   H41       1.0  0.31168  0.81016  0.56911  1.0000
  H   H42       1.0  0.81167  0.31016  0.93089  1.0000
  H   H43       1.0  0.68833  0.18984  0.43089  1.0000
  H   H44       1.0  0.18833  0.68983  0.06911  1.0000
  H   H45       1.0  0.26278  0.59338  0.64608  1.0000
  H   H46       1.0  0.76278  0.09338  0.85393  1.0000
  H   H47       1.0  0.73722  0.40662  0.35392  1.0000
  H   H48       1.0  0.23722  0.90662  0.14608  1.0000
  H   H49       1.0  0.10623  0.55470  0.71583  1.0000
  H   H50       1.0  0.60623  0.05470  0.78417  1.0000
  H   H51       1.0  0.89377  0.44530  0.28417  1.0000
  H   H52       1.0  0.39377  0.94530  0.21583  1.0000
  H   H53       1.0  0.22356  0.66899  0.78102  1.0000
  H   H54       1.0  0.72356  0.16899  0.71898  1.0000
  H   H55       1.0  0.77645  0.33101  0.21898  1.0000
  H   H56       1.0  0.27644  0.83101  0.28102  1.0000
  H   H57       1.0  0.12366  0.64597  0.46673  1.0000
  H   H58       1.0  0.62366  0.14597  0.03327  1.0000
  H   H59       1.0  0.87634  0.35403  0.53327  1.0000
  H   H60       1.0  0.37634  0.85403  0.96673  1.0000
  H   H61       1.0  0.00217  0.76217  0.48660  1.0000
  H   H62       1.0  0.50218  0.26217  0.01340  1.0000
  H   H63       1.0  0.99782  0.23783  0.51340  1.0000
  H   H64       1.0  0.49782  0.73783  0.98660  1.0000
  H   H65       1.0  0.97921  0.60693  0.55410  1.0000
  H   H66       1.0  0.47921  0.10693  0.94590  1.0000
  H   H67       1.0  0.02080  0.39307  0.44590  1.0000
  H   H68       1.0  0.52079  0.89307  0.05410  1.0000
  C   C1        1.0  0.89645  0.60444  0.07194  1.0000
  C   C2        1.0  0.39646  0.10446  0.42803  1.0000
  C   C3        1.0  0.10354  0.39556  0.92805  1.0000
  C   C4        1.0  0.60355  0.89556  0.57195  1.0000
  C   C5        1.0  0.93610  0.67943  0.97656  1.0000
  C   C6        1.0  0.43609  0.17941  0.52345  1.0000
  C   C7        1.0  0.06390  0.32057  0.02343  1.0000
  C   C8        1.0  0.56391  0.82058  0.47656  1.0000
  C   C9        1.0  0.77124  0.61173  0.11913  1.0000
  C   C10       1.0  0.27122  0.11174  0.38087  1.0000
  C   C11       1.0  0.22876  0.38826  0.88087  1.0000
  C   C12       1.0  0.72876  0.88826  0.61914  1.0000
  C   C13       1.0  0.15905  0.03303  0.88010  1.0000
  C   C14       1.0  0.65905  0.53303  0.61990  1.0000
  C   C15       1.0  0.84096  0.96697  0.11990  1.0000
  C   C16       1.0  0.34096  0.46697  0.38010  1.0000
  C   C17       1.0  0.10108  0.10009  0.68681  1.0000
  C   C18       1.0  0.60108  0.60009  0.81319  1.0000
  C   C19       1.0  0.89892  0.89991  0.31319  1.0000
  C   C20       1.0  0.39892  0.39991  0.18681  1.0000
  C   C21       1.0  0.25477  0.93174  0.71193  1.0000
  C   C22       1.0  0.75477  0.43173  0.78806  1.0000
  C   C23       1.0  0.74523  0.06826  0.28806  1.0000
  C   C24       1.0  0.24523  0.56826  0.21194  1.0000
  C   C25       1.0  0.21983  0.84642  0.60576  1.0000
  C   C26       1.0  0.71983  0.34642  0.89424  1.0000
  C   C27       1.0  0.78018  0.15358  0.39423  1.0000
  C   C28       1.0  0.28018  0.65358  0.10577  1.0000
  C   C29       1.0  0.18234  0.63386  0.69722  1.0000
  C   C30       1.0  0.68234  0.13386  0.80278  1.0000
  C   C31       1.0  0.81767  0.36614  0.30278  1.0000
  C   C32       1.0  0.31766  0.86614  0.19722  1.0000
  C   C33       1.0  0.05376  0.68562  0.52971  1.0000
  C   C34       1.0  0.55376  0.18562  0.97029  1.0000
  C   C35       1.0  0.94624  0.31438  0.47029  1.0000
  C   C36       1.0  0.44624  0.81438  0.02971  1.0000
  N   N1        1.0  0.96962  0.74255  0.89430  1.0000
  N   N2        1.0  0.46962  0.24254  0.60569  1.0000
  N   N3        1.0  0.03038  0.25745  0.10569  1.0000
  N   N4        1.0  0.53038  0.75745  0.39430  1.0000
  N   N5        1.0  0.66428  0.61768  0.15949  1.0000
  N   N6        1.0  0.16427  0.11768  0.34051  1.0000
  N   N7        1.0  0.33572  0.38232  0.84051  1.0000
  N   N8        1.0  0.83573  0.88232  0.65949  1.0000
  N   N9        1.0  0.13720  0.99055  0.75911  1.0000
  N   N10       1.0  0.63720  0.49055  0.74089  1.0000
  N   N11       1.0  0.86280  0.00945  0.24089  1.0000
  N   N12       1.0  0.36280  0.50945  0.25911  1.0000
  N   N13       1.0  0.12103  0.73791  0.63469  1.0000
  N   N14       1.0  0.62103  0.23791  0.86531  1.0000
  N   N15       1.0  0.87897  0.26209  0.36531  1.0000
  N   N16       1.0  0.37897  0.76209  0.13469  1.0000
