data_image0
_chemical_formula_structural       Cu4H20C24S4O4
_chemical_formula_sum              "Cu4 H20 C24 S4 O4"
_cell_length_a       3.99017
_cell_length_b       5.3209
_cell_length_c       27.1827
_cell_angle_alpha    90.0014
_cell_angle_beta     90.0006
_cell_angle_gamma    90.0006

_space_group_name_H-M_alt    "P 1"
_space_group_IT_number       1

loop_
  _space_group_symop_operation_xyz
  'x, y, z'

loop_
  _atom_site_type_symbol
  _atom_site_label
  _atom_site_symmetry_multiplicity
  _atom_site_fract_x
  _atom_site_fract_y
  _atom_site_fract_z
  _atom_site_occupancy
  Cu  Cu1       1.0  0.50973  0.24265  0.98151  1.0000
  Cu  Cu2       1.0  0.49029  0.25735  0.48149  1.0000
  Cu  Cu3       1.0  0.99034  0.74265  0.01851  1.0000
  Cu  Cu4       1.0  0.00975  0.75736  0.51849  1.0000
  H   H1        1.0  0.78524  0.35624  0.85325  1.0000
  H   H2        1.0  0.21476  0.14379  0.35324  1.0000
  H   H3        1.0  0.71475  0.85623  0.14676  1.0000
  H   H4        1.0  0.28527  0.64375  0.64675  1.0000
  H   H5        1.0  0.70899  0.60103  0.93030  1.0000
  H   H6        1.0  0.29103  0.89898  0.43028  1.0000
  H   H7        1.0  0.79110  0.10101  0.06972  1.0000
  H   H8        1.0  0.20899  0.39901  0.56970  1.0000
  H   H9        1.0  0.36450  0.17338  0.87358  1.0000
  H   H10       1.0  0.63550  0.32665  0.37356  1.0000
  H   H11       1.0  0.13553  0.67336  0.12644  1.0000
  H   H12       1.0  0.86447  0.82668  0.62642  1.0000
  H   H13       1.0  0.42644  0.93519  0.79543  1.0000
  H   H14       1.0  0.57353  0.56483  0.29542  1.0000
  H   H15       1.0  0.07352  0.43517  0.20458  1.0000
  H   H16       1.0  0.92643  0.06479  0.70458  1.0000
  H   H17       1.0  0.35125  0.52198  0.75843  1.0000
  H   H18       1.0  0.64867  0.97802  0.25843  1.0000
  H   H19       1.0  0.14868  0.02196  0.24157  1.0000
  H   H20       1.0  0.85127  0.47799  0.74158  1.0000
  C   C1        1.0  0.11229  0.62778  0.82020  1.0000
  C   C2        1.0  0.88768  0.87221  0.32020  1.0000
  C   C3        1.0  0.38770  0.12775  0.17980  1.0000
  C   C4        1.0  0.61227  0.37221  0.67980  1.0000
  C   C5        1.0  0.90832  0.53693  0.85796  1.0000
  C   C6        1.0  0.09167  0.96308  0.35795  1.0000
  C   C7        1.0  0.59169  0.03690  0.14205  1.0000
  C   C8        1.0  0.40830  0.46310  0.64204  1.0000
  C   C9        1.0  0.87068  0.67332  0.90114  1.0000
  C   C10       1.0  0.12934  0.82667  0.40113  1.0000
  C   C11       1.0  0.62934  0.17332  0.09888  1.0000
  C   C12       1.0  0.37072  0.32668  0.59887  1.0000
  C   C13       1.0  0.03896  0.90167  0.90745  1.0000
  C   C14       1.0  0.96104  0.59837  0.40743  1.0000
  C   C15       1.0  0.46107  0.40165  0.09257  1.0000
  C   C16       1.0  0.53902  0.09835  0.59256  1.0000
  C   C17       1.0  0.23496  0.99498  0.86881  1.0000
  C   C18       1.0  0.76504  0.50503  0.36879  1.0000
  C   C19       1.0  0.26505  0.49495  0.13120  1.0000
  C   C20       1.0  0.73497  0.00500  0.63119  1.0000
  C   C21       1.0  0.26948  0.86126  0.82493  1.0000
  C   C22       1.0  0.73046  0.63873  0.32492  1.0000
  C   C23       1.0  0.23049  0.36124  0.17508  1.0000
  C   C24       1.0  0.76949  0.13870  0.67506  1.0000
  S   S1        1.0  0.01082  0.07043  0.96414  1.0000
  S   S2        1.0  0.98920  0.42957  0.46412  1.0000
  S   S3        1.0  0.48924  0.57044  0.03588  1.0000
  S   S4        1.0  0.51085  0.92958  0.53586  1.0000
  O   O1        1.0  0.15104  0.47560  0.77943  1.0000
  O   O2        1.0  0.84888  0.02444  0.27942  1.0000
  O   O3        1.0  0.34888  0.97558  0.22057  1.0000
  O   O4        1.0  0.65102  0.52441  0.72058  1.0000
