data_image0
_chemical_formula_structural       Cd2H8C16N12O4
_chemical_formula_sum              "Cd2 H8 C16 N12 O4"
_cell_length_a       6.92387
_cell_length_b       8.79479
_cell_length_c       11.7453
_cell_angle_alpha    77.6448
_cell_angle_beta     72.8826
_cell_angle_gamma    66.7752

_space_group_name_H-M_alt    "P 1"
_space_group_IT_number       1

loop_
  _space_group_symop_operation_xyz
  'x, y, z'

loop_
  _atom_site_type_symbol
  _atom_site_label
  _atom_site_symmetry_multiplicity
  _atom_site_fract_x
  _atom_site_fract_y
  _atom_site_fract_z
  _atom_site_occupancy
  Cd  Cd1       1.0  0.58449  0.24973  0.75023  1.0000
  Cd  Cd2       1.0  0.41553  0.75026  0.24977  1.0000
  H   H1        1.0  0.83206  0.50924  0.07462  1.0000
  H   H2        1.0  0.58418  0.00955  0.57460  1.0000
  H   H3        1.0  0.16793  0.49074  0.92538  1.0000
  H   H4        1.0  0.41577  0.99048  0.42540  1.0000
  H   H5        1.0  0.94955  0.29342  0.08802  1.0000
  H   H6        1.0  0.66920  0.79373  0.58760  1.0000
  H   H7        1.0  0.05046  0.70656  0.91197  1.0000
  H   H8        1.0  0.33076  0.20630  0.41241  1.0000
  C   C1        1.0  0.82106  0.40188  0.24635  1.0000
  C   C2        1.0  0.53089  0.90173  0.74617  1.0000
  C   C3        1.0  0.17893  0.59809  0.75365  1.0000
  C   C4        1.0  0.46910  0.09830  0.25383  1.0000
  C   C5        1.0  0.86354  0.24242  0.32074  1.0000
  C   C6        1.0  0.57370  0.74213  0.82033  1.0000
  C   C7        1.0  0.13648  0.75755  0.67926  1.0000
  C   C8        1.0  0.42630  0.25790  0.17967  1.0000
  C   C9        1.0  0.76650  0.23829  0.44289  1.0000
  C   C10       1.0  0.55263  0.73805  0.94248  1.0000
  C   C11       1.0  0.23351  0.76169  0.55710  1.0000
  C   C12       1.0  0.44740  0.26196  0.05751  1.0000
  C   C13       1.0  0.98462  0.09043  0.27483  1.0000
  C   C14       1.0  0.65035  0.59020  0.77439  1.0000
  C   C15       1.0  0.01540  0.90953  0.72517  1.0000
  C   C16       1.0  0.34963  0.40982  0.22561  1.0000
  N   N1        1.0  0.89507  0.40100  0.12549  1.0000
  N   N2        1.0  0.57862  0.90121  0.62526  1.0000
  N   N3        1.0  0.10493  0.59898  0.87451  1.0000
  N   N4        1.0  0.42135  0.09882  0.37474  1.0000
  N   N5        1.0  0.68236  0.22835  0.54529  1.0000
  N   N6        1.0  0.54402  0.72827  0.04493  1.0000
  N   N7        1.0  0.31768  0.77165  0.45470  1.0000
  N   N8        1.0  0.45601  0.27173  0.95506  1.0000
  N   N9        1.0  0.08599  0.96252  0.23535  1.0000
  N   N10       1.0  0.71611  0.46218  0.73514  1.0000
  N   N11       1.0  0.91402  0.03745  0.76465  1.0000
  N   N12       1.0  0.28386  0.53785  0.26486  1.0000
  O   O1        1.0  0.71986  0.53551  0.29397  1.0000
  O   O2        1.0  0.45068  0.03517  0.79406  1.0000
  O   O3        1.0  0.28015  0.46446  0.70603  1.0000
  O   O4        1.0  0.54930  0.96485  0.20596  1.0000
