data_image0
_chemical_formula_structural       Zn2H36C54N4O12
_chemical_formula_sum              "Zn2 H36 C54 N4 O12"
_cell_length_a       7.60563
_cell_length_b       11.5414
_cell_length_c       13.5638
_cell_angle_alpha    82.9949
_cell_angle_beta     83.7338
_cell_angle_gamma    70.7871

_space_group_name_H-M_alt    "P 1"
_space_group_IT_number       1

loop_
  _space_group_symop_operation_xyz
  'x, y, z'

loop_
  _atom_site_type_symbol
  _atom_site_label
  _atom_site_symmetry_multiplicity
  _atom_site_fract_x
  _atom_site_fract_y
  _atom_site_fract_z
  _atom_site_occupancy
  Zn  Zn1       1.0  0.30040  0.11965  0.01554  1.0000
  Zn  Zn2       1.0  0.69960  0.88035  0.98446  1.0000
  H   H1        1.0  0.04418  0.14544  0.15232  1.0000
  H   H2        1.0  0.95582  0.85456  0.84768  1.0000
  H   H3        1.0  0.93234  0.14897  0.05332  1.0000
  H   H4        1.0  0.06766  0.85103  0.94668  1.0000
  H   H5        1.0  0.59897  0.23721  0.20086  1.0000
  H   H6        1.0  0.40103  0.76278  0.79914  1.0000
  H   H7        1.0  0.76462  0.29833  0.32602  1.0000
  H   H8        1.0  0.23538  0.70167  0.67398  1.0000
  H   H9        1.0  0.31039  0.30031  0.54524  1.0000
  H   H10       1.0  0.68962  0.69969  0.45476  1.0000
  H   H11       1.0  0.14452  0.24150  0.41931  1.0000
  H   H12       1.0  0.85548  0.75850  0.58069  1.0000
  H   H13       1.0  0.64408  0.46731  0.66851  1.0000
  H   H14       1.0  0.35592  0.53269  0.33149  1.0000
  H   H15       1.0  0.66272  0.39053  0.84852  1.0000
  H   H16       1.0  0.33728  0.60947  0.15148  1.0000
  H   H17       1.0  0.61751  0.04713  0.78335  1.0000
  H   H18       1.0  0.38248  0.95287  0.21665  1.0000
  H   H19       1.0  0.60472  0.12106  0.60299  1.0000
  H   H20       1.0  0.39528  0.87894  0.39701  1.0000
  H   H21       1.0  0.32901  0.37334  0.08385  1.0000
  H   H22       1.0  0.67099  0.62666  0.91615  1.0000
  H   H23       1.0  0.25895  0.59443  0.00737  1.0000
  H   H24       1.0  0.74105  0.40557  0.99263  1.0000
  H   H25       1.0  0.13111  0.64957  0.84012  1.0000
  H   H26       1.0  0.86889  0.35043  0.15988  1.0000
  H   H27       1.0  0.03608  0.58157  0.69051  1.0000
  H   H28       1.0  0.96392  0.41843  0.30949  1.0000
  H   H29       1.0  0.99821  0.41406  0.60514  1.0000
  H   H30       1.0  0.00179  0.58594  0.39486  1.0000
  H   H31       1.0  0.03987  0.18766  0.60393  1.0000
  H   H32       1.0  0.96013  0.81234  0.39606  1.0000
  H   H33       1.0  0.13756  0.97490  0.69344  1.0000
  H   H34       1.0  0.86244  0.02511  0.30656  1.0000
  H   H35       1.0  0.25883  0.94634  0.86355  1.0000
  H   H36       1.0  0.74117  0.05366  0.13645  1.0000
  C   C1        1.0  0.26948  0.19194  0.22911  1.0000
  C   C2        1.0  0.73052  0.80806  0.77089  1.0000
  C   C3        1.0  0.36392  0.23351  0.30358  1.0000
  C   C4        1.0  0.63608  0.76649  0.69642  1.0000
  C   C5        1.0  0.53755  0.25138  0.27670  1.0000
  C   C6        1.0  0.46245  0.74862  0.72330  1.0000
  C   C7        1.0  0.62881  0.28579  0.34577  1.0000
  C   C8        1.0  0.37119  0.71421  0.65423  1.0000
  C   C9        1.0  0.54878  0.30121  0.44363  1.0000
  C   C10       1.0  0.45123  0.69879  0.55637  1.0000
  C   C11       1.0  0.37428  0.28484  0.47016  1.0000
  C   C12       1.0  0.62573  0.71516  0.52984  1.0000
  C   C13       1.0  0.28155  0.25261  0.40028  1.0000
  C   C14       1.0  0.71845  0.74739  0.59972  1.0000
  C   C15       1.0  0.64745  0.33955  0.51616  1.0000
  C   C16       1.0  0.35256  0.66044  0.48384  1.0000
  C   C17       1.0  0.62543  0.29916  0.62411  1.0000
  C   C18       1.0  0.37457  0.70084  0.37589  1.0000
  C   C19       1.0  0.63825  0.37542  0.69428  1.0000
  C   C20       1.0  0.36175  0.62458  0.30572  1.0000
  C   C21       1.0  0.64858  0.33253  0.79431  1.0000
  C   C22       1.0  0.35142  0.66747  0.20569  1.0000
  C   C23       1.0  0.64435  0.21324  0.82653  1.0000
  C   C24       1.0  0.35565  0.78676  0.17347  1.0000
  C   C25       1.0  0.62383  0.13879  0.75731  1.0000
  C   C26       1.0  0.37617  0.86121  0.24269  1.0000
  C   C27       1.0  0.61477  0.18115  0.65677  1.0000
  C   C28       1.0  0.38523  0.81885  0.34323  1.0000
  C   C29       1.0  0.66567  0.16453  0.93396  1.0000
  C   C30       1.0  0.33432  0.83547  0.06604  1.0000
  C   C31       1.0  0.27385  0.40225  0.01068  1.0000
  C   C32       1.0  0.72615  0.59775  0.98932  1.0000
  C   C33       1.0  0.23603  0.52435  0.96793  1.0000
  C   C34       1.0  0.76397  0.47565  0.03207  1.0000
  C   C35       1.0  0.16651  0.55536  0.87482  1.0000
  C   C36       1.0  0.83349  0.44464  0.12518  1.0000
  C   C37       1.0  0.13806  0.46429  0.82367  1.0000
  C   C38       1.0  0.86194  0.53571  0.17633  1.0000
  C   C39       1.0  0.07069  0.48796  0.72624  1.0000
  C   C40       1.0  0.92930  0.51204  0.27376  1.0000
  C   C41       1.0  0.05224  0.39522  0.67879  1.0000
  C   C42       1.0  0.94776  0.60478  0.32121  1.0000
  C   C43       1.0  0.10182  0.27134  0.72471  1.0000
  C   C44       1.0  0.89818  0.72867  0.27529  1.0000
  C   C45       1.0  0.09182  0.17094  0.67795  1.0000
  C   C46       1.0  0.90818  0.82906  0.32205  1.0000
  C   C47       1.0  0.14569  0.05397  0.72689  1.0000
  C   C48       1.0  0.85431  0.94603  0.27311  1.0000
  C   C49       1.0  0.20984  0.03686  0.82283  1.0000
  C   C50       1.0  0.79015  0.96314  0.17717  1.0000
  C   C51       1.0  0.16501  0.24549  0.82197  1.0000
  C   C52       1.0  0.83499  0.75452  0.17803  1.0000
  C   C53       1.0  0.18225  0.34343  0.87255  1.0000
  C   C54       1.0  0.81774  0.65657  0.12745  1.0000
  N   N1        1.0  0.24662  0.31469  0.96467  1.0000
  N   N2        1.0  0.75338  0.68531  0.03533  1.0000
  N   N3        1.0  0.21702  0.13013  0.86901  1.0000
  N   N4        1.0  0.78298  0.86988  0.13099  1.0000
  O   O1        1.0  0.37245  0.15328  0.15098  1.0000
  O   O2        1.0  0.62755  0.84673  0.84902  1.0000
  O   O3        1.0  0.10041  0.19642  0.24856  1.0000
  O   O4        1.0  0.89959  0.80358  0.75144  1.0000
  O   O5        1.0  0.75248  0.40142  0.48742  1.0000
  O   O6        1.0  0.24752  0.59858  0.51258  1.0000
  O   O7        1.0  0.74673  0.21165  0.98586  1.0000
  O   O8        1.0  0.25327  0.78835  0.01414  1.0000
  O   O9        1.0  0.59561  0.07777  0.96662  1.0000
  O   O10       1.0  0.40439  0.92223  0.03338  1.0000
  O   O11       1.0  0.04964  0.10920  0.08763  1.0000
  O   O12       1.0  0.95036  0.89080  0.91237  1.0000
