data_image0
_chemical_formula_structural       Na2H44PtC44S4N4O10
_chemical_formula_sum              "Na2 H44 Pt1 C44 S4 N4 O10"
_cell_length_a       8.18931
_cell_length_b       12.7721
_cell_length_c       12.8302
_cell_angle_alpha    115.232
_cell_angle_beta     106.345
_cell_angle_gamma    92.3504

_space_group_name_H-M_alt    "P 1"
_space_group_IT_number       1

loop_
  _space_group_symop_operation_xyz
  'x, y, z'

loop_
  _atom_site_type_symbol
  _atom_site_label
  _atom_site_symmetry_multiplicity
  _atom_site_fract_x
  _atom_site_fract_y
  _atom_site_fract_z
  _atom_site_occupancy
  Na  Na1       1.0  0.25096  0.17449  0.87968  1.0000
  Na  Na2       1.0  0.74905  0.82551  0.12032  1.0000
  H   H1        1.0  0.21065  0.60053  0.09414  1.0000
  H   H2        1.0  0.78935  0.39947  0.90586  1.0000
  H   H3        1.0  0.19752  0.75257  0.29236  1.0000
  H   H4        1.0  0.80247  0.24743  0.70764  1.0000
  H   H5        1.0  0.29505  0.84294  0.51777  1.0000
  H   H6        1.0  0.70495  0.15707  0.48223  1.0000
  H   H7        1.0  0.50947  0.75987  0.62885  1.0000
  H   H8        1.0  0.49053  0.24013  0.37115  1.0000
  H   H9        1.0  0.61949  0.58447  0.51362  1.0000
  H   H10       1.0  0.38051  0.41553  0.48638  1.0000
  H   H11       1.0  0.62273  0.42834  0.31897  1.0000
  H   H12       1.0  0.37727  0.57166  0.68103  1.0000
  H   H13       1.0  0.52908  0.21201  0.15566  1.0000
  H   H14       1.0  0.47093  0.78799  0.84434  1.0000
  H   H15       1.0  0.73467  0.29953  0.19536  1.0000
  H   H16       1.0  0.26534  0.70047  0.80464  1.0000
  H   H17       1.0  0.74182  0.18617  0.98565  1.0000
  H   H18       1.0  0.25818  0.81383  0.01435  1.0000
  H   H19       1.0  0.72989  0.09349  0.05685  1.0000
  H   H20       1.0  0.27012  0.90651  0.94315  1.0000
  H   H21       1.0  0.43089  0.92154  0.76785  1.0000
  H   H22       1.0  0.56911  0.07845  0.23216  1.0000
  H   H23       1.0  0.65932  0.97683  0.83228  1.0000
  H   H24       1.0  0.34068  0.02316  0.16773  1.0000
  H   H25       1.0  0.60068  0.14308  0.77194  1.0000
  H   H26       1.0  0.39933  0.85692  0.22806  1.0000
  H   H27       1.0  0.54129  0.99904  0.64528  1.0000
  H   H28       1.0  0.45871  0.00096  0.35472  1.0000
  H   H29       1.0  0.27781  0.05523  0.52054  1.0000
  H   H30       1.0  0.72220  0.94477  0.47946  1.0000
  H   H31       1.0  0.37905  0.19908  0.64035  1.0000
  H   H32       1.0  0.62095  0.80093  0.35966  1.0000
  H   H33       1.0  0.05300  0.17587  0.53991  1.0000
  H   H34       1.0  0.94700  0.82413  0.46009  1.0000
  H   H35       1.0  0.02004  0.07126  0.59471  1.0000
  H   H36       1.0  0.97996  0.92874  0.40529  1.0000
  H   H37       1.0  0.07376  0.38012  0.68819  1.0000
  H   H38       1.0  0.92624  0.61987  0.31181  1.0000
  H   H39       1.0  0.29254  0.36209  0.73622  1.0000
  H   H40       1.0  0.70746  0.63791  0.26378  1.0000
  H   H41       1.0  0.23041  0.52920  0.90097  1.0000
  H   H42       1.0  0.76959  0.47079  0.09903  1.0000
  H   H43       1.0  0.06244  0.43270  0.89840  1.0000
  H   H44       1.0  0.93756  0.56730  0.10160  1.0000
  Pt  Pt1       1.0  1.00000  0.50000  0.50000  1.0000
  C   C1        1.0  0.35731  0.46251  0.07926  1.0000
  C   C2        1.0  0.64268  0.53748  0.92074  1.0000
  C   C3        1.0  0.29894  0.56209  0.14266  1.0000
  C   C4        1.0  0.70106  0.43791  0.85734  1.0000
  C   C5        1.0  0.35312  0.61606  0.27243  1.0000
  C   C6        1.0  0.64687  0.38394  0.72757  1.0000
  C   C7        1.0  0.29163  0.71660  0.34064  1.0000
  C   C8        1.0  0.70837  0.28339  0.65936  1.0000
  C   C9        1.0  0.34617  0.76711  0.46670  1.0000
  C   C10       1.0  0.65383  0.23289  0.53330  1.0000
  C   C11       1.0  0.46629  0.71988  0.52946  1.0000
  C   C12       1.0  0.53372  0.28013  0.47054  1.0000
  C   C13       1.0  0.52786  0.62171  0.46548  1.0000
  C   C14       1.0  0.47214  0.37830  0.53452  1.0000
  C   C15       1.0  0.47187  0.56666  0.33620  1.0000
  C   C16       1.0  0.52813  0.43334  0.66380  1.0000
  C   C17       1.0  0.53082  0.46381  0.26875  1.0000
  C   C18       1.0  0.46918  0.53619  0.73124  1.0000
  C   C19       1.0  0.47562  0.41300  0.14329  1.0000
  C   C20       1.0  0.52438  0.58699  0.85671  1.0000
  C   C21       1.0  0.61463  0.24627  0.12028  1.0000
  C   C22       1.0  0.38537  0.75373  0.87972  1.0000
  C   C23       1.0  0.65829  0.14826  0.01997  1.0000
  C   C24       1.0  0.34172  0.85174  0.98003  1.0000
  C   C25       1.0  0.53106  0.00142  0.81253  1.0000
  C   C26       1.0  0.46894  0.99858  0.18747  1.0000
  C   C27       1.0  0.51177  0.05747  0.72778  1.0000
  C   C28       1.0  0.48823  0.94252  0.27222  1.0000
  C   C29       1.0  0.28441  0.12043  0.61315  1.0000
  C   C30       1.0  0.71559  0.87957  0.38686  1.0000
  C   C31       1.0  0.10631  0.14915  0.61192  1.0000
  C   C32       1.0  0.89369  0.85085  0.38809  1.0000
  C   C33       1.0  0.16703  0.35534  0.75052  1.0000
  C   C34       1.0  0.83297  0.64466  0.24948  1.0000
  C   C35       1.0  0.18592  0.43801  0.88078  1.0000
  C   C36       1.0  0.81408  0.56199  0.11922  1.0000
  C   C37       1.0  0.04182  0.29128  0.31164  1.0000
  C   C38       1.0  0.95817  0.70873  0.68836  1.0000
  C   C39       1.0  0.07209  0.18767  0.22354  1.0000
  C   C40       1.0  0.92790  0.81233  0.77645  1.0000
  C   C41       1.0  0.13221  0.19094  0.13246  1.0000
  C   C42       1.0  0.86779  0.80907  0.86754  1.0000
  C   C43       1.0  0.03718  0.07889  0.22342  1.0000
  C   C44       1.0  0.96281  0.92112  0.77658  1.0000
  S   S1        1.0  0.08739  0.43045  0.32740  1.0000
  S   S2        1.0  0.91261  0.56956  0.67260  1.0000
  S   S3        1.0  0.95157  0.29566  0.41843  1.0000
  S   S4        1.0  0.04843  0.70434  0.58157  1.0000
  N   N1        1.0  0.18037  0.19478  0.05613  1.0000
  N   N2        1.0  0.81964  0.80523  0.94386  1.0000
  N   N3        1.0  0.00731  0.98862  0.22428  1.0000
  N   N4        1.0  0.99268  0.01138  0.77571  1.0000
  O   O1        1.0  0.31211  0.40129  0.95533  1.0000
  O   O2        1.0  0.68789  0.59871  0.04467  1.0000
  O   O3        1.0  0.52537  0.31607  0.06796  1.0000
  O   O4        1.0  0.47463  0.68393  0.93204  1.0000
  O   O5        1.0  0.50155  0.07757  0.92344  1.0000
  O   O6        1.0  0.49845  0.92243  0.07657  1.0000
  O   O7        1.0  0.33566  0.07289  0.69772  1.0000
  O   O8        1.0  0.66435  0.92711  0.30228  1.0000
  O   O9        1.0  0.10803  0.23819  0.72836  1.0000
  O   O10       1.0  0.89198  0.76181  0.27164  1.0000
