data_image0
_chemical_formula_structural       Al2H74C46O4
_chemical_formula_sum              "Al2 H74 C46 O4"
_cell_length_a       8.8263
_cell_length_b       11.7848
_cell_length_c       12.4106
_cell_angle_alpha    67.0723
_cell_angle_beta     73.3736
_cell_angle_gamma    77.9818

_space_group_name_H-M_alt    "P 1"
_space_group_IT_number       1

loop_
  _space_group_symop_operation_xyz
  'x, y, z'

loop_
  _atom_site_type_symbol
  _atom_site_label
  _atom_site_symmetry_multiplicity
  _atom_site_fract_x
  _atom_site_fract_y
  _atom_site_fract_z
  _atom_site_occupancy
  Al  Al1       1.0  0.11561  0.35854  0.25725  1.0000
  Al  Al2       1.0  0.88439  0.64147  0.74275  1.0000
  H   H1        1.0  0.22444  0.96853  0.00443  1.0000
  H   H2        1.0  0.77556  0.03146  0.99557  1.0000
  H   H3        1.0  0.51252  0.26860  0.83212  1.0000
  H   H4        1.0  0.48746  0.73141  0.16787  1.0000
  H   H5        1.0  0.80603  0.04792  0.28206  1.0000
  H   H6        1.0  0.19397  0.95208  0.71794  1.0000
  H   H7        1.0  0.85910  0.11715  0.12313  1.0000
  H   H8        1.0  0.14090  0.88285  0.87687  1.0000
  H   H9        1.0  0.90017  0.18591  0.21561  1.0000
  H   H10       1.0  0.09984  0.81409  0.78439  1.0000
  H   H11       1.0  0.01211  0.92979  0.40031  1.0000
  H   H12       1.0  0.98789  0.07021  0.59969  1.0000
  H   H13       1.0  0.10341  0.06835  0.34708  1.0000
  H   H14       1.0  0.89659  0.93165  0.65292  1.0000
  H   H15       1.0  0.21808  0.93101  0.33038  1.0000
  H   H16       1.0  0.78193  0.06899  0.66962  1.0000
  H   H17       1.0  0.95429  0.84719  0.27273  1.0000
  H   H18       1.0  0.04571  0.15281  0.72727  1.0000
  H   H19       1.0  0.15609  0.83593  0.19372  1.0000
  H   H20       1.0  0.84391  0.16407  0.80628  1.0000
  H   H21       1.0  0.00250  0.91219  0.11397  1.0000
  H   H22       1.0  0.99750  0.08781  0.88602  1.0000
  H   H23       1.0  0.52254  0.12989  0.73006  1.0000
  H   H24       1.0  0.47747  0.87011  0.26994  1.0000
  H   H25       1.0  0.34543  0.06158  0.76415  1.0000
  H   H26       1.0  0.65458  0.93841  0.23584  1.0000
  H   H27       1.0  0.50475  0.97503  0.83190  1.0000
  H   H28       1.0  0.49525  0.02497  0.16810  1.0000
  H   H29       1.0  0.19447  0.62297  0.14647  1.0000
  H   H30       1.0  0.80554  0.37703  0.85353  1.0000
  H   H31       1.0  0.01579  0.69745  0.09350  1.0000
  H   H32       1.0  0.98421  0.30255  0.90650  1.0000
  H   H33       1.0  0.19271  0.65630  0.99344  1.0000
  H   H34       1.0  0.80729  0.34369  0.00656  1.0000
  H   H35       1.0  0.86920  0.58633  0.05334  1.0000
  H   H36       1.0  0.13080  0.41368  0.94666  1.0000
  H   H37       1.0  0.89593  0.42143  0.11896  1.0000
  H   H38       1.0  0.10407  0.57857  0.88104  1.0000
  H   H39       1.0  0.81408  0.32546  0.32514  1.0000
  H   H40       1.0  0.18592  0.67455  0.67486  1.0000
  H   H41       1.0  0.92118  0.23184  0.43268  1.0000
  H   H42       1.0  0.07882  0.76816  0.56732  1.0000
  H   H43       1.0  0.92722  0.42299  0.48175  1.0000
  H   H44       1.0  0.07278  0.57701  0.51826  1.0000
  H   H45       1.0  0.64401  0.42469  0.59845  1.0000
  H   H46       1.0  0.35599  0.57531  0.40155  1.0000
  H   H47       1.0  0.73321  0.27183  0.60836  1.0000
  H   H48       1.0  0.26680  0.72816  0.39164  1.0000
  H   H49       1.0  0.59901  0.35020  0.51313  1.0000
  H   H50       1.0  0.40100  0.64980  0.48687  1.0000
  H   H51       1.0  0.88285  0.59031  0.29386  1.0000
  H   H52       1.0  0.11714  0.40969  0.70614  1.0000
  H   H53       1.0  0.72346  0.60548  0.41399  1.0000
  H   H54       1.0  0.27654  0.39452  0.58602  1.0000
  H   H55       1.0  0.69624  0.54161  0.31391  1.0000
  H   H56       1.0  0.30376  0.45839  0.68609  1.0000
  H   H57       1.0  0.35846  0.46603  0.23361  1.0000
  H   H58       1.0  0.64155  0.53396  0.76639  1.0000
  H   H59       1.0  0.21250  0.45802  0.36676  1.0000
  H   H60       1.0  0.78751  0.54198  0.63325  1.0000
  H   H61       1.0  0.45053  0.33086  0.42187  1.0000
  H   H62       1.0  0.54948  0.66913  0.57813  1.0000
  H   H63       1.0  0.35316  0.12784  0.54402  1.0000
  H   H64       1.0  0.64684  0.87216  0.45598  1.0000
  H   H65       1.0  0.22079  0.15280  0.45109  1.0000
  H   H66       1.0  0.77922  0.84720  0.54891  1.0000
  H   H67       1.0  0.18852  0.24481  0.54159  1.0000
  H   H68       1.0  0.81148  0.75519  0.45841  1.0000
  H   H69       1.0  0.58017  0.15527  0.35459  1.0000
  H   H70       1.0  0.41984  0.84473  0.64541  1.0000
  H   H71       1.0  0.58168  0.29632  0.22930  1.0000
  H   H72       1.0  0.41833  0.70368  0.77070  1.0000
  H   H73       1.0  0.44477  0.19082  0.26075  1.0000
  H   H74       1.0  0.55523  0.80918  0.73925  1.0000
  C   C1        1.0  0.23261  0.20068  0.10058  1.0000
  C   C2        1.0  0.76739  0.79932  0.89942  1.0000
  C   C3        1.0  0.18600  0.09103  0.10214  1.0000
  C   C4        1.0  0.81400  0.90897  0.89787  1.0000
  C   C5        1.0  0.25778  0.05245  0.00448  1.0000
  C   C6        1.0  0.74223  0.94754  0.99552  1.0000
  C   C7        1.0  0.37253  0.11486  0.90482  1.0000
  C   C8        1.0  0.62747  0.88514  0.09518  1.0000
  C   C9        1.0  0.42176  0.21828  0.90625  1.0000
  C   C10       1.0  0.57822  0.78172  0.09375  1.0000
  C   C11       1.0  0.35614  0.26062  0.00380  1.0000
  C   C12       1.0  0.64383  0.73939  0.99620  1.0000
  C   C13       1.0  0.41309  0.36322  0.00416  1.0000
  C   C14       1.0  0.58687  0.63677  0.99583  1.0000
  C   C15       1.0  0.46893  0.45218  0.00069  1.0000
  C   C16       1.0  0.53100  0.54786  0.99928  1.0000
  C   C17       1.0  0.05943  0.01884  0.20627  1.0000
  C   C18       1.0  0.94058  0.98115  0.79373  1.0000
  C   C19       1.0  0.89678  0.09784  0.20626  1.0000
  C   C20       1.0  0.10323  0.90215  0.79374  1.0000
  C   C21       1.0  0.10128  0.98556  0.32821  1.0000
  C   C22       1.0  0.89873  0.01444  0.67179  1.0000
  C   C23       1.0  0.04316  0.89675  0.19496  1.0000
  C   C24       1.0  0.95684  0.10324  0.80504  1.0000
  C   C25       1.0  0.44001  0.06811  0.80227  1.0000
  C   C26       1.0  0.55999  0.93189  0.19774  1.0000
  C   C27       1.0  0.12130  0.63004  0.08595  1.0000
  C   C28       1.0  0.87870  0.36996  0.91405  1.0000
  C   C29       1.0  0.95666  0.50401  0.06112  1.0000
  C   C30       1.0  0.04333  0.49599  0.93888  1.0000
  C   C31       1.0  0.90495  0.32802  0.36962  1.0000
  C   C32       1.0  0.09505  0.67198  0.63038  1.0000
  C   C33       1.0  0.83413  0.41467  0.44232  1.0000
  C   C34       1.0  0.16588  0.58533  0.55768  1.0000
  C   C35       1.0  0.69478  0.36273  0.54671  1.0000
  C   C36       1.0  0.30522  0.63727  0.45329  1.0000
  C   C37       1.0  0.78180  0.54515  0.36176  1.0000
  C   C38       1.0  0.21820  0.45485  0.63824  1.0000
  C   C39       1.0  0.27942  0.40337  0.30956  1.0000
  C   C40       1.0  0.72058  0.59662  0.69044  1.0000
  C   C41       1.0  0.38280  0.29444  0.38217  1.0000
  C   C42       1.0  0.61721  0.70555  0.61783  1.0000
  C   C43       1.0  0.28100  0.19997  0.48576  1.0000
  C   C44       1.0  0.71901  0.80002  0.51424  1.0000
  C   C45       1.0  0.50438  0.23056  0.30244  1.0000
  C   C46       1.0  0.49562  0.76944  0.69756  1.0000
  O   O1        1.0  0.16131  0.24724  0.18671  1.0000
  O   O2        1.0  0.83868  0.75276  0.81329  1.0000
  O   O3        1.0  0.07017  0.50852  0.12312  1.0000
  O   O4        1.0  0.92982  0.49148  0.87689  1.0000
