data_image0
_chemical_formula_structural       Zn2H36C54N8O16
_chemical_formula_sum              "Zn2 H36 C54 N8 O16"
_cell_length_a       8.44352
_cell_length_b       10.3843
_cell_length_c       14.6555
_cell_angle_alpha    92.3397
_cell_angle_beta     100.081
_cell_angle_gamma    102.324

_space_group_name_H-M_alt    "P 1"
_space_group_IT_number       1

loop_
  _space_group_symop_operation_xyz
  'x, y, z'

loop_
  _atom_site_type_symbol
  _atom_site_label
  _atom_site_symmetry_multiplicity
  _atom_site_fract_x
  _atom_site_fract_y
  _atom_site_fract_z
  _atom_site_occupancy
  Zn  Zn1       1.0  0.63956  0.96128  0.55474  1.0000
  Zn  Zn2       1.0  0.36044  0.03872  0.44526  1.0000
  H   H1        1.0  0.99857  0.05139  0.58908  1.0000
  H   H2        1.0  0.00143  0.94862  0.41093  1.0000
  H   H3        1.0  0.24360  0.01604  0.70098  1.0000
  H   H4        1.0  0.75640  0.98396  0.29902  1.0000
  H   H5        1.0  0.91202  0.72513  0.82044  1.0000
  H   H6        1.0  0.08799  0.27488  0.17956  1.0000
  H   H7        1.0  0.67822  0.77022  0.70159  1.0000
  H   H8        1.0  0.32179  0.22978  0.29841  1.0000
  H   H9        1.0  0.65850  0.02828  0.81823  1.0000
  H   H10       1.0  0.34150  0.97172  0.18176  1.0000
  H   H11       1.0  0.91797  0.01989  0.93214  1.0000
  H   H12       1.0  0.08203  0.98011  0.06785  1.0000
  H   H13       1.0  0.64964  0.76723  0.09024  1.0000
  H   H14       1.0  0.35038  0.23279  0.90977  1.0000
  H   H15       1.0  0.38090  0.76853  0.98512  1.0000
  H   H16       1.0  0.61911  0.23148  0.01489  1.0000
  H   H17       1.0  0.37693  0.64961  0.69207  1.0000
  H   H18       1.0  0.62307  0.35040  0.30793  1.0000
  H   H19       1.0  0.88494  0.42365  0.69308  1.0000
  H   H20       1.0  0.11505  0.57634  0.30691  1.0000
  H   H21       1.0  0.96671  0.71608  0.49655  1.0000
  H   H22       1.0  0.03329  0.28391  0.50345  1.0000
  H   H23       1.0  0.23299  0.54429  0.84933  1.0000
  H   H24       1.0  0.76701  0.45570  0.15067  1.0000
  H   H25       1.0  0.10658  0.38900  0.80537  1.0000
  H   H26       1.0  0.89342  0.61100  0.19463  1.0000
  H   H27       1.0  0.51329  0.54328  0.90188  1.0000
  H   H28       1.0  0.48671  0.45672  0.09811  1.0000
  H   H29       1.0  0.73359  0.25564  0.78168  1.0000
  H   H30       1.0  0.26640  0.74436  0.21832  1.0000
  H   H31       1.0  0.23828  0.27831  0.66600  1.0000
  H   H32       1.0  0.76171  0.72169  0.33399  1.0000
  H   H33       1.0  0.55736  0.58194  0.45980  1.0000
  H   H34       1.0  0.44265  0.41806  0.54020  1.0000
  H   H35       1.0  0.92180  0.57710  0.01566  1.0000
  H   H36       1.0  0.07820  0.42289  0.98434  1.0000
  C   C1        1.0  0.98543  0.98018  0.64142  1.0000
  C   C2        1.0  0.01458  0.01982  0.35858  1.0000
  C   C3        1.0  0.12004  0.96146  0.70361  1.0000
  C   C4        1.0  0.87996  0.03855  0.29639  1.0000
  C   C5        1.0  0.09527  0.86850  0.76934  1.0000
  C   C6        1.0  0.90474  0.13151  0.23067  1.0000
  C   C7        1.0  0.93494  0.79762  0.76991  1.0000
  C   C8        1.0  0.06506  0.20238  0.23010  1.0000
  C   C9        1.0  0.80587  0.82231  0.70479  1.0000
  C   C10       1.0  0.19413  0.17769  0.29521  1.0000
  C   C11       1.0  0.50248  0.89800  0.89339  1.0000
  C   C12       1.0  0.49752  0.10201  0.10661  1.0000
  C   C13       1.0  0.65478  0.96965  0.87823  1.0000
  C   C14       1.0  0.34522  0.03035  0.12177  1.0000
  C   C15       1.0  0.79711  0.96375  0.94111  1.0000
  C   C16       1.0  0.20289  0.03625  0.05888  1.0000
  C   C17       1.0  0.64753  0.82346  0.02891  1.0000
  C   C18       1.0  0.35248  0.17655  0.97110  1.0000
  C   C19       1.0  0.49819  0.82228  0.97047  1.0000
  C   C20       1.0  0.50181  0.17773  0.02953  1.0000
  C   C21       1.0  0.18387  0.69207  0.58990  1.0000
  C   C22       1.0  0.81613  0.30793  0.41010  1.0000
  C   C23       1.0  0.24475  0.62483  0.66411  1.0000
  C   C24       1.0  0.75525  0.37516  0.33589  1.0000
  C   C25       1.0  0.13890  0.52966  0.70367  1.0000
  C   C26       1.0  0.86110  0.47033  0.29633  1.0000
  C   C27       1.0  0.97061  0.49873  0.66503  1.0000
  C   C28       1.0  0.02939  0.50126  0.33497  1.0000
  C   C29       1.0  0.90809  0.56521  0.59025  1.0000
  C   C30       1.0  0.09191  0.43479  0.40974  1.0000
  C   C31       1.0  0.01465  0.66267  0.55339  1.0000
  C   C32       1.0  0.98535  0.33733  0.44661  1.0000
  C   C33       1.0  0.29784  0.79981  0.55232  1.0000
  C   C34       1.0  0.70216  0.20019  0.44768  1.0000
  C   C35       1.0  0.72794  0.53367  0.55214  1.0000
  C   C36       1.0  0.27204  0.46631  0.44787  1.0000
  C   C37       1.0  0.20490  0.46880  0.79027  1.0000
  C   C38       1.0  0.79509  0.53120  0.20972  1.0000
  C   C39       1.0  0.35656  0.41522  0.78604  1.0000
  C   C40       1.0  0.64345  0.58478  0.21396  1.0000
  C   C41       1.0  0.50393  0.46255  0.84980  1.0000
  C   C42       1.0  0.49607  0.53744  0.15020  1.0000
  C   C43       1.0  0.63964  0.40448  0.84863  1.0000
  C   C44       1.0  0.36035  0.59551  0.15137  1.0000
  C   C45       1.0  0.62854  0.30035  0.78282  1.0000
  C   C46       1.0  0.37145  0.69964  0.21718  1.0000
  C   C47       1.0  0.48454  0.25598  0.71663  1.0000
  C   C48       1.0  0.51546  0.74402  0.28337  1.0000
  C   C49       1.0  0.34957  0.31318  0.71868  1.0000
  C   C50       1.0  0.65042  0.68682  0.28132  1.0000
  C   C51       1.0  0.79673  0.44850  0.91605  1.0000
  C   C52       1.0  0.20327  0.55149  0.08395  1.0000
  C   C53       1.0  0.48147  0.15211  0.64168  1.0000
  C   C54       1.0  0.51852  0.84789  0.35832  1.0000
  N   N1        1.0  0.83048  0.91173  0.64184  1.0000
  N   N2        1.0  0.16953  0.08827  0.35817  1.0000
  N   N3        1.0  0.22692  0.84070  0.83513  1.0000
  N   N4        1.0  0.77308  0.15931  0.16487  1.0000
  N   N5        1.0  0.36396  0.91536  0.82998  1.0000
  N   N6        1.0  0.63604  0.08464  0.17003  1.0000
  N   N7        1.0  0.79483  0.89264  0.01565  1.0000
  N   N8        1.0  0.20519  0.10737  0.98434  1.0000
  O   O1        1.0  0.23124  0.86925  0.49422  1.0000
  O   O2        1.0  0.76875  0.13076  0.50579  1.0000
  O   O3        1.0  0.45207  0.81461  0.58294  1.0000
  O   O4        1.0  0.54792  0.18540  0.41706  1.0000
  O   O5        1.0  0.68356  0.60470  0.48381  1.0000
  O   O6        1.0  0.31644  0.39531  0.51618  1.0000
  O   O7        1.0  0.62907  0.44795  0.58398  1.0000
  O   O8        1.0  0.37094  0.55208  0.41602  1.0000
  O   O9        1.0  0.90993  0.38755  0.91846  1.0000
  O   O10       1.0  0.09006  0.61244  0.08155  1.0000
  O   O11       1.0  0.80735  0.55445  0.97207  1.0000
  O   O12       1.0  0.19265  0.44553  0.02794  1.0000
  O   O13       1.0  0.59688  0.09001  0.65447  1.0000
  O   O14       1.0  0.40312  0.90999  0.34553  1.0000
  O   O15       1.0  0.36487  0.13544  0.57128  1.0000
  O   O16       1.0  0.63513  0.86456  0.42872  1.0000
