data_image0
_chemical_formula_structural       Zn2H44C58N4O16
_chemical_formula_sum              "Zn2 H44 C58 N4 O16"
_cell_length_a       8.62637
_cell_length_b       12.3452
_cell_length_c       13.3248
_cell_angle_alpha    72.8999
_cell_angle_beta     80.8811
_cell_angle_gamma    85.7045

_space_group_name_H-M_alt    "P 1"
_space_group_IT_number       1

loop_
  _space_group_symop_operation_xyz
  'x, y, z'

loop_
  _atom_site_type_symbol
  _atom_site_label
  _atom_site_symmetry_multiplicity
  _atom_site_fract_x
  _atom_site_fract_y
  _atom_site_fract_z
  _atom_site_occupancy
  Zn  Zn1       1.0  0.94222  0.39320  0.24657  1.0000
  Zn  Zn2       1.0  0.05778  0.60680  0.75343  1.0000
  H   H1        1.0  0.00533  0.97054  0.58774  1.0000
  H   H2        1.0  0.99467  0.02946  0.41226  1.0000
  H   H3        1.0  0.54442  0.28196  0.18688  1.0000
  H   H4        1.0  0.45558  0.71804  0.81312  1.0000
  H   H5        1.0  0.40013  0.18283  0.36130  1.0000
  H   H6        1.0  0.59987  0.81717  0.63870  1.0000
  H   H7        1.0  0.31697  0.01468  0.69732  1.0000
  H   H8        1.0  0.68303  0.98532  0.30268  1.0000
  H   H9        1.0  0.73400  0.20675  0.56055  1.0000
  H   H10       1.0  0.26600  0.79325  0.43945  1.0000
  H   H11       1.0  0.70835  0.09215  0.73987  1.0000
  H   H12       1.0  0.29165  0.90785  0.26013  1.0000
  H   H13       1.0  0.55550  0.99409  0.79421  1.0000
  H   H14       1.0  0.44450  0.00591  0.20579  1.0000
  H   H15       1.0  0.33653  0.24364  0.70932  1.0000
  H   H16       1.0  0.66347  0.75636  0.29069  1.0000
  H   H17       1.0  0.31958  0.36113  0.98291  1.0000
  H   H18       1.0  0.68043  0.63887  0.01709  1.0000
  H   H19       1.0  0.64154  0.08862  0.94346  1.0000
  H   H20       1.0  0.35846  0.91138  0.05654  1.0000
  H   H21       1.0  0.00461  0.37371  0.46122  1.0000
  H   H22       1.0  0.99538  0.62629  0.53878  1.0000
  H   H23       1.0  0.21308  0.42428  0.54663  1.0000
  H   H24       1.0  0.78692  0.57572  0.45336  1.0000
  H   H25       1.0  0.49589  0.51681  0.23635  1.0000
  H   H26       1.0  0.50411  0.48319  0.76365  1.0000
  H   H27       1.0  0.27591  0.46094  0.16488  1.0000
  H   H28       1.0  0.72409  0.53907  0.83512  1.0000
  H   H29       1.0  0.13572  0.18141  0.25186  1.0000
  H   H30       1.0  0.86428  0.81859  0.74814  1.0000
  H   H31       1.0  0.51746  0.60692  0.40481  1.0000
  H   H32       1.0  0.48254  0.39308  0.59519  1.0000
  H   H33       1.0  0.61747  0.47812  0.40769  1.0000
  H   H34       1.0  0.38253  0.52189  0.59231  1.0000
  H   H35       1.0  0.17033  0.03901  0.15087  1.0000
  H   H36       1.0  0.82967  0.96099  0.84913  1.0000
  H   H37       1.0  0.17321  0.02379  0.95362  1.0000
  H   H38       1.0  0.82679  0.97621  0.04638  1.0000
  H   H39       1.0  0.01151  0.09011  0.89082  1.0000
  H   H40       1.0  0.98849  0.90989  0.10918  1.0000
  H   H41       1.0  0.90018  0.26386  0.92389  1.0000
  H   H42       1.0  0.09982  0.73614  0.07610  1.0000
  H   H43       1.0  0.87356  0.39765  0.03580  1.0000
  H   H44       1.0  0.12644  0.60235  0.96420  1.0000
  C   C1        1.0  0.57842  0.20180  0.45150  1.0000
  C   C2        1.0  0.42158  0.79820  0.54850  1.0000
  C   C3        1.0  0.43681  0.16254  0.43940  1.0000
  C   C4        1.0  0.56319  0.83746  0.56060  1.0000
  C   C5        1.0  0.34210  0.09620  0.52817  1.0000
  C   C6        1.0  0.65790  0.90380  0.47183  1.0000
  C   C7        1.0  0.38959  0.06842  0.62894  1.0000
  C   C8        1.0  0.61041  0.93158  0.37106  1.0000
  C   C9        1.0  0.53061  0.10824  0.64185  1.0000
  C   C10       1.0  0.46939  0.89176  0.35815  1.0000
  C   C11       1.0  0.62317  0.17503  0.55277  1.0000
  C   C12       1.0  0.37683  0.82497  0.44723  1.0000
  C   C13       1.0  0.58049  0.08268  0.74970  1.0000
  C   C14       1.0  0.41951  0.91732  0.25030  1.0000
  C   C15       1.0  0.50151  0.15776  0.81605  1.0000
  C   C16       1.0  0.49849  0.84223  0.18395  1.0000
  C   C17       1.0  0.38116  0.23600  0.78319  1.0000
  C   C18       1.0  0.61884  0.76400  0.21681  1.0000
  C   C19       1.0  0.31550  0.30904  0.84255  1.0000
  C   C20       1.0  0.68450  0.69096  0.15745  1.0000
  C   C21       1.0  0.36875  0.30313  0.93771  1.0000
  C   C22       1.0  0.63125  0.69688  0.06229  1.0000
  C   C23       1.0  0.48481  0.22183  0.97410  1.0000
  C   C24       1.0  0.51519  0.77817  0.02591  1.0000
  C   C25       1.0  0.55040  0.15024  0.91317  1.0000
  C   C26       1.0  0.44960  0.84975  0.08683  1.0000
  C   C27       1.0  0.68337  0.27175  0.35807  1.0000
  C   C28       1.0  0.31663  0.72825  0.64193  1.0000
  C   C29       1.0  0.19241  0.05471  0.51425  1.0000
  C   C30       1.0  0.80760  0.94529  0.48575  1.0000
  C   C31       1.0  0.19621  0.39751  0.79728  1.0000
  C   C32       1.0  0.80379  0.60249  0.20272  1.0000
  C   C33       1.0  0.54345  0.20893  0.07660  1.0000
  C   C34       1.0  0.45655  0.79107  0.92340  1.0000
  C   C35       1.0  0.11591  0.40605  0.41471  1.0000
  C   C36       1.0  0.88409  0.59395  0.58529  1.0000
  C   C37       1.0  0.23364  0.43539  0.46127  1.0000
  C   C38       1.0  0.76636  0.56461  0.53872  1.0000
  C   C39       1.0  0.37402  0.47804  0.39797  1.0000
  C   C40       1.0  0.62599  0.52196  0.60203  1.0000
  C   C41       1.0  0.38848  0.48697  0.28939  1.0000
  C   C42       1.0  0.61153  0.51303  0.71061  1.0000
  C   C43       1.0  0.26633  0.45574  0.24876  1.0000
  C   C44       1.0  0.73367  0.54426  0.75124  1.0000
  C   C45       1.0  0.50727  0.51449  0.43995  1.0000
  C   C46       1.0  0.49273  0.48551  0.56005  1.0000
  C   C47       1.0  0.08538  0.19636  0.17873  1.0000
  C   C48       1.0  0.91463  0.80364  0.82126  1.0000
  C   C49       1.0  0.10352  0.11742  0.12200  1.0000
  C   C50       1.0  0.89648  0.88258  0.87800  1.0000
  C   C51       1.0  0.03632  0.13877  0.02881  1.0000
  C   C52       1.0  0.96368  0.86123  0.97119  1.0000
  C   C53       1.0  0.04989  0.05213  0.96881  1.0000
  C   C54       1.0  0.95011  0.94787  0.03119  1.0000
  C   C55       1.0  0.95358  0.24189  0.99646  1.0000
  C   C56       1.0  0.04642  0.75811  0.00354  1.0000
  C   C57       1.0  0.93901  0.31717  0.05726  1.0000
  C   C58       1.0  0.06099  0.68283  0.94274  1.0000
  N   N1        1.0  0.13092  0.41620  0.31016  1.0000
  N   N2        1.0  0.86908  0.58380  0.68984  1.0000
  N   N3        1.0  0.00311  0.29469  0.14735  1.0000
  N   N4        1.0  0.99690  0.70531  0.85265  1.0000
  O   O1        1.0  0.81052  0.30510  0.37831  1.0000
  O   O2        1.0  0.18948  0.69490  0.62169  1.0000
  O   O3        1.0  0.64767  0.29695  0.26599  1.0000
  O   O4        1.0  0.35233  0.70306  0.73402  1.0000
  O   O5        1.0  0.15124  0.07287  0.42464  1.0000
  O   O6        1.0  0.84876  0.92713  0.57536  1.0000
  O   O7        1.0  0.10720  0.99795  0.60305  1.0000
  O   O8        1.0  0.89280  0.00205  0.39695  1.0000
  O   O9        1.0  0.14458  0.39638  0.71498  1.0000
  O   O10       1.0  0.85543  0.60362  0.28502  1.0000
  O   O11       1.0  0.15856  0.47483  0.84617  1.0000
  O   O12       1.0  0.84144  0.52517  0.15383  1.0000
  O   O13       1.0  0.48856  0.28945  0.12276  1.0000
  O   O14       1.0  0.51143  0.71056  0.87724  1.0000
  O   O15       1.0  0.63404  0.13069  0.11450  1.0000
  O   O16       1.0  0.36596  0.86931  0.88551  1.0000
