data_image0
_chemical_formula_structural       Zn2H40C58N4O16
_chemical_formula_sum              "Zn2 H40 C58 N4 O16"
_cell_length_a       9.59588
_cell_length_b       11.5782
_cell_length_c       13.1902
_cell_angle_alpha    112.501
_cell_angle_beta     96.8099
_cell_angle_gamma    97.1158

_space_group_name_H-M_alt    "P 1"
_space_group_IT_number       1

loop_
  _space_group_symop_operation_xyz
  'x, y, z'

loop_
  _atom_site_type_symbol
  _atom_site_label
  _atom_site_symmetry_multiplicity
  _atom_site_fract_x
  _atom_site_fract_y
  _atom_site_fract_z
  _atom_site_occupancy
  Zn  Zn1       1.0  0.95582  0.89765  0.74648  1.0000
  Zn  Zn2       1.0  0.04418  0.10235  0.25352  1.0000
  H   H1        1.0  0.70195  0.70820  0.40912  1.0000
  H   H2        1.0  0.29805  0.29180  0.59087  1.0000
  H   H3        1.0  0.25833  0.53286  0.27915  1.0000
  H   H4        1.0  0.74167  0.46714  0.72085  1.0000
  H   H5        1.0  0.42818  0.65762  0.62894  1.0000
  H   H6        1.0  0.57182  0.34238  0.37106  1.0000
  H   H7        1.0  0.62540  0.61226  0.21524  1.0000
  H   H8        1.0  0.37460  0.38774  0.78476  1.0000
  H   H9        1.0  0.46613  0.49935  0.15755  1.0000
  H   H10       1.0  0.53387  0.50065  0.84245  1.0000
  H   H11       1.0  0.58541  0.64386  0.03852  1.0000
  H   H12       1.0  0.41459  0.35614  0.96147  1.0000
  H   H13       1.0  0.29798  0.89598  0.02225  1.0000
  H   H14       1.0  0.70202  0.10403  0.97775  1.0000
  H   H15       1.0  0.29616  0.74455  0.27210  1.0000
  H   H16       1.0  0.70384  0.25545  0.72790  1.0000
  H   H17       1.0  0.27339  0.94812  0.82474  1.0000
  H   H18       1.0  0.72661  0.05188  0.17526  1.0000
  H   H19       1.0  0.48898  0.97741  0.74672  1.0000
  H   H20       1.0  0.51102  0.02259  0.25328  1.0000
  H   H21       1.0  0.21097  0.94692  0.44856  1.0000
  H   H22       1.0  0.78903  0.05308  0.55144  1.0000
  H   H23       1.0  0.00654  0.91644  0.53969  1.0000
  H   H24       1.0  0.99346  0.08357  0.46031  1.0000
  H   H25       1.0  0.59914  0.98999  0.59612  1.0000
  H   H26       1.0  0.40086  0.01001  0.40388  1.0000
  H   H27       1.0  0.87143  0.86435  0.94148  1.0000
  H   H28       1.0  0.12857  0.13565  0.05852  1.0000
  H   H29       1.0  0.88146  0.70706  0.02579  1.0000
  H   H30       1.0  0.11855  0.29294  0.97421  1.0000
  H   H31       1.0  0.17599  0.54646  0.80904  1.0000
  H   H32       1.0  0.82401  0.45353  0.19096  1.0000
  H   H33       1.0  0.15658  0.71329  0.73642  1.0000
  H   H34       1.0  0.84342  0.28671  0.26358  1.0000
  H   H35       1.0  0.11035  0.44638  0.92726  1.0000
  H   H36       1.0  0.88965  0.55361  0.07274  1.0000
  H   H37       1.0  0.07716  0.51069  0.57571  1.0000
  H   H38       1.0  0.92284  0.48931  0.42429  1.0000
  H   H39       1.0  0.62128  0.72455  0.81416  1.0000
  H   H40       1.0  0.37872  0.27545  0.18584  1.0000
  C   C1        1.0  0.57690  0.68852  0.52800  1.0000
  C   C2        1.0  0.42310  0.31148  0.47200  1.0000
  C   C3        1.0  0.59583  0.67529  0.42063  1.0000
  C   C4        1.0  0.40417  0.32471  0.57937  1.0000
  C   C5        1.0  0.48322  0.61898  0.32935  1.0000
  C   C6        1.0  0.51678  0.38102  0.67065  1.0000
  C   C7        1.0  0.34862  0.57857  0.34814  1.0000
  C   C8        1.0  0.65138  0.42143  0.65186  1.0000
  C   C9        1.0  0.32782  0.59352  0.45573  1.0000
  C   C10       1.0  0.67218  0.40648  0.54427  1.0000
  C   C11       1.0  0.44263  0.64704  0.54547  1.0000
  C   C12       1.0  0.55737  0.35296  0.45453  1.0000
  C   C13       1.0  0.50943  0.59942  0.21374  1.0000
  C   C14       1.0  0.49057  0.40058  0.78626  1.0000
  C   C15       1.0  0.44840  0.68362  0.16220  1.0000
  C   C16       1.0  0.55160  0.31638  0.83780  1.0000
  C   C17       1.0  0.50052  0.69421  0.07041  1.0000
  C   C18       1.0  0.49948  0.30579  0.92959  1.0000
  C   C19       1.0  0.44570  0.76909  0.01898  1.0000
  C   C20       1.0  0.55429  0.23091  0.98102  1.0000
  C   C21       1.0  0.33862  0.83572  0.06041  1.0000
  C   C22       1.0  0.66138  0.16428  0.93959  1.0000
  C   C23       1.0  0.28506  0.82538  0.15083  1.0000
  C   C24       1.0  0.71494  0.17462  0.84917  1.0000
  C   C25       1.0  0.33973  0.74929  0.20088  1.0000
  C   C26       1.0  0.66027  0.25071  0.79912  1.0000
  C   C27       1.0  0.70004  0.74622  0.62393  1.0000
  C   C28       1.0  0.29996  0.25378  0.37607  1.0000
  C   C29       1.0  0.18368  0.55135  0.47315  1.0000
  C   C30       1.0  0.81632  0.44865  0.52685  1.0000
  C   C31       1.0  0.49416  0.78028  0.91918  1.0000
  C   C32       1.0  0.50584  0.21972  0.08082  1.0000
  C   C33       1.0  0.17364  0.89968  0.19862  1.0000
  C   C34       1.0  0.82635  0.10033  0.80138  1.0000
  C   C35       1.0  0.26393  0.95104  0.74271  1.0000
  C   C36       1.0  0.73607  0.04896  0.25729  1.0000
  C   C37       1.0  0.38487  0.96766  0.69829  1.0000
  C   C38       1.0  0.61513  0.03234  0.30171  1.0000
  C   C39       1.0  0.37108  0.97014  0.59191  1.0000
  C   C40       1.0  0.62892  0.02986  0.40809  1.0000
  C   C41       1.0  0.23157  0.95161  0.53338  1.0000
  C   C42       1.0  0.76843  0.04839  0.46662  1.0000
  C   C43       1.0  0.11608  0.93348  0.58272  1.0000
  C   C44       1.0  0.88392  0.06652  0.41728  1.0000
  C   C45       1.0  0.49897  0.99013  0.54721  1.0000
  C   C46       1.0  0.50103  0.00987  0.45279  1.0000
  C   C47       1.0  0.93780  0.79226  0.91547  1.0000
  C   C48       1.0  0.06220  0.20774  0.08453  1.0000
  C   C49       1.0  0.94326  0.70300  0.96087  1.0000
  C   C50       1.0  0.05674  0.29700  0.03913  1.0000
  C   C51       1.0  0.02809  0.60973  0.92267  1.0000
  C   C52       1.0  0.97191  0.39027  0.07732  1.0000
  C   C53       1.0  0.10757  0.61550  0.84140  1.0000
  C   C54       1.0  0.89243  0.38450  0.15860  1.0000
  C   C55       1.0  0.09691  0.70813  0.80019  1.0000
  C   C56       1.0  0.90308  0.29187  0.19981  1.0000
  C   C57       1.0  0.03717  0.50982  0.96278  1.0000
  C   C58       1.0  0.96283  0.49017  0.03722  1.0000
  N   N1        1.0  0.13127  0.93403  0.68622  1.0000
  N   N2        1.0  0.86873  0.06598  0.31378  1.0000
  N   N3        1.0  0.01179  0.79415  0.83505  1.0000
  N   N4        1.0  0.98821  0.20585  0.16495  1.0000
  O   O1        1.0  0.81512  0.79922  0.60521  1.0000
  O   O2        1.0  0.18489  0.20078  0.39479  1.0000
  O   O3        1.0  0.68916  0.74216  0.71665  1.0000
  O   O4        1.0  0.31084  0.25784  0.28335  1.0000
  O   O5        1.0  0.18080  0.53967  0.56917  1.0000
  O   O6        1.0  0.81920  0.46033  0.43082  1.0000
  O   O7        1.0  0.07393  0.52922  0.40267  1.0000
  O   O8        1.0  0.92607  0.47078  0.59733  1.0000
  O   O9        1.0  0.59644  0.71370  0.88333  1.0000
  O   O10       1.0  0.40356  0.28630  0.11667  1.0000
  O   O11       1.0  0.44258  0.84329  0.87259  1.0000
  O   O12       1.0  0.55741  0.15671  0.12740  1.0000
  O   O13       1.0  0.12629  0.89034  0.28015  1.0000
  O   O14       1.0  0.87371  0.10966  0.71985  1.0000
  O   O15       1.0  0.13552  0.97419  0.15176  1.0000
  O   O16       1.0  0.86448  0.02581  0.84824  1.0000
