data_image0
_chemical_formula_structural       Zn4H20C20S4N20O16
_chemical_formula_sum              "Zn4 H20 C20 S4 N20 O16"
_cell_length_a       8.96861
_cell_length_b       9.0076
_cell_length_c       10.7237
_cell_angle_alpha    90
_cell_angle_beta     90
_cell_angle_gamma    98.6401

_space_group_name_H-M_alt    "P 1"
_space_group_IT_number       1

loop_
  _space_group_symop_operation_xyz
  'x, y, z'

loop_
  _atom_site_type_symbol
  _atom_site_label
  _atom_site_symmetry_multiplicity
  _atom_site_fract_x
  _atom_site_fract_y
  _atom_site_fract_z
  _atom_site_occupancy
  Zn  Zn1       1.0  0.14662  0.81795  0.34988  1.0000
  Zn  Zn2       1.0  0.85338  0.68205  0.84988  1.0000
  Zn  Zn3       1.0  0.85338  0.18205  0.65012  1.0000
  Zn  Zn4       1.0  0.14662  0.31795  0.15012  1.0000
  H   H1        1.0  0.59993  0.28511  0.24754  1.0000
  H   H2        1.0  0.40007  0.21489  0.74754  1.0000
  H   H3        1.0  0.40007  0.71489  0.75246  1.0000
  H   H4        1.0  0.59993  0.78511  0.25246  1.0000
  H   H5        1.0  0.57971  0.26746  0.03594  1.0000
  H   H6        1.0  0.42029  0.23254  0.53594  1.0000
  H   H7        1.0  0.42029  0.73254  0.96406  1.0000
  H   H8        1.0  0.57971  0.76746  0.46406  1.0000
  H   H9        1.0  0.68825  0.39445  0.93574  1.0000
  H   H10       1.0  0.31175  0.10555  0.43574  1.0000
  H   H11       1.0  0.31175  0.60555  0.06426  1.0000
  H   H12       1.0  0.68825  0.89445  0.56426  1.0000
  H   H13       1.0  0.08758  0.83858  0.04413  1.0000
  H   H14       1.0  0.91242  0.66141  0.54413  1.0000
  H   H15       1.0  0.91242  0.16141  0.95587  1.0000
  H   H16       1.0  0.08758  0.33859  0.45587  1.0000
  H   H17       1.0  0.69566  0.39233  0.43310  1.0000
  H   H18       1.0  0.30434  0.10767  0.93310  1.0000
  H   H19       1.0  0.30434  0.60767  0.56691  1.0000
  H   H20       1.0  0.69566  0.89233  0.06691  1.0000
  C   C1        1.0  0.01036  0.75241  0.09202  1.0000
  C   C2        1.0  0.98964  0.74759  0.59202  1.0000
  C   C3        1.0  0.98964  0.24759  0.90798  1.0000
  C   C4        1.0  0.01036  0.25241  0.40798  1.0000
  C   C5        1.0  0.83478  0.56188  0.12209  1.0000
  C   C6        1.0  0.16522  0.93812  0.62209  1.0000
  C   C7        1.0  0.16522  0.43812  0.87791  1.0000
  C   C8        1.0  0.83478  0.06188  0.37791  1.0000
  C   C9        1.0  0.72213  0.43344  0.12266  1.0000
  C   C10       1.0  0.27787  0.06656  0.62266  1.0000
  C   C11       1.0  0.27787  0.56656  0.87734  1.0000
  C   C12       1.0  0.72213  0.93344  0.37734  1.0000
  C   C13       1.0  0.74203  0.44414  0.34695  1.0000
  C   C14       1.0  0.25797  0.05586  0.84695  1.0000
  C   C15       1.0  0.25797  0.55586  0.65305  1.0000
  C   C16       1.0  0.74203  0.94414  0.15305  1.0000
  C   C17       1.0  0.89437  0.61442  0.23794  1.0000
  C   C18       1.0  0.10563  0.88558  0.73795  1.0000
  C   C19       1.0  0.10563  0.38558  0.76206  1.0000
  C   C20       1.0  0.89437  0.11442  0.26206  1.0000
  S   S1        1.0  0.35603  0.06331  0.19650  1.0000
  S   S2        1.0  0.64397  0.43668  0.69650  1.0000
  S   S3        1.0  0.64397  0.93668  0.80349  1.0000
  S   S4        1.0  0.35603  0.56332  0.30349  1.0000
  N   N1        1.0  0.00539  0.73368  0.21733  1.0000
  N   N2        1.0  0.99461  0.76632  0.71733  1.0000
  N   N3        1.0  0.99461  0.26632  0.78267  1.0000
  N   N4        1.0  0.00539  0.23368  0.28267  1.0000
  N   N5        1.0  0.90954  0.65272  0.02978  1.0000
  N   N6        1.0  0.09046  0.84728  0.52978  1.0000
  N   N7        1.0  0.09046  0.34728  0.97022  1.0000
  N   N8        1.0  0.90954  0.15272  0.47022  1.0000
  N   N9        1.0  0.68326  0.38044  0.23977  1.0000
  N   N10       1.0  0.31674  0.11956  0.73977  1.0000
  N   N11       1.0  0.31674  0.61956  0.76023  1.0000
  N   N12       1.0  0.68326  0.88044  0.26023  1.0000
  N   N13       1.0  0.84988  0.55987  0.35168  1.0000
  N   N14       1.0  0.15012  0.94013  0.85168  1.0000
  N   N15       1.0  0.15012  0.44013  0.64832  1.0000
  N   N16       1.0  0.84988  0.05987  0.14832  1.0000
  N   N17       1.0  0.65555  0.36226  0.02505  1.0000
  N   N18       1.0  0.34445  0.13775  0.52505  1.0000
  N   N19       1.0  0.34445  0.63774  0.97495  1.0000
  N   N20       1.0  0.65555  0.86225  0.47495  1.0000
  O   O1        1.0  0.23641  0.02414  0.29789  1.0000
  O   O2        1.0  0.76359  0.47586  0.79789  1.0000
  O   O3        1.0  0.76359  0.97586  0.70211  1.0000
  O   O4        1.0  0.23641  0.52414  0.20211  1.0000
  O   O5        1.0  0.36380  0.93330  0.11764  1.0000
  O   O6        1.0  0.63620  0.56670  0.61764  1.0000
  O   O7        1.0  0.63619  0.06669  0.88236  1.0000
  O   O8        1.0  0.36381  0.43331  0.38236  1.0000
  O   O9        1.0  0.30757  0.18997  0.12077  1.0000
  O   O10       1.0  0.69243  0.31003  0.62077  1.0000
  O   O11       1.0  0.69243  0.81003  0.87923  1.0000
  O   O12       1.0  0.30757  0.68997  0.37923  1.0000
  O   O13       1.0  0.49937  0.12055  0.25961  1.0000
  O   O14       1.0  0.50063  0.37945  0.75961  1.0000
  O   O15       1.0  0.50063  0.87945  0.74038  1.0000
  O   O16       1.0  0.49937  0.62055  0.24038  1.0000
