data_image0
_chemical_formula_structural       Cu2H20C12N4O10
_chemical_formula_sum              "Cu2 H20 C12 N4 O10"
_cell_length_a       7.6203
_cell_length_b       7.05836
_cell_length_c       9.36155
_cell_angle_alpha    112.338
_cell_angle_beta     114.368
_cell_angle_gamma    89.611

_space_group_name_H-M_alt    "P 1"
_space_group_IT_number       1

loop_
  _space_group_symop_operation_xyz
  'x, y, z'

loop_
  _atom_site_type_symbol
  _atom_site_label
  _atom_site_symmetry_multiplicity
  _atom_site_fract_x
  _atom_site_fract_y
  _atom_site_fract_z
  _atom_site_occupancy
  Cu  Cu1       1.0  0.81572  0.81469  0.62995  1.0000
  Cu  Cu2       1.0  0.18527  0.18446  0.36976  1.0000
  H   H1        1.0  0.39279  0.44836  0.78625  1.0000
  H   H2        1.0  0.60912  0.66115  0.21379  1.0000
  H   H3        1.0  0.44054  0.72741  0.88456  1.0000
  H   H4        1.0  0.55698  0.84151  0.11519  1.0000
  H   H5        1.0  0.61841  0.47133  0.45830  1.0000
  H   H6        1.0  0.38261  0.01380  0.54363  1.0000
  H   H7        1.0  0.16220  0.01254  0.54134  1.0000
  H   H8        1.0  0.83682  0.46959  0.45653  1.0000
  H   H9        1.0  0.88213  0.96865  0.99966  1.0000
  H   H10       1.0  0.11889  0.96771  0.00035  1.0000
  H   H11       1.0  0.64666  0.13059  0.84422  1.0000
  H   H12       1.0  0.35386  0.28455  0.15617  1.0000
  H   H13       1.0  0.80246  0.28626  0.15506  1.0000
  H   H14       1.0  0.19783  0.12890  0.84495  1.0000
  H   H15       1.0  0.70473  0.25463  0.73042  1.0000
  H   H16       1.0  0.29455  0.52317  0.26985  1.0000
  H   H17       1.0  0.97514  0.52421  0.26939  1.0000
  H   H18       1.0  0.02424  0.25346  0.73082  1.0000
  H   H19       1.0  0.94133  0.56912  0.88511  1.0000
  H   H20       1.0  0.05687  0.68422  0.11505  1.0000
  C   C1        1.0  0.49987  0.59002  0.66700  1.0000
  C   C2        1.0  0.50146  0.92258  0.33436  1.0000
  C   C3        1.0  0.83613  0.92247  0.33244  1.0000
  C   C4        1.0  0.16357  0.58910  0.66578  1.0000
  C   C5        1.0  0.37996  0.59020  0.76264  1.0000
  C   C6        1.0  0.62006  0.82656  0.23715  1.0000
  C   C7        1.0  0.00040  0.05597  0.00003  1.0000
  C   C8        1.0  0.76293  0.22348  0.84605  1.0000
  C   C9        1.0  0.23692  0.37633  0.15417  1.0000
  C   C10       1.0  0.91717  0.37739  0.15363  1.0000
  C   C11       1.0  0.08266  0.22239  0.84657  1.0000
  C   C12       1.0  0.99935  0.53627  0.00011  1.0000
  N   N1        1.0  0.92058  0.09570  0.84115  1.0000
  N   N2        1.0  0.07988  0.25465  0.15898  1.0000
  N   N3        1.0  0.84010  0.41876  0.99986  1.0000
  N   N4        1.0  0.15927  0.41771  0.00039  1.0000
  O   O1        1.0  0.63961  0.74214  0.74131  1.0000
  O   O2        1.0  0.35886  0.99927  0.26022  1.0000
  O   O3        1.0  0.90041  0.00203  0.25847  1.0000
  O   O4        1.0  0.09619  0.74132  0.73984  1.0000
  O   O5        1.0  0.45864  0.43787  0.52203  1.0000
  O   O6        1.0  0.54573  0.91766  0.48034  1.0000
  O   O7        1.0  0.94087  0.91428  0.47661  1.0000
  O   O8        1.0  0.06107  0.43758  0.52081  1.0000
  O   O9        1.0  0.71489  0.53475  0.43293  1.0000
  O   O10       1.0  0.28428  0.10201  0.56681  1.0000
