data_image0
_chemical_formula_structural       Zn2H20C12N4O10
_chemical_formula_sum              "Zn2 H20 C12 N4 O10"
_cell_length_a       7.0487
_cell_length_b       7.56979
_cell_length_c       9.3849
_cell_angle_alpha    113.806
_cell_angle_beta     112.064
_cell_angle_gamma    89.9982

_space_group_name_H-M_alt    "P 1"
_space_group_IT_number       1

loop_
  _space_group_symop_operation_xyz
  'x, y, z'

loop_
  _atom_site_type_symbol
  _atom_site_label
  _atom_site_symmetry_multiplicity
  _atom_site_fract_x
  _atom_site_fract_y
  _atom_site_fract_z
  _atom_site_occupancy
  Zn  Zn1       1.0  0.83140  0.80647  0.61297  1.0000
  Zn  Zn2       1.0  0.21850  0.19348  0.38703  1.0000
  H   H1        1.0  0.88558  0.56074  0.12168  1.0000
  H   H2        1.0  0.76404  0.43921  0.87839  1.0000
  H   H3        1.0  0.68717  0.60014  0.20051  1.0000
  H   H4        1.0  0.48675  0.39979  0.79957  1.0000
  H   H5        1.0  0.99797  0.11851  0.00010  1.0000
  H   H6        1.0  0.99792  0.88164  0.00006  1.0000
  H   H7        1.0  0.16253  0.64589  0.84636  1.0000
  H   H8        1.0  0.31625  0.35415  0.15360  1.0000
  H   H9        1.0  0.31631  0.79953  0.15353  1.0000
  H   H10       1.0  0.16255  0.20043  0.84635  1.0000
  H   H11       1.0  0.28584  0.70707  0.73312  1.0000
  H   H12       1.0  0.55292  0.29295  0.26672  1.0000
  H   H13       1.0  0.55297  0.97400  0.26664  1.0000
  H   H14       1.0  0.28596  0.02587  0.73319  1.0000
  H   H15       1.0  0.60174  0.94302  0.88596  1.0000
  H   H16       1.0  0.71565  0.05703  0.11395  1.0000
  H   H17       1.0  0.46672  0.61381  0.44409  1.0000
  H   H18       1.0  0.02279  0.38621  0.55600  1.0000
  H   H19       1.0  0.02290  0.17000  0.55612  1.0000
  H   H20       1.0  0.46675  0.83004  0.44397  1.0000
  C   C1        1.0  0.94201  0.49888  0.33588  1.0000
  C   C2        1.0  0.60622  0.50111  0.66420  1.0000
  C   C3        1.0  0.60619  0.16305  0.66409  1.0000
  C   C4        1.0  0.94201  0.83695  0.33595  1.0000
  C   C5        1.0  0.85620  0.61829  0.23672  1.0000
  C   C6        1.0  0.61958  0.38169  0.76336  1.0000
  C   C7        1.0  0.08690  0.00004  0.00003  1.0000
  C   C8        1.0  0.25445  0.76427  0.84811  1.0000
  C   C9        1.0  0.40641  0.23575  0.15181  1.0000
  C   C10       1.0  0.40644  0.91618  0.15175  1.0000
  C   C11       1.0  0.25448  0.08379  0.84814  1.0000
  C   C12       1.0  0.56821  0.00001  0.99993  1.0000
  N   N1        1.0  0.12636  0.92122  0.84249  1.0000
  N   N2        1.0  0.28402  0.07881  0.15752  1.0000
  N   N3        1.0  0.45049  0.83898  0.99989  1.0000
  N   N4        1.0  0.45049  0.16102  0.99995  1.0000
  O   O1        1.0  0.92765  0.54658  0.47864  1.0000
  O   O2        1.0  0.44899  0.45346  0.52146  1.0000
  O   O3        1.0  0.44906  0.06791  0.52127  1.0000
  O   O4        1.0  0.92774  0.93208  0.47875  1.0000
  O   O5        1.0  0.02046  0.35431  0.26943  1.0000
  O   O6        1.0  0.75112  0.64564  0.73063  1.0000
  O   O7        1.0  0.75103  0.08494  0.73054  1.0000
  O   O8        1.0  0.02038  0.91506  0.26948  1.0000
  O   O9        1.0  0.52446  0.70595  0.41220  1.0000
  O   O10       1.0  0.11242  0.29405  0.58787  1.0000
