data_image0
_chemical_formula_structural       Nd8H48C32S4O56
_chemical_formula_sum              "Nd8 H48 C32 S4 O56"
_cell_length_a       9.4815
_cell_length_b       12.7358
_cell_length_c       12.9522
_cell_angle_alpha    110.216
_cell_angle_beta     90
_cell_angle_gamma    90

_space_group_name_H-M_alt    "P 1"
_space_group_IT_number       1

loop_
  _space_group_symop_operation_xyz
  'x, y, z'

loop_
  _atom_site_type_symbol
  _atom_site_label
  _atom_site_symmetry_multiplicity
  _atom_site_fract_x
  _atom_site_fract_y
  _atom_site_fract_z
  _atom_site_occupancy
  Nd  Nd1       1.0  0.16149  0.04184  0.61559  1.0000
  Nd  Nd2       1.0  0.66149  0.45816  0.88441  1.0000
  Nd  Nd3       1.0  0.83851  0.95816  0.38441  1.0000
  Nd  Nd4       1.0  0.33851  0.54184  0.11559  1.0000
  Nd  Nd5       1.0  0.36497  0.94751  0.86820  1.0000
  Nd  Nd6       1.0  0.86497  0.55249  0.63180  1.0000
  Nd  Nd7       1.0  0.63503  0.05249  0.13180  1.0000
  Nd  Nd8       1.0  0.13503  0.44751  0.36820  1.0000
  H   H1        1.0  0.23758  0.86035  0.21552  1.0000
  H   H2        1.0  0.73758  0.63965  0.28448  1.0000
  H   H3        1.0  0.76242  0.13965  0.78448  1.0000
  H   H4        1.0  0.26242  0.36035  0.71552  1.0000
  H   H5        1.0  0.38304  0.95125  0.25860  1.0000
  H   H6        1.0  0.88304  0.54875  0.24140  1.0000
  H   H7        1.0  0.61696  0.04875  0.74140  1.0000
  H   H8        1.0  0.11696  0.45125  0.75860  1.0000
  H   H9        1.0  0.08610  0.01798  0.20283  1.0000
  H   H10       1.0  0.58610  0.48202  0.29717  1.0000
  H   H11       1.0  0.91390  0.98202  0.79717  1.0000
  H   H12       1.0  0.41390  0.51798  0.70283  1.0000
  H   H13       1.0  0.22670  0.11343  0.25416  1.0000
  H   H14       1.0  0.72670  0.38657  0.24584  1.0000
  H   H15       1.0  0.77330  0.88657  0.74584  1.0000
  H   H16       1.0  0.27330  0.61343  0.75416  1.0000
  H   H17       1.0  0.19844  0.20168  0.00869  1.0000
  H   H18       1.0  0.69844  0.29832  0.49131  1.0000
  H   H19       1.0  0.80156  0.79832  0.99131  1.0000
  H   H20       1.0  0.30156  0.70168  0.50869  1.0000
  H   H21       1.0  0.03863  0.13023  0.00894  1.0000
  H   H22       1.0  0.53863  0.36977  0.49106  1.0000
  H   H23       1.0  0.96137  0.86977  0.99106  1.0000
  H   H24       1.0  0.46137  0.63023  0.50894  1.0000
  H   H25       1.0  0.89674  0.28882  0.00611  1.0000
  H   H26       1.0  0.39674  0.21117  0.49389  1.0000
  H   H27       1.0  0.10326  0.71117  0.99389  1.0000
  H   H28       1.0  0.60326  0.78883  0.50611  1.0000
  H   H29       1.0  0.04448  0.35605  0.96980  1.0000
  H   H30       1.0  0.54448  0.14395  0.53020  1.0000
  H   H31       1.0  0.95552  0.64395  0.03020  1.0000
  H   H32       1.0  0.45552  0.85605  0.46980  1.0000
  H   H33       1.0  0.41992  0.22227  0.69695  1.0000
  H   H34       1.0  0.91992  0.27773  0.80305  1.0000
  H   H35       1.0  0.58008  0.77773  0.30305  1.0000
  H   H36       1.0  0.08008  0.72227  0.19695  1.0000
  H   H37       1.0  0.37414  0.17350  0.78745  1.0000
  H   H38       1.0  0.87414  0.32650  0.71255  1.0000
  H   H39       1.0  0.62586  0.82650  0.21255  1.0000
  H   H40       1.0  0.12586  0.67350  0.28745  1.0000
  H   H41       1.0  0.12950  0.76082  0.78218  1.0000
  H   H42       1.0  0.62950  0.73918  0.71782  1.0000
  H   H43       1.0  0.87050  0.23918  0.21782  1.0000
  H   H44       1.0  0.37050  0.26082  0.28218  1.0000
  H   H45       1.0  0.16127  0.81168  0.68879  1.0000
  H   H46       1.0  0.66127  0.68832  0.81121  1.0000
  H   H47       1.0  0.83873  0.18832  0.31121  1.0000
  H   H48       1.0  0.33873  0.31168  0.18879  1.0000
  C   C1        1.0  0.26774  0.94750  0.26034  1.0000
  C   C2        1.0  0.76774  0.55250  0.23966  1.0000
  C   C3        1.0  0.73226  0.05250  0.73966  1.0000
  C   C4        1.0  0.23226  0.44750  0.76034  1.0000
  C   C5        1.0  0.09920  0.13885  0.85589  1.0000
  C   C6        1.0  0.59919  0.36115  0.64411  1.0000
  C   C7        1.0  0.90080  0.86115  0.14411  1.0000
  C   C8        1.0  0.40081  0.63885  0.35589  1.0000
  C   C9        1.0  0.25673  0.00062  0.09138  1.0000
  C   C10       1.0  0.75673  0.49938  0.40862  1.0000
  C   C11       1.0  0.74327  0.99938  0.90862  1.0000
  C   C12       1.0  0.24327  0.50062  0.59138  1.0000
  C   C13       1.0  0.04382  0.36174  0.13508  1.0000
  C   C14       1.0  0.54382  0.13826  0.36492  1.0000
  C   C15       1.0  0.95618  0.63826  0.86492  1.0000
  C   C16       1.0  0.45618  0.86174  0.63508  1.0000
  C   C17       1.0  0.20106  0.02607  0.20649  1.0000
  C   C18       1.0  0.70106  0.47394  0.29351  1.0000
  C   C19       1.0  0.79894  0.97394  0.79351  1.0000
  C   C20       1.0  0.29894  0.52606  0.70649  1.0000
  C   C21       1.0  0.08928  0.19120  0.97814  1.0000
  C   C22       1.0  0.58928  0.30880  0.52186  1.0000
  C   C23       1.0  0.91072  0.80880  0.02186  1.0000
  C   C24       1.0  0.41072  0.69120  0.47814  1.0000
  C   C25       1.0  0.01094  0.30299  0.01610  1.0000
  C   C26       1.0  0.51094  0.19701  0.48389  1.0000
  C   C27       1.0  0.98906  0.69701  0.98390  1.0000
  C   C28       1.0  0.48906  0.80299  0.51611  1.0000
  C   C29       1.0  0.22340  0.97516  0.37848  1.0000
  C   C30       1.0  0.72340  0.52484  0.12152  1.0000
  C   C31       1.0  0.77660  0.02484  0.62152  1.0000
  C   C32       1.0  0.27660  0.47516  0.87848  1.0000
  S   S1        1.0  0.50264  0.25068  0.99744  1.0000
  S   S2        1.0  0.00264  0.24932  0.50256  1.0000
  S   S3        1.0  0.49736  0.74932  0.00255  1.0000
  S   S4        1.0  0.99736  0.75068  0.49745  1.0000
  O   O1        1.0  0.60236  0.29786  0.93708  1.0000
  O   O2        1.0  0.10236  0.20214  0.56292  1.0000
  O   O3        1.0  0.39764  0.70214  0.06292  1.0000
  O   O4        1.0  0.89764  0.79786  0.43708  1.0000
  O   O5        1.0  0.39661  0.33673  0.06030  1.0000
  O   O6        1.0  0.89661  0.16327  0.43970  1.0000
  O   O7        1.0  0.60339  0.66327  0.93970  1.0000
  O   O8        1.0  0.10339  0.83673  0.56030  1.0000
  O   O9        1.0  0.13396  0.44186  0.16574  1.0000
  O   O10       1.0  0.63396  0.05814  0.33426  1.0000
  O   O11       1.0  0.86604  0.55814  0.83425  1.0000
  O   O12       1.0  0.36604  0.94186  0.66574  1.0000
  O   O13       1.0  0.16711  0.04569  0.81436  1.0000
  O   O14       1.0  0.66711  0.45431  0.68564  1.0000
  O   O15       1.0  0.83289  0.95431  0.18564  1.0000
  O   O16       1.0  0.33289  0.54569  0.31436  1.0000
  O   O17       1.0  0.98790  0.32937  0.20857  1.0000
  O   O18       1.0  0.48790  0.17063  0.29143  1.0000
  O   O19       1.0  0.01210  0.67063  0.79143  1.0000
  O   O20       1.0  0.51210  0.82937  0.70857  1.0000
  O   O21       1.0  0.04533  0.18283  0.79109  1.0000
  O   O22       1.0  0.54533  0.31717  0.70891  1.0000
  O   O23       1.0  0.95467  0.81717  0.20891  1.0000
  O   O24       1.0  0.45468  0.68283  0.29109  1.0000
  O   O25       1.0  0.42496  0.15526  0.91549  1.0000
  O   O26       1.0  0.92496  0.34474  0.58451  1.0000
  O   O27       1.0  0.57504  0.84474  0.08451  1.0000
  O   O28       1.0  0.07504  0.65526  0.41549  1.0000
  O   O29       1.0  0.17960  0.95513  0.00814  1.0000
  O   O30       1.0  0.67960  0.54487  0.49186  1.0000
  O   O31       1.0  0.82040  0.04487  0.99186  1.0000
  O   O32       1.0  0.32040  0.45513  0.50814  1.0000
  O   O33       1.0  0.58033  0.21203  0.07663  1.0000
  O   O34       1.0  0.08033  0.28797  0.42337  1.0000
  O   O35       1.0  0.41967  0.78798  0.92337  1.0000
  O   O36       1.0  0.91967  0.71202  0.57663  1.0000
  O   O37       1.0  0.09206  0.97507  0.40409  1.0000
  O   O38       1.0  0.59206  0.52493  0.09591  1.0000
  O   O39       1.0  0.90794  0.02492  0.59591  1.0000
  O   O40       1.0  0.40794  0.47507  0.90410  1.0000
  O   O41       1.0  0.31636  0.99873  0.45356  1.0000
  O   O42       1.0  0.81635  0.50127  0.04644  1.0000
  O   O43       1.0  0.68365  0.00127  0.54644  1.0000
  O   O44       1.0  0.18365  0.49873  0.95356  1.0000
  O   O45       1.0  0.34419  0.17764  0.71584  1.0000
  O   O46       1.0  0.84419  0.32237  0.78416  1.0000
  O   O47       1.0  0.65581  0.82237  0.28416  1.0000
  O   O48       1.0  0.15581  0.67763  0.21584  1.0000
  O   O49       1.0  0.38597  0.02584  0.07723  1.0000
  O   O50       1.0  0.88597  0.47416  0.42277  1.0000
  O   O51       1.0  0.61403  0.97416  0.92277  1.0000
  O   O52       1.0  0.11403  0.52584  0.57723  1.0000
  O   O53       1.0  0.20022  0.80475  0.75665  1.0000
  O   O54       1.0  0.70022  0.69525  0.74335  1.0000
  O   O55       1.0  0.79978  0.19525  0.24335  1.0000
  O   O56       1.0  0.29978  0.30475  0.25665  1.0000
