data_image0
_chemical_formula_structural       Pr8H48C32S4O56
_chemical_formula_sum              "Pr8 H48 C32 S4 O56"
_cell_length_a       9.52098
_cell_length_b       12.8041
_cell_length_c       13.0203
_cell_angle_alpha    110.293
_cell_angle_beta     90.0001
_cell_angle_gamma    90

_space_group_name_H-M_alt    "P 1"
_space_group_IT_number       1

loop_
  _space_group_symop_operation_xyz
  'x, y, z'

loop_
  _atom_site_type_symbol
  _atom_site_label
  _atom_site_symmetry_multiplicity
  _atom_site_fract_x
  _atom_site_fract_y
  _atom_site_fract_z
  _atom_site_occupancy
  Pr  Pr1       1.0  0.83857  0.04212  0.61566  1.0000
  Pr  Pr2       1.0  0.33857  0.45788  0.88433  1.0000
  Pr  Pr3       1.0  0.16143  0.95788  0.38434  1.0000
  Pr  Pr4       1.0  0.66143  0.54212  0.11567  1.0000
  Pr  Pr5       1.0  0.63591  0.94787  0.86866  1.0000
  Pr  Pr6       1.0  0.13591  0.55213  0.63134  1.0000
  Pr  Pr7       1.0  0.36409  0.05213  0.13134  1.0000
  Pr  Pr8       1.0  0.86409  0.44787  0.36866  1.0000
  H   H1        1.0  0.53827  0.63150  0.50896  1.0000
  H   H2        1.0  0.03828  0.86850  0.99104  1.0000
  H   H3        1.0  0.46172  0.36850  0.49104  1.0000
  H   H4        1.0  0.96173  0.13150  0.00896  1.0000
  H   H5        1.0  0.69827  0.70163  0.50860  1.0000
  H   H6        1.0  0.19827  0.79837  0.99140  1.0000
  H   H7        1.0  0.30173  0.29837  0.49140  1.0000
  H   H8        1.0  0.80173  0.20164  0.00860  1.0000
  H   H9        1.0  0.87312  0.76145  0.78211  1.0000
  H   H10       1.0  0.37312  0.73855  0.71789  1.0000
  H   H11       1.0  0.12688  0.23855  0.21789  1.0000
  H   H12       1.0  0.62688  0.26145  0.28210  1.0000
  H   H13       1.0  0.84138  0.81168  0.68887  1.0000
  H   H14       1.0  0.34138  0.68832  0.81113  1.0000
  H   H15       1.0  0.15862  0.18832  0.31113  1.0000
  H   H16       1.0  0.65861  0.31168  0.18887  1.0000
  H   H17       1.0  0.57982  0.22262  0.69756  1.0000
  H   H18       1.0  0.07982  0.27738  0.80244  1.0000
  H   H19       1.0  0.42018  0.77738  0.30244  1.0000
  H   H20       1.0  0.92018  0.72262  0.19756  1.0000
  H   H21       1.0  0.62548  0.17490  0.78835  1.0000
  H   H22       1.0  0.12548  0.32510  0.71165  1.0000
  H   H23       1.0  0.37452  0.82510  0.21165  1.0000
  H   H24       1.0  0.87452  0.67490  0.28835  1.0000
  H   H25       1.0  0.54702  0.85634  0.47033  1.0000
  H   H26       1.0  0.04701  0.64366  0.02967  1.0000
  H   H27       1.0  0.45298  0.14366  0.52967  1.0000
  H   H28       1.0  0.95299  0.35634  0.97033  1.0000
  H   H29       1.0  0.39894  0.79026  0.50608  1.0000
  H   H30       1.0  0.89894  0.70974  0.99392  1.0000
  H   H31       1.0  0.60106  0.20974  0.49392  1.0000
  H   H32       1.0  0.10106  0.29026  0.00608  1.0000
  H   H33       1.0  0.77073  0.11414  0.25594  1.0000
  H   H34       1.0  0.27073  0.38586  0.24406  1.0000
  H   H35       1.0  0.22927  0.88586  0.74406  1.0000
  H   H36       1.0  0.72927  0.61414  0.75594  1.0000
  H   H37       1.0  0.91274  0.02082  0.20493  1.0000
  H   H38       1.0  0.41274  0.47919  0.29507  1.0000
  H   H39       1.0  0.08726  0.97919  0.79507  1.0000
  H   H40       1.0  0.58726  0.52081  0.70493  1.0000
  H   H41       1.0  0.61789  0.95105  0.25809  1.0000
  H   H42       1.0  0.11789  0.54895  0.24191  1.0000
  H   H43       1.0  0.38211  0.04895  0.74191  1.0000
  H   H44       1.0  0.88211  0.45105  0.75809  1.0000
  H   H45       1.0  0.76435  0.86192  0.21497  1.0000
  H   H46       1.0  0.26435  0.63808  0.28503  1.0000
  H   H47       1.0  0.23565  0.13808  0.78503  1.0000
  H   H48       1.0  0.73565  0.36192  0.71497  1.0000
  C   C1        1.0  0.54500  0.86167  0.63481  1.0000
  C   C2        1.0  0.04499  0.63833  0.86519  1.0000
  C   C3        1.0  0.45501  0.13833  0.36519  1.0000
  C   C4        1.0  0.95500  0.36167  0.13481  1.0000
  C   C5        1.0  0.59896  0.63953  0.35653  1.0000
  C   C6        1.0  0.09896  0.86047  0.14347  1.0000
  C   C7        1.0  0.40104  0.36047  0.64347  1.0000
  C   C8        1.0  0.90104  0.13953  0.85653  1.0000
  C   C9        1.0  0.58950  0.69183  0.47831  1.0000
  C   C10       1.0  0.08951  0.80817  0.02169  1.0000
  C   C11       1.0  0.41049  0.30817  0.52169  1.0000
  C   C12       1.0  0.91050  0.19183  0.97831  1.0000
  C   C13       1.0  0.74347  0.00200  0.09311  1.0000
  C   C14       1.0  0.24347  0.49800  0.40689  1.0000
  C   C15       1.0  0.25653  0.99800  0.90689  1.0000
  C   C16       1.0  0.75653  0.50200  0.59311  1.0000
  C   C17       1.0  0.51275  0.80362  0.51618  1.0000
  C   C18       1.0  0.01275  0.69638  0.98382  1.0000
  C   C19       1.0  0.48725  0.19638  0.48382  1.0000
  C   C20       1.0  0.98725  0.30362  0.01618  1.0000
  C   C21       1.0  0.77608  0.97533  0.37808  1.0000
  C   C22       1.0  0.27608  0.52467  0.12191  1.0000
  C   C23       1.0  0.22392  0.02467  0.62192  1.0000
  C   C24       1.0  0.72392  0.47533  0.87808  1.0000
  C   C25       1.0  0.79810  0.02769  0.20800  1.0000
  C   C26       1.0  0.29810  0.47231  0.29200  1.0000
  C   C27       1.0  0.20190  0.97231  0.79200  1.0000
  C   C28       1.0  0.70190  0.52769  0.70800  1.0000
  C   C29       1.0  0.73277  0.94815  0.26032  1.0000
  C   C30       1.0  0.23277  0.55185  0.23968  1.0000
  C   C31       1.0  0.26723  0.05185  0.73968  1.0000
  C   C32       1.0  0.76723  0.44815  0.76032  1.0000
  S   S1        1.0  0.00264  0.75063  0.49753  1.0000
  S   S2        1.0  0.50265  0.74937  0.00247  1.0000
  S   S3        1.0  0.99735  0.24937  0.50247  1.0000
  S   S4        1.0  0.49735  0.25063  0.99753  1.0000
  O   O1        1.0  0.63417  0.94184  0.66575  1.0000
  O   O2        1.0  0.13417  0.55816  0.83425  1.0000
  O   O3        1.0  0.36583  0.05816  0.33425  1.0000
  O   O4        1.0  0.86583  0.44184  0.16575  1.0000
  O   O5        1.0  0.66625  0.54665  0.31522  1.0000
  O   O6        1.0  0.16625  0.95335  0.18478  1.0000
  O   O7        1.0  0.33375  0.45335  0.68478  1.0000
  O   O8        1.0  0.83375  0.04665  0.81522  1.0000
  O   O9        1.0  0.89756  0.83648  0.56061  1.0000
  O   O10       1.0  0.39756  0.66352  0.93939  1.0000
  O   O11       1.0  0.10244  0.16352  0.43939  1.0000
  O   O12       1.0  0.60244  0.33648  0.06061  1.0000
  O   O13       1.0  0.48970  0.82859  0.70740  1.0000
  O   O14       1.0  0.98969  0.67141  0.79260  1.0000
  O   O15       1.0  0.51030  0.17141  0.29260  1.0000
  O   O16       1.0  0.01031  0.32859  0.20740  1.0000
  O   O17       1.0  0.10176  0.79754  0.43737  1.0000
  O   O18       1.0  0.60176  0.70246  0.06263  1.0000
  O   O19       1.0  0.89824  0.20246  0.56263  1.0000
  O   O20       1.0  0.39824  0.29754  0.93737  1.0000
  O   O21       1.0  0.92459  0.65596  0.41602  1.0000
  O   O22       1.0  0.42459  0.84404  0.08398  1.0000
  O   O23       1.0  0.07541  0.34404  0.58398  1.0000
  O   O24       1.0  0.57541  0.15596  0.91602  1.0000
  O   O25       1.0  0.80302  0.80534  0.75675  1.0000
  O   O26       1.0  0.30302  0.69466  0.74325  1.0000
  O   O27       1.0  0.19698  0.19466  0.24325  1.0000
  O   O28       1.0  0.69698  0.30534  0.25675  1.0000
  O   O29       1.0  0.08036  0.71184  0.57592  1.0000
  O   O30       1.0  0.58036  0.78816  0.92408  1.0000
  O   O31       1.0  0.91964  0.28816  0.42408  1.0000
  O   O32       1.0  0.41964  0.21184  0.07592  1.0000
  O   O33       1.0  0.68311  0.99934  0.45249  1.0000
  O   O34       1.0  0.18311  0.50066  0.04751  1.0000
  O   O35       1.0  0.31690  0.00066  0.54751  1.0000
  O   O36       1.0  0.81689  0.49934  0.95249  1.0000
  O   O37       1.0  0.65522  0.17863  0.71696  1.0000
  O   O38       1.0  0.15522  0.32137  0.78304  1.0000
  O   O39       1.0  0.34478  0.82137  0.28304  1.0000
  O   O40       1.0  0.84478  0.67863  0.21696  1.0000
  O   O41       1.0  0.61458  0.02640  0.07861  1.0000
  O   O42       1.0  0.11458  0.47361  0.42139  1.0000
  O   O43       1.0  0.38542  0.97360  0.92139  1.0000
  O   O44       1.0  0.88542  0.52640  0.57861  1.0000
  O   O45       1.0  0.54528  0.68332  0.29216  1.0000
  O   O46       1.0  0.04528  0.81668  0.20784  1.0000
  O   O47       1.0  0.45472  0.31668  0.70784  1.0000
  O   O48       1.0  0.95472  0.18332  0.79216  1.0000
  O   O49       1.0  0.90677  0.97440  0.40376  1.0000
  O   O50       1.0  0.40677  0.52560  0.09624  1.0000
  O   O51       1.0  0.09323  0.02560  0.59624  1.0000
  O   O52       1.0  0.59323  0.47440  0.90376  1.0000
  O   O53       1.0  0.82111  0.95680  0.01075  1.0000
  O   O54       1.0  0.32111  0.54320  0.48925  1.0000
  O   O55       1.0  0.17889  0.04320  0.98925  1.0000
  O   O56       1.0  0.67889  0.45680  0.51075  1.0000
