data_image0
_chemical_formula_structural       La8H48C32S4O56
_chemical_formula_sum              "La8 H48 C32 S4 O56"
_cell_length_a       9.56454
_cell_length_b       12.8982
_cell_length_c       13.1226
_cell_angle_alpha    110.238
_cell_angle_beta     90
_cell_angle_gamma    90

_space_group_name_H-M_alt    "P 1"
_space_group_IT_number       1

loop_
  _space_group_symop_operation_xyz
  'x, y, z'

loop_
  _atom_site_type_symbol
  _atom_site_label
  _atom_site_symmetry_multiplicity
  _atom_site_fract_x
  _atom_site_fract_y
  _atom_site_fract_z
  _atom_site_occupancy
  La  La1       1.0  0.33740  0.54240  0.61538  1.0000
  La  La2       1.0  0.83740  0.95760  0.88462  1.0000
  La  La3       1.0  0.66260  0.45760  0.38462  1.0000
  La  La4       1.0  0.16260  0.04240  0.11538  1.0000
  La  La5       1.0  0.13624  0.44696  0.86835  1.0000
  La  La6       1.0  0.63624  0.05304  0.63165  1.0000
  La  La7       1.0  0.86376  0.55304  0.13165  1.0000
  La  La8       1.0  0.36376  0.94696  0.36835  1.0000
  H   H1        1.0  0.04509  0.35563  0.47034  1.0000
  H   H2        1.0  0.54509  0.14437  0.02966  1.0000
  H   H3        1.0  0.95491  0.64436  0.52966  1.0000
  H   H4        1.0  0.45491  0.85563  0.97034  1.0000
  H   H5        1.0  0.89858  0.28887  0.50580  1.0000
  H   H6        1.0  0.39858  0.21113  0.99420  1.0000
  H   H7        1.0  0.10142  0.71113  0.49420  1.0000
  H   H8        1.0  0.60142  0.78887  0.00580  1.0000
  H   H9        1.0  0.37372  0.26025  0.78072  1.0000
  H   H10       1.0  0.87372  0.23975  0.71928  1.0000
  H   H11       1.0  0.62628  0.73975  0.21928  1.0000
  H   H12       1.0  0.12628  0.76025  0.28072  1.0000
  H   H13       1.0  0.34259  0.30971  0.68753  1.0000
  H   H14       1.0  0.84260  0.19029  0.81247  1.0000
  H   H15       1.0  0.65740  0.69029  0.31247  1.0000
  H   H16       1.0  0.15741  0.80971  0.18753  1.0000
  H   H17       1.0  0.04070  0.13229  0.50876  1.0000
  H   H18       1.0  0.54070  0.36771  0.99124  1.0000
  H   H19       1.0  0.95930  0.86771  0.49124  1.0000
  H   H20       1.0  0.45930  0.63229  0.00876  1.0000
  H   H21       1.0  0.19844  0.20337  0.50721  1.0000
  H   H22       1.0  0.69844  0.29663  0.99279  1.0000
  H   H23       1.0  0.80156  0.79662  0.49279  1.0000
  H   H24       1.0  0.30156  0.70338  0.00721  1.0000
  H   H25       1.0  0.11887  0.45007  0.25725  1.0000
  H   H26       1.0  0.61887  0.04993  0.24275  1.0000
  H   H27       1.0  0.88113  0.54993  0.74275  1.0000
  H   H28       1.0  0.38113  0.95007  0.75725  1.0000
  H   H29       1.0  0.26537  0.36225  0.21496  1.0000
  H   H30       1.0  0.76537  0.13775  0.28504  1.0000
  H   H31       1.0  0.73463  0.63775  0.78504  1.0000
  H   H32       1.0  0.23463  0.86225  0.71496  1.0000
  H   H33       1.0  0.27065  0.61257  0.25534  1.0000
  H   H34       1.0  0.77064  0.88743  0.24466  1.0000
  H   H35       1.0  0.72936  0.38743  0.74466  1.0000
  H   H36       1.0  0.22936  0.11257  0.75534  1.0000
  H   H37       1.0  0.41225  0.52007  0.20476  1.0000
  H   H38       1.0  0.91225  0.97993  0.29523  1.0000
  H   H39       1.0  0.58775  0.47993  0.79524  1.0000
  H   H40       1.0  0.08776  0.02007  0.70476  1.0000
  H   H41       1.0  0.07763  0.72284  0.69959  1.0000
  H   H42       1.0  0.57763  0.77716  0.80041  1.0000
  H   H43       1.0  0.92237  0.27716  0.30041  1.0000
  H   H44       1.0  0.42237  0.22284  0.19959  1.0000
  H   H45       1.0  0.12278  0.67460  0.78945  1.0000
  H   H46       1.0  0.62278  0.82540  0.71055  1.0000
  H   H47       1.0  0.87722  0.32540  0.21055  1.0000
  H   H48       1.0  0.37722  0.17460  0.28945  1.0000
  C   C1        1.0  0.09868  0.14023  0.35699  1.0000
  C   C2        1.0  0.59868  0.35977  0.14301  1.0000
  C   C3        1.0  0.90132  0.85977  0.64301  1.0000
  C   C4        1.0  0.40132  0.64023  0.85699  1.0000
  C   C5        1.0  0.01173  0.30295  0.51574  1.0000
  C   C6        1.0  0.51173  0.19705  0.98426  1.0000
  C   C7        1.0  0.98828  0.69705  0.48426  1.0000
  C   C8        1.0  0.48827  0.80295  0.01574  1.0000
  C   C9        1.0  0.27633  0.47481  0.37656  1.0000
  C   C10       1.0  0.77633  0.02519  0.12344  1.0000
  C   C11       1.0  0.72367  0.52519  0.62344  1.0000
  C   C12       1.0  0.22367  0.97481  0.87656  1.0000
  C   C13       1.0  0.04400  0.36069  0.63353  1.0000
  C   C14       1.0  0.54400  0.13931  0.86647  1.0000
  C   C15       1.0  0.95600  0.63930  0.36647  1.0000
  C   C16       1.0  0.45600  0.86069  0.13353  1.0000
  C   C17       1.0  0.08982  0.19258  0.47787  1.0000
  C   C18       1.0  0.58981  0.30742  0.02213  1.0000
  C   C19       1.0  0.91019  0.80742  0.52213  1.0000
  C   C20       1.0  0.41018  0.69258  0.97787  1.0000
  C   C21       1.0  0.23324  0.44770  0.25966  1.0000
  C   C22       1.0  0.73324  0.05230  0.24034  1.0000
  C   C23       1.0  0.76676  0.55230  0.74034  1.0000
  C   C24       1.0  0.26676  0.94770  0.75966  1.0000
  C   C25       1.0  0.29816  0.52683  0.20781  1.0000
  C   C26       1.0  0.79816  0.97317  0.29219  1.0000
  C   C27       1.0  0.70184  0.47317  0.79219  1.0000
  C   C28       1.0  0.20184  0.02683  0.70781  1.0000
  C   C29       1.0  0.24390  0.50162  0.09379  1.0000
  C   C30       1.0  0.74390  0.99838  0.40621  1.0000
  C   C31       1.0  0.75610  0.49838  0.90621  1.0000
  C   C32       1.0  0.25610  0.00162  0.59379  1.0000
  S   S1        1.0  0.50200  0.25035  0.49708  1.0000
  S   S2        1.0  0.00200  0.24965  0.00292  1.0000
  S   S3        1.0  0.49800  0.74965  0.50292  1.0000
  S   S4        1.0  0.99800  0.75035  0.99708  1.0000
  O   O1        1.0  0.13401  0.43940  0.66345  1.0000
  O   O2        1.0  0.63401  0.06060  0.83655  1.0000
  O   O3        1.0  0.86600  0.56060  0.33655  1.0000
  O   O4        1.0  0.36600  0.93940  0.16345  1.0000
  O   O5        1.0  0.39746  0.33531  0.55939  1.0000
  O   O6        1.0  0.89746  0.16469  0.94061  1.0000
  O   O7        1.0  0.60254  0.66469  0.44061  1.0000
  O   O8        1.0  0.10254  0.83531  0.05939  1.0000
  O   O9        1.0  0.16568  0.04793  0.31656  1.0000
  O   O10       1.0  0.66568  0.45207  0.18344  1.0000
  O   O11       1.0  0.83432  0.95207  0.68344  1.0000
  O   O12       1.0  0.33432  0.54793  0.81656  1.0000
  O   O13       1.0  0.60085  0.29713  0.43751  1.0000
  O   O14       1.0  0.10085  0.20287  0.06249  1.0000
  O   O15       1.0  0.39915  0.70287  0.56249  1.0000
  O   O16       1.0  0.89915  0.79713  0.93751  1.0000
  O   O17       1.0  0.40680  0.47536  0.40171  1.0000
  O   O18       1.0  0.90680  0.02464  0.09829  1.0000
  O   O19       1.0  0.59320  0.52464  0.59829  1.0000
  O   O20       1.0  0.09320  0.97536  0.90171  1.0000
  O   O21       1.0  0.42489  0.15624  0.41627  1.0000
  O   O22       1.0  0.92489  0.34376  0.08373  1.0000
  O   O23       1.0  0.57511  0.84376  0.58374  1.0000
  O   O24       1.0  0.07511  0.65624  0.91627  1.0000
  O   O25       1.0  0.98782  0.32883  0.70581  1.0000
  O   O26       1.0  0.48783  0.17117  0.79419  1.0000
  O   O27       1.0  0.01218  0.67117  0.29419  1.0000
  O   O28       1.0  0.51218  0.82883  0.20581  1.0000
  O   O29       1.0  0.32128  0.45679  0.01223  1.0000
  O   O30       1.0  0.82128  0.04321  0.48777  1.0000
  O   O31       1.0  0.67872  0.54321  0.98777  1.0000
  O   O32       1.0  0.17872  0.95679  0.51223  1.0000
  O   O33       1.0  0.11556  0.52625  0.07983  1.0000
  O   O34       1.0  0.61556  0.97375  0.42017  1.0000
  O   O35       1.0  0.88444  0.47375  0.92017  1.0000
  O   O36       1.0  0.38445  0.02625  0.57983  1.0000
  O   O37       1.0  0.04497  0.18349  0.29301  1.0000
  O   O38       1.0  0.54496  0.31651  0.20699  1.0000
  O   O39       1.0  0.95503  0.81651  0.70699  1.0000
  O   O40       1.0  0.45503  0.68349  0.79301  1.0000
  O   O41       1.0  0.18367  0.49710  0.45020  1.0000
  O   O42       1.0  0.68367  0.00290  0.04980  1.0000
  O   O43       1.0  0.81633  0.50290  0.54980  1.0000
  O   O44       1.0  0.31633  0.99710  0.95020  1.0000
  O   O45       1.0  0.57948  0.21177  0.57492  1.0000
  O   O46       1.0  0.07947  0.28823  0.92508  1.0000
  O   O47       1.0  0.42053  0.78823  0.42508  1.0000
  O   O48       1.0  0.92052  0.71177  0.07492  1.0000
  O   O49       1.0  0.30488  0.30438  0.75537  1.0000
  O   O50       1.0  0.80488  0.19562  0.74463  1.0000
  O   O51       1.0  0.69512  0.69562  0.24463  1.0000
  O   O52       1.0  0.19512  0.80438  0.25537  1.0000
  O   O53       1.0  0.15169  0.67795  0.71830  1.0000
  O   O54       1.0  0.65169  0.82205  0.78170  1.0000
  O   O55       1.0  0.84831  0.32205  0.28170  1.0000
  O   O56       1.0  0.34831  0.17795  0.21830  1.0000
