data_image0
_chemical_formula_structural       CuP2H20C16O12
_chemical_formula_sum              "Cu1 P2 H20 C16 O12"
_cell_length_a       4.62452
_cell_length_b       5.91598
_cell_length_c       17.8992
_cell_angle_alpha    79.4931
_cell_angle_beta     85.9865
_cell_angle_gamma    83.6912

_space_group_name_H-M_alt    "P 1"
_space_group_IT_number       1

loop_
  _space_group_symop_operation_xyz
  'x, y, z'

loop_
  _atom_site_type_symbol
  _atom_site_label
  _atom_site_symmetry_multiplicity
  _atom_site_fract_x
  _atom_site_fract_y
  _atom_site_fract_z
  _atom_site_occupancy
  Cu  Cu1       1.0  0.00002  0.50001  0.50000  1.0000
  P   P1        1.0  0.51222  0.67058  0.61533  1.0000
  P   P2        1.0  0.48780  0.32942  0.38467  1.0000
  H   H1        1.0  0.93439  0.82361  0.60694  1.0000
  H   H2        1.0  0.06563  0.17639  0.39306  1.0000
  H   H3        1.0  0.41031  0.16290  0.01909  1.0000
  H   H4        1.0  0.58970  0.83709  0.98092  1.0000
  H   H5        1.0  0.76299  0.91811  0.43971  1.0000
  H   H6        1.0  0.23703  0.08189  0.56028  1.0000
  H   H7        1.0  0.56795  0.71056  0.43408  1.0000
  H   H8        1.0  0.43207  0.28944  0.56591  1.0000
  H   H9        1.0  0.22982  0.67325  0.73079  1.0000
  H   H10       1.0  0.77019  0.32675  0.26921  1.0000
  H   H11       1.0  0.23491  0.40986  0.69686  1.0000
  H   H12       1.0  0.76508  0.59014  0.30314  1.0000
  H   H13       1.0  0.70871  0.12228  0.71376  1.0000
  H   H14       1.0  0.29127  0.87770  0.28625  1.0000
  H   H15       1.0  0.06934  0.94489  0.81011  1.0000
  H   H16       1.0  0.93062  0.05511  0.18990  1.0000
  H   H17       1.0  0.90663  0.53718  0.92020  1.0000
  H   H18       1.0  0.09336  0.46282  0.07980  1.0000
  H   H19       1.0  0.54166  0.71360  0.82635  1.0000
  H   H20       1.0  0.45835  0.28640  0.17365  1.0000
  C   C1        1.0  0.37377  0.53818  0.70820  1.0000
  C   C2        1.0  0.62624  0.46182  0.29180  1.0000
  C   C3        1.0  0.60051  0.43067  0.76344  1.0000
  C   C4        1.0  0.39950  0.56933  0.23655  1.0000
  C   C5        1.0  0.75139  0.21360  0.75894  1.0000
  C   C6        1.0  0.24863  0.78639  0.24106  1.0000
  C   C7        1.0  0.95468  0.11480  0.81221  1.0000
  C   C8        1.0  0.04532  0.88520  0.18779  1.0000
  C   C9        1.0  0.01151  0.23094  0.87050  1.0000
  C   C10       1.0  0.98846  0.76907  0.12951  1.0000
  C   C11       1.0  0.86317  0.44831  0.87466  1.0000
  C   C12       1.0  0.13678  0.55168  0.12535  1.0000
  C   C13       1.0  0.65986  0.54668  0.82144  1.0000
  C   C14       1.0  0.34011  0.45330  0.17856  1.0000
  C   C15       1.0  0.22670  0.12403  0.92704  1.0000
  C   C16       1.0  0.77323  0.87599  0.07297  1.0000
  O   O1        1.0  0.24925  0.79580  0.57160  1.0000
  O   O2        1.0  0.75078  0.20421  0.42840  1.0000
  O   O3        1.0  0.68323  0.47696  0.57847  1.0000
  O   O4        1.0  0.31679  0.52306  0.42153  1.0000
  O   O5        1.0  0.72208  0.85412  0.62634  1.0000
  O   O6        1.0  0.27794  0.14586  0.37366  1.0000
  O   O7        1.0  0.37161  0.93475  0.92265  1.0000
  O   O8        1.0  0.62840  0.06526  0.07736  1.0000
  O   O9        1.0  0.25164  0.24248  0.98150  1.0000
  O   O10       1.0  0.74834  0.75753  0.01851  1.0000
  O   O11       1.0  0.77099  0.75179  0.43400  1.0000
  O   O12       1.0  0.22904  0.24821  0.56599  1.0000
