data_image0
_chemical_formula_structural       CuH16C14N2O6
_chemical_formula_sum              "Cu1 H16 C14 N2 O6"
_cell_length_a       7.24758
_cell_length_b       7.67967
_cell_length_c       8.40484
_cell_angle_alpha    112.351
_cell_angle_beta     110.506
_cell_angle_gamma    100.232

_space_group_name_H-M_alt    "P 1"
_space_group_IT_number       1

loop_
  _space_group_symop_operation_xyz
  'x, y, z'

loop_
  _atom_site_type_symbol
  _atom_site_label
  _atom_site_symmetry_multiplicity
  _atom_site_fract_x
  _atom_site_fract_y
  _atom_site_fract_z
  _atom_site_occupancy
  Cu  Cu1       1.0  0.54127  0.04129  0.08284  1.0000
  H   H1        1.0  0.20353  0.72605  0.90041  1.0000
  H   H2        1.0  0.69750  0.17491  0.90117  1.0000
  H   H3        1.0  0.63130  0.05627  0.47727  1.0000
  H   H4        1.0  0.84571  0.42035  0.47731  1.0000
  H   H5        1.0  0.94472  0.07383  0.73905  1.0000
  H   H6        1.0  0.79444  0.66501  0.73899  1.0000
  H   H7        1.0  0.23137  0.96092  0.35587  1.0000
  H   H8        1.0  0.12435  0.39526  0.35565  1.0000
  H   H9        1.0  0.90580  0.94578  0.10695  1.0000
  H   H10       1.0  0.20054  0.16082  0.10690  1.0000
  H   H11       1.0  0.45695  0.66702  0.17669  1.0000
  H   H12       1.0  0.72019  0.51003  0.17732  1.0000
  H   H13       1.0  0.26431  0.48199  0.93658  1.0000
  H   H14       1.0  0.67305  0.45503  0.93733  1.0000
  H   H15       1.0  0.19412  0.54881  0.12822  1.0000
  H   H16       1.0  0.93486  0.57995  0.12922  1.0000
  C   C1        1.0  0.76763  0.03731  0.45544  1.0000
  C   C2        1.0  0.68754  0.41761  0.45546  1.0000
  C   C3        1.0  0.94274  0.04600  0.60127  1.0000
  C   C4        1.0  0.65853  0.55504  0.60121  1.0000
  C   C5        1.0  0.11650  0.02468  0.56965  1.0000
  C   C6        1.0  0.45314  0.54510  0.56950  1.0000
  C   C7        1.0  0.10229  0.98367  0.38844  1.0000
  C   C8        1.0  0.28594  0.40482  0.38826  1.0000
  C   C9        1.0  0.92238  0.97605  0.24947  1.0000
  C   C10       1.0  0.32675  0.27317  0.24944  1.0000
  C   C11       1.0  0.32100  0.05145  0.72464  1.0000
  C   C12       1.0  0.40366  0.67351  0.72429  1.0000
  C   C13       1.0  0.28935  0.60820  0.07104  1.0000
  C   C14       1.0  0.78233  0.46327  0.07183  1.0000
  N   N1        1.0  0.76022  0.00787  0.28390  1.0000
  N   N2        1.0  0.52322  0.27552  0.28394  1.0000
  O   O1        1.0  0.31778  0.06751  0.88150  1.0000
  O   O2        1.0  0.56377  0.81424  0.88131  1.0000
  O   O3        1.0  0.47694  0.05949  0.69013  1.0000
  O   O4        1.0  0.21310  0.63112  0.68953  1.0000
  O   O5        1.0  0.22871  0.76318  0.03608  1.0000
  O   O6        1.0  0.80796  0.27335  0.03689  1.0000
