data_image0
_chemical_formula_structural       ZnH32C34S2N10O4
_chemical_formula_sum              "Zn1 H32 C34 S2 N10 O4"
_cell_length_a       8.45601
_cell_length_b       8.47692
_cell_length_c       12.4211
_cell_angle_alpha    93.8892
_cell_angle_beta     97.3023
_cell_angle_gamma    91.3261

_space_group_name_H-M_alt    "P 1"
_space_group_IT_number       1

loop_
  _space_group_symop_operation_xyz
  'x, y, z'

loop_
  _atom_site_type_symbol
  _atom_site_label
  _atom_site_symmetry_multiplicity
  _atom_site_fract_x
  _atom_site_fract_y
  _atom_site_fract_z
  _atom_site_occupancy
  Zn  Zn1       1.0  0.00000  0.00000  1.00000  1.0000
  H   H1        1.0  0.27760  0.81376  0.93234  1.0000
  H   H2        1.0  0.72239  0.18624  0.06766  1.0000
  H   H3        1.0  0.54133  0.71706  0.01442  1.0000
  H   H4        1.0  0.45867  0.28294  0.98558  1.0000
  H   H5        1.0  0.67077  0.84703  0.19375  1.0000
  H   H6        1.0  0.32922  0.15297  0.80625  1.0000
  H   H7        1.0  0.25995  0.13922  0.19320  1.0000
  H   H8        1.0  0.74005  0.86078  0.80680  1.0000
  H   H9        1.0  0.60938  0.80963  0.44409  1.0000
  H   H10       1.0  0.39063  0.19037  0.55592  1.0000
  H   H11       1.0  0.44778  0.81717  0.33792  1.0000
  H   H12       1.0  0.55222  0.18282  0.66208  1.0000
  H   H13       1.0  0.64103  0.25021  0.48464  1.0000
  H   H14       1.0  0.35897  0.74978  0.51536  1.0000
  H   H15       1.0  0.72987  0.07708  0.53621  1.0000
  H   H16       1.0  0.27013  0.92292  0.46379  1.0000
  H   H17       1.0  0.20010  0.30744  0.06963  1.0000
  H   H18       1.0  0.79989  0.69256  0.93037  1.0000
  H   H19       1.0  0.28204  0.55535  0.99227  1.0000
  H   H20       1.0  0.71795  0.44465  0.00774  1.0000
  H   H21       1.0  0.14772  0.62140  0.80930  1.0000
  H   H22       1.0  0.85228  0.37860  0.19070  1.0000
  H   H23       1.0  0.86730  0.18881  0.80017  1.0000
  H   H24       1.0  0.13271  0.81119  0.19983  1.0000
  H   H25       1.0  0.19130  0.45005  0.65764  1.0000
  H   H26       1.0  0.80870  0.54993  0.34236  1.0000
  H   H27       1.0  0.16703  0.63553  0.60067  1.0000
  H   H28       1.0  0.83298  0.36446  0.39933  1.0000
  H   H29       1.0  0.87929  0.69702  0.51812  1.0000
  H   H30       1.0  0.12071  0.30297  0.48188  1.0000
  H   H31       1.0  0.72685  0.55106  0.53130  1.0000
  H   H32       1.0  0.27315  0.44894  0.46869  1.0000
  C   C1        1.0  0.33679  0.86331  0.01082  1.0000
  C   C2        1.0  0.66321  0.13670  0.98918  1.0000
  C   C3        1.0  0.48347  0.81164  0.05671  1.0000
  C   C4        1.0  0.51653  0.18837  0.94329  1.0000
  C   C5        1.0  0.55514  0.88363  0.15570  1.0000
  C   C6        1.0  0.44485  0.11638  0.84431  1.0000
  C   C7        1.0  0.47653  0.00666  0.20501  1.0000
  C   C8        1.0  0.52346  0.99334  0.79499  1.0000
  C   C9        1.0  0.32744  0.04803  0.15483  1.0000
  C   C10       1.0  0.67255  0.95197  0.84517  1.0000
  C   C11       1.0  0.54759  0.10510  0.30523  1.0000
  C   C12       1.0  0.45240  0.89490  0.69477  1.0000
  C   C13       1.0  0.50298  0.87547  0.41528  1.0000
  C   C14       1.0  0.49702  0.12452  0.58472  1.0000
  C   C15       1.0  0.61678  0.12818  0.50269  1.0000
  C   C16       1.0  0.38322  0.87181  0.49731  1.0000
  C   C17       1.0  0.14700  0.33760  0.98937  1.0000
  C   C18       1.0  0.85300  0.66241  0.01063  1.0000
  C   C19       1.0  0.19163  0.47580  0.94576  1.0000
  C   C20       1.0  0.80836  0.52420  0.05424  1.0000
  C   C21       1.0  0.11663  0.51202  0.84410  1.0000
  C   C22       1.0  0.88337  0.48798  0.15590  1.0000
  C   C23       1.0  0.99620  0.40865  0.79030  1.0000
  C   C24       1.0  0.00380  0.59135  0.20970  1.0000
  C   C25       1.0  0.96041  0.27143  0.84015  1.0000
  C   C26       1.0  0.03959  0.72857  0.15985  1.0000
  C   C27       1.0  0.88832  0.44495  0.68976  1.0000
  C   C28       1.0  0.11168  0.55506  0.31024  1.0000
  C   C29       1.0  0.12307  0.51156  0.59327  1.0000
  C   C30       1.0  0.87694  0.48844  0.40673  1.0000
  C   C31       1.0  0.85101  0.56892  0.51680  1.0000
  C   C32       1.0  0.14901  0.43107  0.48320  1.0000
  C   C33       1.0  0.03652  0.93332  0.75673  1.0000
  C   C34       1.0  0.96348  0.06669  0.24327  1.0000
  S   S1        1.0  0.03857  0.98879  0.63533  1.0000
  S   S2        1.0  0.96143  0.01122  0.36467  1.0000
  N   N1        1.0  0.25807  0.97760  0.06011  1.0000
  N   N2        1.0  0.74193  0.02241  0.93989  1.0000
  N   N3        1.0  0.55296  0.03826  0.40167  1.0000
  N   N4        1.0  0.44704  0.96174  0.59833  1.0000
  N   N5        1.0  0.03524  0.23484  0.93640  1.0000
  N   N6        1.0  0.96476  0.76516  0.06360  1.0000
  N   N7        1.0  0.95365  0.50561  0.60622  1.0000
  N   N8        1.0  0.04636  0.49438  0.39377  1.0000
  N   N9        1.0  0.03340  0.89487  0.84717  1.0000
  N   N10       1.0  0.96661  0.10514  0.15282  1.0000
  O   O1        1.0  0.74176  0.42373  0.68916  1.0000
  O   O2        1.0  0.25824  0.57629  0.31085  1.0000
  O   O3        1.0  0.59267  0.24343  0.29489  1.0000
  O   O4        1.0  0.40732  0.75656  0.70511  1.0000
