data_image0
_chemical_formula_structural       Cd2H32C32N20O4
_chemical_formula_sum              "Cd2 H32 C32 N20 O4"
_cell_length_a       7.4153
_cell_length_b       9.8309
_cell_length_c       12.4478
_cell_angle_alpha    100.69
_cell_angle_beta     89.9998
_cell_angle_gamma    90.0004

_space_group_name_H-M_alt    "P 1"
_space_group_IT_number       1

loop_
  _space_group_symop_operation_xyz
  'x, y, z'

loop_
  _atom_site_type_symbol
  _atom_site_label
  _atom_site_symmetry_multiplicity
  _atom_site_fract_x
  _atom_site_fract_y
  _atom_site_fract_z
  _atom_site_occupancy
  Cd  Cd1       1.0  0.99999  0.00000  0.50000  1.0000
  Cd  Cd2       1.0  0.50000  0.50000  0.50000  1.0000
  H   H1        1.0  0.40898  0.92075  0.56773  1.0000
  H   H2        1.0  0.90898  0.57926  0.43227  1.0000
  H   H3        1.0  0.59102  0.07927  0.43227  1.0000
  H   H4        1.0  0.09103  0.42073  0.56773  1.0000
  H   H5        1.0  0.63112  0.98073  0.72048  1.0000
  H   H6        1.0  0.13111  0.51927  0.27952  1.0000
  H   H7        1.0  0.36889  0.01928  0.27951  1.0000
  H   H8        1.0  0.86890  0.48072  0.72048  1.0000
  H   H9        1.0  0.55867  0.17640  0.87540  1.0000
  H   H10       1.0  0.05867  0.32360  0.12460  1.0000
  H   H11       1.0  0.44134  0.82361  0.12460  1.0000
  H   H12       1.0  0.94134  0.67639  0.87540  1.0000
  H   H13       1.0  0.06191  0.23304  0.70890  1.0000
  H   H14       1.0  0.56192  0.26696  0.29111  1.0000
  H   H15       1.0  0.93807  0.76696  0.29111  1.0000
  H   H16       1.0  0.43808  0.73304  0.70889  1.0000
  H   H17       1.0  0.18509  0.50879  0.06309  1.0000
  H   H18       1.0  0.68509  0.99121  0.93691  1.0000
  H   H19       1.0  0.81490  0.49121  0.93691  1.0000
  H   H20       1.0  0.31491  0.00880  0.06309  1.0000
  H   H21       1.0  0.55455  0.40073  0.80669  1.0000
  H   H22       1.0  0.05455  0.09927  0.19331  1.0000
  H   H23       1.0  0.44545  0.59927  0.19331  1.0000
  H   H24       1.0  0.94545  0.90073  0.80669  1.0000
  H   H25       1.0  0.52629  0.57759  0.86776  1.0000
  H   H26       1.0  0.02629  0.92241  0.13224  1.0000
  H   H27       1.0  0.47370  0.42241  0.13225  1.0000
  H   H28       1.0  0.97371  0.07759  0.86775  1.0000
  H   H29       1.0  0.30593  0.64270  0.01700  1.0000
  H   H30       1.0  0.80593  0.85730  0.98300  1.0000
  H   H31       1.0  0.69406  0.35730  0.98300  1.0000
  H   H32       1.0  0.19407  0.14270  0.01700  1.0000
  C   C1        1.0  0.38434  0.00654  0.63527  1.0000
  C   C2        1.0  0.88434  0.49347  0.36472  1.0000
  C   C3        1.0  0.61566  0.99347  0.36473  1.0000
  C   C4        1.0  0.11566  0.50653  0.63527  1.0000
  C   C5        1.0  0.50680  0.03977  0.72091  1.0000
  C   C6        1.0  0.00680  0.46024  0.27909  1.0000
  C   C7        1.0  0.49321  0.96024  0.27909  1.0000
  C   C8        1.0  0.99321  0.53976  0.72091  1.0000
  C   C9        1.0  0.46865  0.15036  0.80535  1.0000
  C   C10       1.0  0.96865  0.34965  0.19465  1.0000
  C   C11       1.0  0.53135  0.84965  0.19465  1.0000
  C   C12       1.0  0.03136  0.65035  0.80535  1.0000
  C   C13       1.0  0.30881  0.22476  0.80117  1.0000
  C   C14       1.0  0.80882  0.27524  0.19883  1.0000
  C   C15       1.0  0.69118  0.77524  0.19884  1.0000
  C   C16       1.0  0.19118  0.72476  0.80116  1.0000
  C   C17       1.0  0.19155  0.18211  0.71358  1.0000
  C   C18       1.0  0.69156  0.31789  0.28642  1.0000
  C   C19       1.0  0.80844  0.81788  0.28643  1.0000
  C   C20       1.0  0.30844  0.68212  0.71357  1.0000
  C   C21       1.0  0.24598  0.33630  0.89252  1.0000
  C   C22       1.0  0.74598  0.16370  0.10748  1.0000
  C   C23       1.0  0.75402  0.66371  0.10748  1.0000
  C   C24       1.0  0.25402  0.83630  0.89252  1.0000
  C   C25       1.0  0.31608  0.53712  0.03349  1.0000
  C   C26       1.0  0.81608  0.96288  0.96651  1.0000
  C   C27       1.0  0.68391  0.46288  0.96651  1.0000
  C   C28       1.0  0.18391  0.03712  0.03349  1.0000
  C   C29       1.0  0.53237  0.47142  0.88453  1.0000
  C   C30       1.0  0.03237  0.02858  0.11547  1.0000
  C   C31       1.0  0.46763  0.52859  0.11547  1.0000
  C   C32       1.0  0.96763  0.97142  0.88453  1.0000
  N   N1        1.0  0.08931  0.15241  0.38626  1.0000
  N   N2        1.0  0.58929  0.34757  0.61373  1.0000
  N   N3        1.0  0.91068  0.84759  0.61374  1.0000
  N   N4        1.0  0.41070  0.65242  0.38627  1.0000
  N   N5        1.0  0.32329  0.31824  0.40171  1.0000
  N   N6        1.0  0.82331  0.18178  0.59829  1.0000
  N   N7        1.0  0.67671  0.68175  0.59829  1.0000
  N   N8        1.0  0.17669  0.81823  0.40172  1.0000
  N   N9        1.0  0.20696  0.23554  0.39771  1.0000
  N   N10       1.0  0.70697  0.26446  0.60228  1.0000
  N   N11       1.0  0.79304  0.76446  0.60229  1.0000
  N   N12       1.0  0.29303  0.73555  0.39772  1.0000
  N   N13       1.0  0.22842  0.07606  0.63216  1.0000
  N   N14       1.0  0.72843  0.42395  0.36784  1.0000
  N   N15       1.0  0.77157  0.92394  0.36785  1.0000
  N   N16       1.0  0.27157  0.57606  0.63215  1.0000
  N   N17       1.0  0.35842  0.44276  0.93122  1.0000
  N   N18       1.0  0.85843  0.05724  0.06878  1.0000
  N   N19       1.0  0.64158  0.55724  0.06878  1.0000
  N   N20       1.0  0.14158  0.94276  0.93122  1.0000
  O   O1        1.0  0.09260  0.32438  0.93183  1.0000
  O   O2        1.0  0.59260  0.17561  0.06817  1.0000
  O   O3        1.0  0.90740  0.67561  0.06817  1.0000
  O   O4        1.0  0.40740  0.82438  0.93183  1.0000
