data_image0
_chemical_formula_structural       Cu4H16C16S4N8Cl4
_chemical_formula_sum              "Cu4 H16 C16 S4 N8 Cl4"
_cell_length_a       7.36344
_cell_length_b       7.33892
_cell_length_c       12.8823
_cell_angle_alpha    84.1998
_cell_angle_beta     83.5364
_cell_angle_gamma    63.3558

_space_group_name_H-M_alt    "P 1"
_space_group_IT_number       1

loop_
  _space_group_symop_operation_xyz
  'x, y, z'

loop_
  _atom_site_type_symbol
  _atom_site_label
  _atom_site_symmetry_multiplicity
  _atom_site_fract_x
  _atom_site_fract_y
  _atom_site_fract_z
  _atom_site_occupancy
  Cu  Cu1       1.0  0.16111  0.50557  0.34212  1.0000
  Cu  Cu2       1.0  0.83890  0.49443  0.65789  1.0000
  Cu  Cu3       1.0  0.94509  0.31901  0.24492  1.0000
  Cu  Cu4       1.0  0.05492  0.68099  0.75508  1.0000
  H   H1        1.0  0.36153  0.64725  0.96886  1.0000
  H   H2        1.0  0.63843  0.35276  0.03113  1.0000
  H   H3        1.0  0.13106  0.27943  0.03827  1.0000
  H   H4        1.0  0.86895  0.72057  0.96173  1.0000
  H   H5        1.0  0.32262  0.00523  0.91056  1.0000
  H   H6        1.0  0.67736  0.99477  0.08944  1.0000
  H   H7        1.0  0.40235  0.79168  0.64568  1.0000
  H   H8        1.0  0.59767  0.20832  0.35432  1.0000
  H   H9        1.0  0.33798  0.97003  0.31585  1.0000
  H   H10       1.0  0.66204  0.02996  0.68415  1.0000
  H   H11       1.0  0.17897  0.01936  0.50468  1.0000
  H   H12       1.0  0.82105  0.98064  0.49532  1.0000
  H   H13       1.0  0.23874  0.59285  0.14005  1.0000
  H   H14       1.0  0.76124  0.40716  0.85995  1.0000
  H   H15       1.0  0.65351  0.68396  0.28450  1.0000
  H   H16       1.0  0.34651  0.31603  0.71551  1.0000
  C   C1        1.0  0.70885  0.58472  0.43979  1.0000
  C   C2        1.0  0.29116  0.41527  0.56021  1.0000
  C   C3        1.0  0.10388  0.89277  0.18290  1.0000
  C   C4        1.0  0.89611  0.10723  0.81710  1.0000
  C   C5        1.0  0.45241  0.77187  0.56267  1.0000
  C   C6        1.0  0.54759  0.22813  0.43733  1.0000
  C   C7        1.0  0.33036  0.90015  0.48495  1.0000
  C   C8        1.0  0.66964  0.09984  0.51505  1.0000
  C   C9        1.0  0.41153  0.87177  0.38273  1.0000
  C   C10       1.0  0.58848  0.12822  0.61726  1.0000
  C   C11       1.0  0.28633  0.77704  0.01817  1.0000
  C   C12       1.0  0.71364  0.22296  0.98183  1.0000
  C   C13       1.0  0.26169  0.97149  0.98685  1.0000
  C   C14       1.0  0.73829  0.02852  0.01315  1.0000
  C   C15       1.0  0.15609  0.12240  0.05815  1.0000
  C   C16       1.0  0.84391  0.87760  0.94185  1.0000
  S   S1        1.0  0.93132  0.37364  0.40957  1.0000
  S   S2        1.0  0.06868  0.62636  0.59044  1.0000
  S   S3        1.0  0.01136  0.84085  0.30276  1.0000
  S   S4        1.0  0.98864  0.15915  0.69725  1.0000
  N   N1        1.0  0.63972  0.62104  0.54166  1.0000
  N   N2        1.0  0.36029  0.37896  0.45834  1.0000
  N   N3        1.0  0.59692  0.71602  0.36285  1.0000
  N   N4        1.0  0.40309  0.28398  0.63715  1.0000
  N   N5        1.0  0.20722  0.74332  0.11346  1.0000
  N   N6        1.0  0.79275  0.25669  0.88654  1.0000
  N   N7        1.0  0.07922  0.08624  0.15338  1.0000
  N   N8        1.0  0.92078  0.91376  0.84662  1.0000
  Cl  Cl1       1.0  0.36478  0.30284  0.20461  1.0000
  Cl  Cl2       1.0  0.63522  0.69717  0.79539  1.0000
  Cl  Cl3       1.0  0.73313  0.58377  0.13903  1.0000
  Cl  Cl4       1.0  0.26688  0.41623  0.86097  1.0000
