data_image0
_chemical_formula_structural       Cu8H24C24S24N24Cl8
_chemical_formula_sum              "Cu8 H24 C24 S24 N24 Cl8"
_cell_length_a       11.6646
_cell_length_b       11.6647
_cell_length_c       11.6646
_cell_angle_alpha    90.0001
_cell_angle_beta     90.0001
_cell_angle_gamma    90.0001

_space_group_name_H-M_alt    "P 1"
_space_group_IT_number       1

loop_
  _space_group_symop_operation_xyz
  'x, y, z'

loop_
  _atom_site_type_symbol
  _atom_site_label
  _atom_site_symmetry_multiplicity
  _atom_site_fract_x
  _atom_site_fract_y
  _atom_site_fract_z
  _atom_site_occupancy
  Cu  Cu1       1.0  0.10576  0.10576  0.10576  1.0000
  Cu  Cu2       1.0  0.39424  0.89424  0.60576  1.0000
  Cu  Cu3       1.0  0.60576  0.39424  0.89424  1.0000
  Cu  Cu4       1.0  0.89424  0.60576  0.39424  1.0000
  Cu  Cu5       1.0  0.89424  0.89424  0.89424  1.0000
  Cu  Cu6       1.0  0.60576  0.10576  0.39424  1.0000
  Cu  Cu7       1.0  0.39424  0.60576  0.10576  1.0000
  Cu  Cu8       1.0  0.10576  0.39424  0.60576  1.0000
  H   H1        1.0  0.16225  0.08375  0.33023  1.0000
  H   H2        1.0  0.33023  0.16225  0.08375  1.0000
  H   H3        1.0  0.08376  0.33022  0.16225  1.0000
  H   H4        1.0  0.41625  0.66978  0.66225  1.0000
  H   H5        1.0  0.83023  0.33775  0.91625  1.0000
  H   H6        1.0  0.91625  0.83023  0.33775  1.0000
  H   H7        1.0  0.16977  0.83775  0.58375  1.0000
  H   H8        1.0  0.66978  0.66225  0.41625  1.0000
  H   H9        1.0  0.58375  0.16977  0.83775  1.0000
  H   H10       1.0  0.33775  0.91625  0.83023  1.0000
  H   H11       1.0  0.66225  0.41626  0.66978  1.0000
  H   H12       1.0  0.83775  0.58374  0.16978  1.0000
  H   H13       1.0  0.83775  0.91625  0.66978  1.0000
  H   H14       1.0  0.66977  0.83775  0.91625  1.0000
  H   H15       1.0  0.91625  0.66977  0.83775  1.0000
  H   H16       1.0  0.58375  0.33023  0.33775  1.0000
  H   H17       1.0  0.16978  0.66225  0.08375  1.0000
  H   H18       1.0  0.08375  0.16978  0.66225  1.0000
  H   H19       1.0  0.83022  0.16225  0.41625  1.0000
  H   H20       1.0  0.33022  0.33775  0.58375  1.0000
  H   H21       1.0  0.41625  0.83022  0.16225  1.0000
  H   H22       1.0  0.66225  0.08375  0.16977  1.0000
  H   H23       1.0  0.33775  0.58375  0.33022  1.0000
  H   H24       1.0  0.16225  0.41625  0.83022  1.0000
  C   C1        1.0  0.03001  0.96582  0.32083  1.0000
  C   C2        1.0  0.32083  0.03002  0.96582  1.0000
  C   C3        1.0  0.96582  0.32083  0.03001  1.0000
  C   C4        1.0  0.53419  0.67917  0.53002  1.0000
  C   C5        1.0  0.82082  0.46998  0.03419  1.0000
  C   C6        1.0  0.03419  0.82082  0.46999  1.0000
  C   C7        1.0  0.17918  0.96999  0.46582  1.0000
  C   C8        1.0  0.67917  0.53002  0.53419  1.0000
  C   C9        1.0  0.46581  0.17918  0.96999  1.0000
  C   C10       1.0  0.46998  0.03419  0.82083  1.0000
  C   C11       1.0  0.53002  0.53420  0.67917  1.0000
  C   C12       1.0  0.96999  0.46581  0.17918  1.0000
  C   C13       1.0  0.96998  0.03419  0.67918  1.0000
  C   C14       1.0  0.67919  0.96999  0.03419  1.0000
  C   C15       1.0  0.03419  0.67917  0.96998  1.0000
  C   C16       1.0  0.46581  0.32082  0.46999  1.0000
  C   C17       1.0  0.17917  0.53002  0.96582  1.0000
  C   C18       1.0  0.96581  0.17917  0.53002  1.0000
  C   C19       1.0  0.82083  0.03002  0.53419  1.0000
  C   C20       1.0  0.32082  0.46998  0.46581  1.0000
  C   C21       1.0  0.53418  0.82082  0.03001  1.0000
  C   C22       1.0  0.53001  0.96581  0.17918  1.0000
  C   C23       1.0  0.46999  0.46582  0.32082  1.0000
  C   C24       1.0  0.03001  0.53419  0.82083  1.0000
  S   S1        1.0  0.96299  0.02320  0.20887  1.0000
  S   S2        1.0  0.20887  0.96298  0.02320  1.0000
  S   S3        1.0  0.02320  0.20887  0.96299  1.0000
  S   S4        1.0  0.47680  0.79114  0.46298  1.0000
  S   S5        1.0  0.70887  0.53701  0.97680  1.0000
  S   S6        1.0  0.97680  0.70888  0.53701  1.0000
  S   S7        1.0  0.29112  0.03701  0.52319  1.0000
  S   S8        1.0  0.79113  0.46298  0.47681  1.0000
  S   S9        1.0  0.52320  0.29113  0.03701  1.0000
  S   S10       1.0  0.53701  0.97680  0.70887  1.0000
  S   S11       1.0  0.46298  0.47680  0.79113  1.0000
  S   S12       1.0  0.03702  0.52319  0.29113  1.0000
  S   S13       1.0  0.03701  0.97680  0.79113  1.0000
  S   S14       1.0  0.79113  0.03701  0.97680  1.0000
  S   S15       1.0  0.97681  0.79112  0.03701  1.0000
  S   S16       1.0  0.52319  0.20888  0.53701  1.0000
  S   S17       1.0  0.29113  0.46298  0.02319  1.0000
  S   S18       1.0  0.02319  0.29113  0.46299  1.0000
  S   S19       1.0  0.70887  0.96299  0.47681  1.0000
  S   S20       1.0  0.20888  0.53701  0.52319  1.0000
  S   S21       1.0  0.47681  0.70887  0.96299  1.0000
  S   S22       1.0  0.46299  0.02319  0.29113  1.0000
  S   S23       1.0  0.53701  0.52319  0.20887  1.0000
  S   S24       1.0  0.96299  0.47680  0.70887  1.0000
  N   N1        1.0  0.12669  0.01174  0.36934  1.0000
  N   N2        1.0  0.36934  0.12669  0.01174  1.0000
  N   N3        1.0  0.01174  0.36934  0.12669  1.0000
  N   N4        1.0  0.48826  0.63066  0.62669  1.0000
  N   N5        1.0  0.86935  0.37330  0.98827  1.0000
  N   N6        1.0  0.98826  0.86935  0.37331  1.0000
  N   N7        1.0  0.13065  0.87331  0.51174  1.0000
  N   N8        1.0  0.63065  0.62670  0.48827  1.0000
  N   N9        1.0  0.51174  0.13066  0.87331  1.0000
  N   N10       1.0  0.37331  0.98826  0.86935  1.0000
  N   N11       1.0  0.62669  0.48827  0.63065  1.0000
  N   N12       1.0  0.87330  0.51174  0.13066  1.0000
  N   N13       1.0  0.87331  0.98826  0.63066  1.0000
  N   N14       1.0  0.63066  0.87330  0.98826  1.0000
  N   N15       1.0  0.98826  0.63065  0.87330  1.0000
  N   N16       1.0  0.51174  0.36935  0.37330  1.0000
  N   N17       1.0  0.13066  0.62669  0.01174  1.0000
  N   N18       1.0  0.01174  0.13065  0.62669  1.0000
  N   N19       1.0  0.86934  0.12670  0.48827  1.0000
  N   N20       1.0  0.36934  0.37331  0.51174  1.0000
  N   N21       1.0  0.48827  0.86934  0.12669  1.0000
  N   N22       1.0  0.62670  0.01174  0.13065  1.0000
  N   N23       1.0  0.37331  0.51174  0.36934  1.0000
  N   N24       1.0  0.12669  0.48827  0.86934  1.0000
  Cl  Cl1       1.0  0.22375  0.22374  0.22374  1.0000
  Cl  Cl2       1.0  0.27626  0.77626  0.72374  1.0000
  Cl  Cl3       1.0  0.72374  0.27626  0.77625  1.0000
  Cl  Cl4       1.0  0.77625  0.72374  0.27625  1.0000
  Cl  Cl5       1.0  0.77625  0.77625  0.77625  1.0000
  Cl  Cl6       1.0  0.72374  0.22374  0.27625  1.0000
  Cl  Cl7       1.0  0.27626  0.72374  0.22374  1.0000
  Cl  Cl8       1.0  0.22374  0.27626  0.72374  1.0000
