data_image0
_chemical_formula_structural       Cu8H24C24S24Br8N24
_chemical_formula_sum              "Cu8 H24 C24 S24 Br8 N24"
_cell_length_a       11.7749
_cell_length_b       11.7749
_cell_length_c       11.7749
_cell_angle_alpha    90
_cell_angle_beta     90
_cell_angle_gamma    90

_space_group_name_H-M_alt    "P 1"
_space_group_IT_number       1

loop_
  _space_group_symop_operation_xyz
  'x, y, z'

loop_
  _atom_site_type_symbol
  _atom_site_label
  _atom_site_symmetry_multiplicity
  _atom_site_fract_x
  _atom_site_fract_y
  _atom_site_fract_z
  _atom_site_occupancy
  Cu  Cu1       1.0  0.88950  0.61050  0.38950  1.0000
  Cu  Cu2       1.0  0.38950  0.88950  0.61050  1.0000
  Cu  Cu3       1.0  0.61050  0.38950  0.88950  1.0000
  Cu  Cu4       1.0  0.11050  0.11050  0.11050  1.0000
  Cu  Cu5       1.0  0.11050  0.38950  0.61050  1.0000
  Cu  Cu6       1.0  0.61050  0.11050  0.38950  1.0000
  Cu  Cu7       1.0  0.38950  0.61050  0.11050  1.0000
  Cu  Cu8       1.0  0.88950  0.88950  0.88950  1.0000
  H   H1        1.0  0.16583  0.83543  0.58206  1.0000
  H   H2        1.0  0.58206  0.16583  0.83543  1.0000
  H   H3        1.0  0.83542  0.58206  0.16583  1.0000
  H   H4        1.0  0.33417  0.16457  0.08206  1.0000
  H   H5        1.0  0.83417  0.33542  0.91794  1.0000
  H   H6        1.0  0.66583  0.66457  0.41794  1.0000
  H   H7        1.0  0.08206  0.33418  0.16457  1.0000
  H   H8        1.0  0.91794  0.83417  0.33542  1.0000
  H   H9        1.0  0.41794  0.66583  0.66458  1.0000
  H   H10       1.0  0.16457  0.08206  0.33417  1.0000
  H   H11       1.0  0.33543  0.91794  0.83417  1.0000
  H   H12       1.0  0.66457  0.41794  0.66583  1.0000
  H   H13       1.0  0.83417  0.16457  0.41794  1.0000
  H   H14       1.0  0.41794  0.83417  0.16458  1.0000
  H   H15       1.0  0.16457  0.41794  0.83417  1.0000
  H   H16       1.0  0.66583  0.83543  0.91794  1.0000
  H   H17       1.0  0.16583  0.66457  0.08206  1.0000
  H   H18       1.0  0.33417  0.33542  0.58206  1.0000
  H   H19       1.0  0.91794  0.66583  0.83542  1.0000
  H   H20       1.0  0.08206  0.16583  0.66458  1.0000
  H   H21       1.0  0.58206  0.33417  0.33543  1.0000
  H   H22       1.0  0.83542  0.91794  0.66583  1.0000
  H   H23       1.0  0.66457  0.08206  0.16583  1.0000
  H   H24       1.0  0.33543  0.58206  0.33417  1.0000
  C   C1        1.0  0.03315  0.82127  0.46731  1.0000
  C   C2        1.0  0.46731  0.03315  0.82128  1.0000
  C   C3        1.0  0.82126  0.46731  0.03315  1.0000
  C   C4        1.0  0.46684  0.17873  0.96731  1.0000
  C   C5        1.0  0.96685  0.32126  0.03269  1.0000
  C   C6        1.0  0.53315  0.67873  0.53269  1.0000
  C   C7        1.0  0.96731  0.46685  0.17873  1.0000
  C   C8        1.0  0.03269  0.96685  0.32126  1.0000
  C   C9        1.0  0.53269  0.53316  0.67874  1.0000
  C   C10       1.0  0.17873  0.96731  0.46684  1.0000
  C   C11       1.0  0.32127  0.03269  0.96684  1.0000
  C   C12       1.0  0.67873  0.53269  0.53316  1.0000
  C   C13       1.0  0.96684  0.17873  0.53269  1.0000
  C   C14       1.0  0.53269  0.96685  0.17874  1.0000
  C   C15       1.0  0.17873  0.53269  0.96684  1.0000
  C   C16       1.0  0.53316  0.82127  0.03269  1.0000
  C   C17       1.0  0.03315  0.67873  0.96731  1.0000
  C   C18       1.0  0.46684  0.32127  0.46731  1.0000
  C   C19       1.0  0.03269  0.53316  0.82127  1.0000
  C   C20       1.0  0.96730  0.03315  0.67872  1.0000
  C   C21       1.0  0.46732  0.46684  0.32126  1.0000
  C   C22       1.0  0.82126  0.03268  0.53316  1.0000
  C   C23       1.0  0.67873  0.96731  0.03316  1.0000
  C   C24       1.0  0.32127  0.46731  0.46684  1.0000
  S   S1        1.0  0.97508  0.70940  0.53084  1.0000
  S   S2        1.0  0.53085  0.97508  0.70940  1.0000
  S   S3        1.0  0.70940  0.53084  0.97508  1.0000
  S   S4        1.0  0.52492  0.29060  0.03084  1.0000
  S   S5        1.0  0.02492  0.20940  0.96915  1.0000
  S   S6        1.0  0.47508  0.79060  0.46916  1.0000
  S   S7        1.0  0.03084  0.52492  0.29059  1.0000
  S   S8        1.0  0.96915  0.02492  0.20940  1.0000
  S   S9        1.0  0.46916  0.47508  0.79060  1.0000
  S   S10       1.0  0.29060  0.03084  0.52492  1.0000
  S   S11       1.0  0.20940  0.96915  0.02492  1.0000
  S   S12       1.0  0.79060  0.46916  0.47508  1.0000
  S   S13       1.0  0.02492  0.29060  0.46916  1.0000
  S   S14       1.0  0.46916  0.02492  0.29060  1.0000
  S   S15       1.0  0.29060  0.46916  0.02492  1.0000
  S   S16       1.0  0.47508  0.70940  0.96916  1.0000
  S   S17       1.0  0.97508  0.79060  0.03084  1.0000
  S   S18       1.0  0.52492  0.20940  0.53084  1.0000
  S   S19       1.0  0.96916  0.47508  0.70940  1.0000
  S   S20       1.0  0.03085  0.97507  0.79060  1.0000
  S   S21       1.0  0.53084  0.52492  0.20940  1.0000
  S   S22       1.0  0.70940  0.96915  0.47508  1.0000
  S   S23       1.0  0.79060  0.03084  0.97508  1.0000
  S   S24       1.0  0.20940  0.53084  0.52492  1.0000
  Br  Br1       1.0  0.76557  0.73443  0.26557  1.0000
  Br  Br2       1.0  0.26557  0.76557  0.73443  1.0000
  Br  Br3       1.0  0.73443  0.26557  0.76557  1.0000
  Br  Br4       1.0  0.23443  0.23443  0.23443  1.0000
  Br  Br5       1.0  0.23443  0.26557  0.73443  1.0000
  Br  Br6       1.0  0.73443  0.23443  0.26557  1.0000
  Br  Br7       1.0  0.26557  0.73443  0.23443  1.0000
  Br  Br8       1.0  0.76557  0.76557  0.76557  1.0000
  N   N1        1.0  0.98925  0.87147  0.37204  1.0000
  N   N2        1.0  0.37204  0.98925  0.87148  1.0000
  N   N3        1.0  0.87148  0.37204  0.98925  1.0000
  N   N4        1.0  0.51074  0.12851  0.87204  1.0000
  N   N5        1.0  0.01075  0.37148  0.12796  1.0000
  N   N6        1.0  0.48925  0.62852  0.62796  1.0000
  N   N7        1.0  0.87204  0.51074  0.12852  1.0000
  N   N8        1.0  0.12797  0.01075  0.37148  1.0000
  N   N9        1.0  0.62797  0.48925  0.62852  1.0000
  N   N10       1.0  0.12852  0.87204  0.51074  1.0000
  N   N11       1.0  0.37148  0.12797  0.01075  1.0000
  N   N12       1.0  0.62852  0.62796  0.48926  1.0000
  N   N13       1.0  0.01074  0.12852  0.62796  1.0000
  N   N14       1.0  0.62797  0.01074  0.12852  1.0000
  N   N15       1.0  0.12852  0.62796  0.01074  1.0000
  N   N16       1.0  0.48925  0.87148  0.12796  1.0000
  N   N17       1.0  0.98925  0.62852  0.87204  1.0000
  N   N18       1.0  0.51075  0.37148  0.37203  1.0000
  N   N19       1.0  0.12796  0.48925  0.87148  1.0000
  N   N20       1.0  0.87204  0.98925  0.62853  1.0000
  N   N21       1.0  0.37204  0.51074  0.37149  1.0000
  N   N22       1.0  0.87148  0.12797  0.48925  1.0000
  N   N23       1.0  0.62852  0.87204  0.98926  1.0000
  N   N24       1.0  0.37148  0.37203  0.51075  1.0000
