data_image0
_chemical_formula_structural       Cu6H20C24N12O12
_chemical_formula_sum              "Cu6 H20 C24 N12 O12"
_cell_length_a       7.01359
_cell_length_b       9.41832
_cell_length_c       13.5208
_cell_angle_alpha    89.9987
_cell_angle_beta     104.412
_cell_angle_gamma    90.0009

_space_group_name_H-M_alt    "P 1"
_space_group_IT_number       1

loop_
  _space_group_symop_operation_xyz
  'x, y, z'

loop_
  _atom_site_type_symbol
  _atom_site_label
  _atom_site_symmetry_multiplicity
  _atom_site_fract_x
  _atom_site_fract_y
  _atom_site_fract_z
  _atom_site_occupancy
  Cu  Cu1       1.0  1.00000  1.00000  0.50000  1.0000
  Cu  Cu2       1.0  0.50000  0.50000  0.50000  1.0000
  Cu  Cu3       1.0  0.78995  0.97077  0.96421  1.0000
  Cu  Cu4       1.0  0.71005  0.47076  0.03579  1.0000
  Cu  Cu5       1.0  0.21007  0.02923  0.03579  1.0000
  Cu  Cu6       1.0  0.28994  0.52924  0.96421  1.0000
  H   H1        1.0  0.57154  0.00163  0.39993  1.0000
  H   H2        1.0  0.92847  0.50164  0.60008  1.0000
  H   H3        1.0  0.42846  0.99837  0.60007  1.0000
  H   H4        1.0  0.07153  0.49836  0.39992  1.0000
  H   H5        1.0  0.60553  0.86732  0.47669  1.0000
  H   H6        1.0  0.89448  0.36732  0.52331  1.0000
  H   H7        1.0  0.39447  0.13269  0.52331  1.0000
  H   H8        1.0  0.10552  0.63268  0.47669  1.0000
  H   H9        1.0  0.89345  0.23422  0.64617  1.0000
  H   H10       1.0  0.60656  0.73422  0.35382  1.0000
  H   H11       1.0  0.10654  0.76578  0.35382  1.0000
  H   H12       1.0  0.39345  0.26577  0.64618  1.0000
  H   H13       1.0  0.96579  0.78128  0.82760  1.0000
  H   H14       1.0  0.53422  0.28127  0.17241  1.0000
  H   H15       1.0  0.03421  0.21872  0.17240  1.0000
  H   H16       1.0  0.46579  0.71873  0.82759  1.0000
  H   H17       1.0  0.84987  0.21484  0.82528  1.0000
  H   H18       1.0  0.65015  0.71482  0.17473  1.0000
  H   H19       1.0  0.15013  0.78515  0.17472  1.0000
  H   H20       1.0  0.34986  0.28518  0.82527  1.0000
  C   C1        1.0  0.02328  0.76583  0.63196  1.0000
  C   C2        1.0  0.47673  0.26584  0.36804  1.0000
  C   C3        1.0  0.97672  0.23417  0.36805  1.0000
  C   C4        1.0  0.52327  0.73416  0.63196  1.0000
  C   C5        1.0  0.97830  0.89252  0.68958  1.0000
  C   C6        1.0  0.52170  0.39252  0.31044  1.0000
  C   C7        1.0  0.02170  0.10747  0.31042  1.0000
  C   C8        1.0  0.47830  0.60748  0.68956  1.0000
  C   C9        1.0  0.91182  0.13265  0.68666  1.0000
  C   C10       1.0  0.58818  0.63266  0.31333  1.0000
  C   C11       1.0  0.08817  0.86734  0.31334  1.0000
  C   C12       1.0  0.41183  0.36734  0.68666  1.0000
  C   C13       1.0  0.95070  0.88284  0.78776  1.0000
  C   C14       1.0  0.54931  0.38284  0.21225  1.0000
  C   C15       1.0  0.04929  0.11716  0.21224  1.0000
  C   C16       1.0  0.45070  0.61716  0.78775  1.0000
  C   C17       1.0  0.77850  0.78094  0.99496  1.0000
  C   C18       1.0  0.72149  0.28094  0.00504  1.0000
  C   C19       1.0  0.22148  0.21907  0.00504  1.0000
  C   C20       1.0  0.27852  0.71906  0.99496  1.0000
  C   C21       1.0  0.88571  0.12179  0.78530  1.0000
  C   C22       1.0  0.61430  0.62181  0.21470  1.0000
  C   C23       1.0  0.11429  0.87821  0.21469  1.0000
  C   C24       1.0  0.38571  0.37819  0.78530  1.0000
  N   N1        1.0  0.95853  0.01728  0.63950  1.0000
  N   N2        1.0  0.54148  0.51729  0.36049  1.0000
  N   N3        1.0  0.04147  0.98271  0.36050  1.0000
  N   N4        1.0  0.45853  0.48271  0.63951  1.0000
  N   N5        1.0  0.90445  0.99758  0.83582  1.0000
  N   N6        1.0  0.59557  0.49761  0.16418  1.0000
  N   N7        1.0  0.09554  0.00242  0.16418  1.0000
  N   N8        1.0  0.40444  0.50239  0.83582  1.0000
  N   N9        1.0  0.77260  0.65848  0.01136  1.0000
  N   N10       1.0  0.72739  0.15849  0.98863  1.0000
  N   N11       1.0  0.22741  0.34151  0.98865  1.0000
  N   N12       1.0  0.27260  0.84152  0.01136  1.0000
  O   O1        1.0  0.04841  0.79251  0.54234  1.0000
  O   O2        1.0  0.45158  0.29251  0.45766  1.0000
  O   O3        1.0  0.95159  0.20748  0.45766  1.0000
  O   O4        1.0  0.54841  0.70749  0.54234  1.0000
  O   O5        1.0  0.03252  0.64578  0.67228  1.0000
  O   O6        1.0  0.46748  0.14578  0.32774  1.0000
  O   O7        1.0  0.96749  0.35422  0.32772  1.0000
  O   O8        1.0  0.53252  0.85422  0.67226  1.0000
  O   O9        1.0  0.66410  0.92489  0.43089  1.0000
  O   O10       1.0  0.83591  0.42489  0.56911  1.0000
  O   O11       1.0  0.33590  0.07511  0.56911  1.0000
  O   O12       1.0  0.16409  0.57511  0.43089  1.0000
