data_image0
_chemical_formula_structural       Zn2P4H28C12N4O12
_chemical_formula_sum              "Zn2 P4 H28 C12 N4 O12"
_cell_length_a       8.23742
_cell_length_b       8.88054
_cell_length_c       8.90527
_cell_angle_alpha    62.9738
_cell_angle_beta     87.5875
_cell_angle_gamma    80.01

_space_group_name_H-M_alt    "P 1"
_space_group_IT_number       1

loop_
  _space_group_symop_operation_xyz
  'x, y, z'

loop_
  _atom_site_type_symbol
  _atom_site_label
  _atom_site_symmetry_multiplicity
  _atom_site_fract_x
  _atom_site_fract_y
  _atom_site_fract_z
  _atom_site_occupancy
  Zn  Zn1       1.0  0.25579  0.07862  0.41418  1.0000
  Zn  Zn2       1.0  0.74421  0.92139  0.58582  1.0000
  P   P1        1.0  0.44751  0.02544  0.75291  1.0000
  P   P2        1.0  0.55249  0.97456  0.24709  1.0000
  P   P3        1.0  0.92159  0.26189  0.45145  1.0000
  P   P4        1.0  0.07841  0.73811  0.54855  1.0000
  H   H1        1.0  0.28633  0.80390  0.82548  1.0000
  H   H2        1.0  0.71367  0.19610  0.17452  1.0000
  H   H3        1.0  0.36252  0.80798  0.01148  1.0000
  H   H4        1.0  0.63749  0.19201  0.98852  1.0000
  H   H5        1.0  0.89069  0.56975  0.35493  1.0000
  H   H6        1.0  0.10931  0.43025  0.64507  1.0000
  H   H7        1.0  0.79669  0.52195  0.20848  1.0000
  H   H8        1.0  0.20331  0.47805  0.79152  1.0000
  H   H9        1.0  0.23473  0.14838  0.95755  1.0000
  H   H10       1.0  0.76527  0.85162  0.04246  1.0000
  H   H11       1.0  0.20075  0.95835  0.13336  1.0000
  H   H12       1.0  0.79926  0.04165  0.86664  1.0000
  H   H13       1.0  0.60602  0.66832  0.32213  1.0000
  H   H14       1.0  0.39398  0.33168  0.67787  1.0000
  H   H15       1.0  0.07333  0.74811  0.09293  1.0000
  H   H16       1.0  0.92667  0.25189  0.90707  1.0000
  H   H17       1.0  0.00735  0.79668  0.88338  1.0000
  H   H18       1.0  0.99265  0.20332  0.11663  1.0000
  H   H19       1.0  0.55022  0.31103  0.42975  1.0000
  H   H20       1.0  0.44978  0.68897  0.57025  1.0000
  H   H21       1.0  0.51244  0.49330  0.22839  1.0000
  H   H22       1.0  0.48755  0.50671  0.77161  1.0000
  H   H23       1.0  0.74227  0.55469  0.60300  1.0000
  H   H24       1.0  0.25773  0.44531  0.39700  1.0000
  H   H25       1.0  0.68963  0.34900  0.65751  1.0000
  H   H26       1.0  0.31037  0.65100  0.34249  1.0000
  H   H27       1.0  0.08585  0.07257  0.77714  1.0000
  H   H28       1.0  0.91415  0.92742  0.22286  1.0000
  C   C1        1.0  0.30452  0.88505  0.88443  1.0000
  C   C2        1.0  0.69548  0.11495  0.11557  1.0000
  C   C3        1.0  0.81280  0.48624  0.34306  1.0000
  C   C4        1.0  0.18719  0.51376  0.65694  1.0000
  C   C5        1.0  0.14767  0.05893  0.01077  1.0000
  C   C6        1.0  0.85233  0.94106  0.98923  1.0000
  C   C7        1.0  0.01963  0.85064  0.97088  1.0000
  C   C8        1.0  0.98037  0.14936  0.02912  1.0000
  C   C9        1.0  0.51623  0.45079  0.36503  1.0000
  C   C10       1.0  0.48377  0.54921  0.63497  1.0000
  C   C11       1.0  0.65055  0.48815  0.58432  1.0000
  C   C12       1.0  0.34945  0.51185  0.41568  1.0000
  N   N1        1.0  0.64637  0.52911  0.40203  1.0000
  N   N2        1.0  0.35362  0.47089  0.59798  1.0000
  N   N3        1.0  0.13797  0.97458  0.89969  1.0000
  N   N4        1.0  0.86204  0.02542  0.10031  1.0000
  O   O1        1.0  0.37389  0.12091  0.57155  1.0000
  O   O2        1.0  0.62611  0.87909  0.42844  1.0000
  O   O3        1.0  0.60537  0.89409  0.77618  1.0000
  O   O4        1.0  0.39463  0.10591  0.22382  1.0000
  O   O5        1.0  0.06273  0.26411  0.33062  1.0000
  O   O6        1.0  0.93728  0.73589  0.66938  1.0000
  O   O7        1.0  0.79709  0.15147  0.45054  1.0000
  O   O8        1.0  0.20292  0.84853  0.54946  1.0000
  O   O9        1.0  0.46584  0.15803  0.81338  1.0000
  O   O10       1.0  0.53416  0.84197  0.18662  1.0000
  O   O11       1.0  0.97849  0.22617  0.62720  1.0000
  O   O12       1.0  0.02152  0.77383  0.37280  1.0000
