data_image0
_chemical_formula_structural       Ag2H20C18S2N4O6
_chemical_formula_sum              "Ag2 H20 C18 S2 N4 O6"
_cell_length_a       7.36803
_cell_length_b       7.88104
_cell_length_c       9.84585
_cell_angle_alpha    110.386
_cell_angle_beta     93.1154
_cell_angle_gamma    93.2683

_space_group_name_H-M_alt    "P 1"
_space_group_IT_number       1

loop_
  _space_group_symop_operation_xyz
  'x, y, z'

loop_
  _atom_site_type_symbol
  _atom_site_label
  _atom_site_symmetry_multiplicity
  _atom_site_fract_x
  _atom_site_fract_y
  _atom_site_fract_z
  _atom_site_occupancy
  Ag  Ag1       1.0  0.45211  0.35470  0.28650  1.0000
  Ag  Ag2       1.0  0.54789  0.64530  0.71349  1.0000
  H   H1        1.0  0.14964  0.93058  0.14894  1.0000
  H   H2        1.0  0.85036  0.06942  0.85106  1.0000
  H   H3        1.0  0.41119  0.96387  0.32978  1.0000
  H   H4        1.0  0.58881  0.03613  0.67022  1.0000
  H   H5        1.0  0.39983  0.16161  0.58883  1.0000
  H   H6        1.0  0.60017  0.83839  0.41117  1.0000
  H   H7        1.0  0.12734  0.33324  0.67102  1.0000
  H   H8        1.0  0.87266  0.66676  0.32898  1.0000
  H   H9        1.0  0.18682  0.60320  0.14702  1.0000
  H   H10       1.0  0.81318  0.39680  0.85298  1.0000
  H   H11       1.0  0.17414  0.46904  0.95918  1.0000
  H   H12       1.0  0.82586  0.53095  0.04081  1.0000
  H   H13       1.0  0.52125  0.61048  0.16376  1.0000
  H   H14       1.0  0.47875  0.38952  0.83624  1.0000
  H   H15       1.0  0.43923  0.69253  0.02776  1.0000
  H   H16       1.0  0.56077  0.30747  0.97223  1.0000
  H   H17       1.0  0.27456  0.22493  0.01851  1.0000
  H   H18       1.0  0.72544  0.77507  0.98148  1.0000
  H   H19       1.0  0.12093  0.31013  0.13271  1.0000
  H   H20       1.0  0.87907  0.68987  0.86728  1.0000
  C   C1        1.0  0.99560  0.11320  0.31260  1.0000
  C   C2        1.0  0.00440  0.88680  0.68740  1.0000
  C   C3        1.0  0.14398  0.01511  0.26282  1.0000
  C   C4        1.0  0.85602  0.98489  0.73719  1.0000
  C   C5        1.0  0.29045  0.03513  0.36571  1.0000
  C   C6        1.0  0.70955  0.96487  0.63429  1.0000
  C   C7        1.0  0.28381  0.14702  0.51128  1.0000
  C   C8        1.0  0.71619  0.85298  0.48872  1.0000
  C   C9        1.0  0.13184  0.24364  0.55854  1.0000
  C   C10       1.0  0.86816  0.75636  0.44147  1.0000
  C   C11       1.0  0.98715  0.22668  0.45659  1.0000
  C   C12       1.0  0.01285  0.77332  0.54341  1.0000
  C   C13       1.0  0.81561  0.32311  0.47828  1.0000
  C   C14       1.0  0.18439  0.67689  0.52173  1.0000
  C   C15       1.0  0.25349  0.49859  0.06436  1.0000
  C   C16       1.0  0.74651  0.50141  0.93564  1.0000
  C   C17       1.0  0.44713  0.56917  0.05506  1.0000
  C   C18       1.0  0.55286  0.43083  0.94494  1.0000
  S   S1        1.0  0.79569  0.13274  0.21353  1.0000
  S   S2        1.0  0.20431  0.86726  0.78647  1.0000
  N   N1        1.0  0.70898  0.28206  0.35115  1.0000
  N   N2        1.0  0.29102  0.71794  0.64885  1.0000
  N   N3        1.0  0.24960  0.33569  0.10636  1.0000
  N   N4        1.0  0.75040  0.66431  0.89364  1.0000
  O   O1        1.0  0.67868  0.96394  0.16121  1.0000
  O   O2        1.0  0.32132  0.03606  0.83879  1.0000
  O   O3        1.0  0.77880  0.42821  0.59898  1.0000
  O   O4        1.0  0.22119  0.57178  0.40102  1.0000
  O   O5        1.0  0.84283  0.20902  0.10357  1.0000
  O   O6        1.0  0.15717  0.79099  0.89644  1.0000
