data_image0
_chemical_formula_structural       Zn4P4H24C12N4O12
_chemical_formula_sum              "Zn4 P4 H24 C12 N4 O12"
_cell_length_a       6.22289
_cell_length_b       8.48553
_cell_length_c       10.6634
_cell_angle_alpha    90
_cell_angle_beta     90
_cell_angle_gamma    101.236

_space_group_name_H-M_alt    "P 1"
_space_group_IT_number       1

loop_
  _space_group_symop_operation_xyz
  'x, y, z'

loop_
  _atom_site_type_symbol
  _atom_site_label
  _atom_site_symmetry_multiplicity
  _atom_site_fract_x
  _atom_site_fract_y
  _atom_site_fract_z
  _atom_site_occupancy
  Zn  Zn1       1.0  0.84039  0.27494  0.10495  1.0000
  Zn  Zn2       1.0  0.65961  0.22506  0.60495  1.0000
  Zn  Zn3       1.0  0.15961  0.72506  0.89505  1.0000
  Zn  Zn4       1.0  0.34039  0.77494  0.39505  1.0000
  P   P1        1.0  0.75309  0.09519  0.34303  1.0000
  P   P2        1.0  0.74691  0.40481  0.84303  1.0000
  P   P3        1.0  0.24691  0.90481  0.65697  1.0000
  P   P4        1.0  0.25309  0.59519  0.15697  1.0000
  H   H1        1.0  0.13796  0.15427  0.28991  1.0000
  H   H2        1.0  0.36204  0.34572  0.78991  1.0000
  H   H3        1.0  0.86204  0.84573  0.71009  1.0000
  H   H4        1.0  0.63796  0.65428  0.21009  1.0000
  H   H5        1.0  0.03654  0.94315  0.29239  1.0000
  H   H6        1.0  0.46346  0.55685  0.79239  1.0000
  H   H7        1.0  0.96346  0.05685  0.70761  1.0000
  H   H8        1.0  0.53654  0.44316  0.20761  1.0000
  H   H9        1.0  0.30092  0.18805  0.09588  1.0000
  H   H10       1.0  0.19908  0.31195  0.59588  1.0000
  H   H11       1.0  0.69908  0.81195  0.90412  1.0000
  H   H12       1.0  0.80092  0.68805  0.40412  1.0000
  H   H13       1.0  0.26545  0.97435  0.09517  1.0000
  H   H14       1.0  0.23455  0.52565  0.59517  1.0000
  H   H15       1.0  0.73455  0.02565  0.90483  1.0000
  H   H16       1.0  0.76545  0.47435  0.40483  1.0000
  H   H17       1.0  0.66384  0.91279  0.11884  1.0000
  H   H18       1.0  0.83616  0.58721  0.61884  1.0000
  H   H19       1.0  0.33616  0.08721  0.88116  1.0000
  H   H20       1.0  0.16384  0.41279  0.38116  1.0000
  H   H21       1.0  0.88985  0.81314  0.10731  1.0000
  H   H22       1.0  0.61015  0.68686  0.60731  1.0000
  H   H23       1.0  0.11015  0.18686  0.89269  1.0000
  H   H24       1.0  0.38985  0.31314  0.39268  1.0000
  C   C1        1.0  0.99993  0.05923  0.26312  1.0000
  C   C2        1.0  0.50007  0.44077  0.76312  1.0000
  C   C3        1.0  0.00007  0.94077  0.73688  1.0000
  C   C4        1.0  0.49993  0.55923  0.23688  1.0000
  C   C5        1.0  0.19372  0.07706  0.06435  1.0000
  C   C6        1.0  0.30628  0.42294  0.56435  1.0000
  C   C7        1.0  0.80628  0.92294  0.93565  1.0000
  C   C8        1.0  0.69372  0.57706  0.43565  1.0000
  C   C9        1.0  0.82627  0.91972  0.07695  1.0000
  C   C10       1.0  0.67373  0.58028  0.57695  1.0000
  C   C11       1.0  0.17373  0.08028  0.92305  1.0000
  C   C12       1.0  0.32627  0.41972  0.42305  1.0000
  N   N1        1.0  0.97612  0.06569  0.12447  1.0000
  N   N2        1.0  0.52388  0.43431  0.62447  1.0000
  N   N3        1.0  0.02388  0.93431  0.87553  1.0000
  N   N4        1.0  0.47612  0.56569  0.37553  1.0000
  O   O1        1.0  0.65627  0.20926  0.25573  1.0000
  O   O2        1.0  0.84374  0.29074  0.75573  1.0000
  O   O3        1.0  0.34373  0.79074  0.74427  1.0000
  O   O4        1.0  0.15626  0.70926  0.24427  1.0000
  O   O5        1.0  0.83531  0.17632  0.46839  1.0000
  O   O6        1.0  0.66469  0.32368  0.96839  1.0000
  O   O7        1.0  0.16469  0.82368  0.53161  1.0000
  O   O8        1.0  0.33531  0.67632  0.03161  1.0000
  O   O9        1.0  0.60163  0.93226  0.35938  1.0000
  O   O10       1.0  0.89837  0.56773  0.85939  1.0000
  O   O11       1.0  0.39837  0.06773  0.64062  1.0000
  O   O12       1.0  0.10163  0.43226  0.14062  1.0000
