data_image0
_chemical_formula_structural       Fe6H42C42O18
_chemical_formula_sum              "Fe6 H42 C42 O18"
_cell_length_a       7.01885
_cell_length_b       15.1037
_cell_length_c       15.1081
_cell_angle_alpha    117.632
_cell_angle_beta     98.9255
_cell_angle_gamma    98.9106

_space_group_name_H-M_alt    "P 1"
_space_group_IT_number       1

loop_
  _space_group_symop_operation_xyz
  'x, y, z'

loop_
  _atom_site_type_symbol
  _atom_site_label
  _atom_site_symmetry_multiplicity
  _atom_site_fract_x
  _atom_site_fract_y
  _atom_site_fract_z
  _atom_site_occupancy
  Fe  Fe1       1.0  0.46066  0.25937  0.57617  1.0000
  Fe  Fe2       1.0  0.20129  0.31680  0.74055  1.0000
  Fe  Fe3       1.0  0.88451  0.42396  0.68339  1.0000
  Fe  Fe4       1.0  0.53934  0.74063  0.42383  1.0000
  Fe  Fe5       1.0  0.79871  0.68320  0.25946  1.0000
  Fe  Fe6       1.0  0.11549  0.57604  0.31661  1.0000
  H   H1        1.0  0.18989  0.55311  0.53091  1.0000
  H   H2        1.0  0.63678  0.97792  0.44706  1.0000
  H   H3        1.0  0.65894  0.46921  0.02216  1.0000
  H   H4        1.0  0.81011  0.44690  0.46909  1.0000
  H   H5        1.0  0.36323  0.02208  0.55295  1.0000
  H   H6        1.0  0.34106  0.53079  0.97784  1.0000
  H   H7        1.0  0.22998  0.31966  0.92747  1.0000
  H   H8        1.0  0.91035  0.60777  0.68030  1.0000
  H   H9        1.0  0.30245  0.07241  0.39233  1.0000
  H   H10       1.0  0.77002  0.68034  0.07253  1.0000
  H   H11       1.0  0.08964  0.39223  0.31970  1.0000
  H   H12       1.0  0.69755  0.92759  0.60767  1.0000
  H   H13       1.0  0.95051  0.13634  0.72288  1.0000
  H   H14       1.0  0.81442  0.58640  0.86357  1.0000
  H   H15       1.0  0.22818  0.27723  0.41391  1.0000
  H   H16       1.0  0.04949  0.86366  0.27712  1.0000
  H   H17       1.0  0.18558  0.41360  0.13643  1.0000
  H   H18       1.0  0.77182  0.72277  0.58609  1.0000
  H   H19       1.0  0.89512  0.25972  0.80823  1.0000
  H   H20       1.0  0.63544  0.54846  0.74027  1.0000
  H   H21       1.0  0.08712  0.19183  0.45184  1.0000
  H   H22       1.0  0.10488  0.74029  0.19177  1.0000
  H   H23       1.0  0.36456  0.45154  0.25973  1.0000
  H   H24       1.0  0.91288  0.80817  0.54816  1.0000
  H   H25       1.0  0.33393  0.15573  0.90561  1.0000
  H   H26       1.0  0.17793  0.74985  0.84423  1.0000
  H   H27       1.0  0.42783  0.09439  0.25034  1.0000
  H   H28       1.0  0.66606  0.84427  0.09439  1.0000
  H   H29       1.0  0.82206  0.25014  0.15577  1.0000
  H   H30       1.0  0.57217  0.90561  0.74967  1.0000
  H   H31       1.0  0.48117  0.21775  0.85535  1.0000
  H   H32       1.0  0.26369  0.63770  0.78241  1.0000
  H   H33       1.0  0.62583  0.14465  0.36243  1.0000
  H   H34       1.0  0.51882  0.78224  0.14465  1.0000
  H   H35       1.0  0.73630  0.36230  0.21758  1.0000
  H   H36       1.0  0.37417  0.85535  0.63757  1.0000
  H   H37       1.0  0.28004  0.10587  0.76939  1.0000
  H   H38       1.0  0.17413  0.66351  0.89417  1.0000
  H   H39       1.0  0.51036  0.23064  0.33668  1.0000
  H   H40       1.0  0.71996  0.89413  0.23061  1.0000
  H   H41       1.0  0.82587  0.33649  0.10583  1.0000
  H   H42       1.0  0.48963  0.76935  0.66332  1.0000
  C   C1        1.0  0.26123  0.43467  0.61092  1.0000
  C   C2        1.0  0.82666  0.17624  0.56540  1.0000
  C   C3        1.0  0.65029  0.38916  0.82384  1.0000
  C   C4        1.0  0.73877  0.56533  0.38908  1.0000
  C   C5        1.0  0.17334  0.82377  0.43460  1.0000
  C   C6        1.0  0.34971  0.61083  0.17616  1.0000
  C   C7        1.0  0.38698  0.46560  0.55362  1.0000
  C   C8        1.0  0.92144  0.08797  0.53441  1.0000
  C   C9        1.0  0.83339  0.44642  0.91204  1.0000
  C   C10       1.0  0.61302  0.53440  0.44637  1.0000
  C   C11       1.0  0.07857  0.91203  0.46559  1.0000
  C   C12       1.0  0.16661  0.55357  0.08797  1.0000
  C   C13       1.0  0.56547  0.43479  0.53520  1.0000
  C   C14       1.0  0.13073  0.10040  0.56525  1.0000
  C   C15       1.0  0.03028  0.46476  0.89963  1.0000
  C   C16       1.0  0.43454  0.56522  0.46480  1.0000
  C   C17       1.0  0.86927  0.89960  0.43475  1.0000
  C   C18       1.0  0.96972  0.53524  0.10037  1.0000
  C   C19       1.0  0.32676  0.52976  0.51766  1.0000
  C   C20       1.0  0.79695  0.98789  0.47027  1.0000
  C   C21       1.0  0.80907  0.48242  0.01211  1.0000
  C   C22       1.0  0.67325  0.47024  0.48234  1.0000
  C   C23       1.0  0.20306  0.01211  0.52973  1.0000
  C   C24       1.0  0.19093  0.51757  0.98789  1.0000
  C   C25       1.0  0.18790  0.24490  0.85576  1.0000
  C   C26       1.0  0.94317  0.61082  0.75506  1.0000
  C   C27       1.0  0.33225  0.14421  0.38942  1.0000
  C   C28       1.0  0.81210  0.75511  0.14424  1.0000
  C   C29       1.0  0.05683  0.38918  0.24494  1.0000
  C   C30       1.0  0.66775  0.85578  0.61058  1.0000
  C   C31       1.0  0.00415  0.21428  0.78981  1.0000
  C   C32       1.0  0.78999  0.57538  0.78562  1.0000
  C   C33       1.0  0.21467  0.21026  0.42490  1.0000
  C   C34       1.0  0.99584  0.78572  0.21019  1.0000
  C   C35       1.0  0.21001  0.42462  0.21438  1.0000
  C   C36       1.0  0.78532  0.78974  0.57510  1.0000
  C   C37       1.0  0.32811  0.17729  0.84494  1.0000
  C   C38       1.0  0.15090  0.66765  0.82275  1.0000
  C   C39       1.0  0.48301  0.15507  0.33254  1.0000
  C   C40       1.0  0.67188  0.82271  0.15506  1.0000
  C   C41       1.0  0.84910  0.33235  0.17725  1.0000
  C   C42       1.0  0.51699  0.84493  0.66746  1.0000
  O   O1        1.0  0.32951  0.38843  0.65703  1.0000
  O   O2        1.0  0.94105  0.26861  0.61152  1.0000
  O   O3        1.0  0.67241  0.34299  0.73152  1.0000
  O   O4        1.0  0.67049  0.61157  0.34297  1.0000
  O   O5        1.0  0.05896  0.73139  0.38848  1.0000
  O   O6        1.0  0.32759  0.65701  0.26848  1.0000
  O   O7        1.0  0.09561  0.45827  0.61375  1.0000
  O   O8        1.0  0.63744  0.15547  0.54201  1.0000
  O   O9        1.0  0.48180  0.38637  0.84454  1.0000
  O   O10       1.0  0.90439  0.54173  0.38625  1.0000
  O   O11       1.0  0.36257  0.84453  0.45800  1.0000
  O   O12       1.0  0.51821  0.61364  0.15546  1.0000
  O   O13       1.0  0.63634  0.37204  0.56526  1.0000
  O   O14       1.0  0.26436  0.19316  0.62802  1.0000
  O   O15       1.0  0.07102  0.43472  0.80686  1.0000
  O   O16       1.0  0.36366  0.62795  0.43474  1.0000
  O   O17       1.0  0.73565  0.80684  0.37198  1.0000
  O   O18       1.0  0.92898  0.56528  0.19314  1.0000
