data_image0
_chemical_formula_structural       Zn2H24C24N4Cl4
_chemical_formula_sum              "Zn2 H24 C24 N4 Cl4"
_cell_length_a       5.35861
_cell_length_b       8.90316
_cell_length_c       13.6602
_cell_angle_alpha    85.0444
_cell_angle_beta     82.7139
_cell_angle_gamma    83.1286

_space_group_name_H-M_alt    "P 1"
_space_group_IT_number       1

loop_
  _space_group_symop_operation_xyz
  'x, y, z'

loop_
  _atom_site_type_symbol
  _atom_site_label
  _atom_site_symmetry_multiplicity
  _atom_site_fract_x
  _atom_site_fract_y
  _atom_site_fract_z
  _atom_site_occupancy
  Zn  Zn1       1.0  0.62907  0.96245  0.75967  1.0000
  Zn  Zn2       1.0  0.37092  0.03755  0.24034  1.0000
  H   H1        1.0  0.04584  0.97717  0.88788  1.0000
  H   H2        1.0  0.95415  0.02282  0.11212  1.0000
  H   H3        1.0  0.23081  0.17546  0.96327  1.0000
  H   H4        1.0  0.76920  0.82452  0.03673  1.0000
  H   H5        1.0  0.69455  0.50914  0.83193  1.0000
  H   H6        1.0  0.30551  0.49087  0.16807  1.0000
  H   H7        1.0  0.52822  0.29393  0.76052  1.0000
  H   H8        1.0  0.47181  0.70609  0.23947  1.0000
  H   H9        1.0  0.07279  0.58714  0.90106  1.0000
  H   H10       1.0  0.92726  0.41285  0.09895  1.0000
  H   H11       1.0  0.27702  0.44903  0.96266  1.0000
  H   H12       1.0  0.72302  0.55095  0.03734  1.0000
  H   H13       1.0  0.10471  0.75904  0.78593  1.0000
  H   H14       1.0  0.89529  0.24096  0.21407  1.0000
  H   H15       1.0  0.43907  0.60860  0.68418  1.0000
  H   H16       1.0  0.56091  0.39140  0.31582  1.0000
  H   H17       1.0  0.04550  0.76526  0.43032  1.0000
  H   H18       1.0  0.95448  0.23475  0.56968  1.0000
  H   H19       1.0  0.72278  0.90999  0.54377  1.0000
  H   H20       1.0  0.27721  0.09003  0.45623  1.0000
  H   H21       1.0  0.64278  0.64038  0.47154  1.0000
  H   H22       1.0  0.35719  0.35962  0.52845  1.0000
  H   H23       1.0  0.40817  0.58905  0.40663  1.0000
  H   H24       1.0  0.59179  0.41095  0.59337  1.0000
  C   C1        1.0  0.97157  0.09599  0.87683  1.0000
  C   C2        1.0  0.02842  0.90400  0.12318  1.0000
  C   C3        1.0  0.07517  0.20740  0.91860  1.0000
  C   C4        1.0  0.92484  0.79259  0.08140  1.0000
  C   C5        1.0  0.97866  0.35956  0.90324  1.0000
  C   C6        1.0  0.02137  0.64043  0.09676  1.0000
  C   C7        1.0  0.77841  0.39223  0.84509  1.0000
  C   C8        1.0  0.22162  0.60777  0.15491  1.0000
  C   C9        1.0  0.68463  0.27468  0.80579  1.0000
  C   C10       1.0  0.31539  0.72532  0.19421  1.0000
  C   C11       1.0  0.07902  0.48273  0.95008  1.0000
  C   C12       1.0  0.92101  0.51726  0.04993  1.0000
  C   C13       1.0  0.09479  0.75526  0.70706  1.0000
  C   C14       1.0  0.90520  0.24474  0.29294  1.0000
  C   C15       1.0  0.28249  0.67096  0.64905  1.0000
  C   C16       1.0  0.71749  0.32904  0.35095  1.0000
  C   C17       1.0  0.27042  0.67062  0.54716  1.0000
  C   C18       1.0  0.72955  0.32938  0.45284  1.0000
  C   C19       1.0  0.06523  0.75852  0.50910  1.0000
  C   C20       1.0  0.93474  0.24149  0.49090  1.0000
  C   C21       1.0  0.88394  0.84024  0.57167  1.0000
  C   C22       1.0  0.11604  0.15977  0.42833  1.0000
  C   C23       1.0  0.46967  0.58282  0.48065  1.0000
  C   C24       1.0  0.53030  0.41718  0.51935  1.0000
  N   N1        1.0  0.77915  0.12833  0.82120  1.0000
  N   N2        1.0  0.22084  0.87167  0.17881  1.0000
  N   N3        1.0  0.89714  0.83808  0.66960  1.0000
  N   N4        1.0  0.10284  0.16193  0.33040  1.0000
  Cl  Cl1       1.0  0.50558  0.79544  0.88531  1.0000
  Cl  Cl2       1.0  0.49442  0.20456  0.11469  1.0000
  Cl  Cl3       1.0  0.36039  0.08589  0.65945  1.0000
  Cl  Cl4       1.0  0.63960  0.91413  0.34055  1.0000
