data_image0
_chemical_formula_structural       Cu4H28C32N12Cl8
_chemical_formula_sum              "Cu4 H28 C32 N12 Cl8"
_cell_length_a       3.87724
_cell_length_b       15.541
_cell_length_c       15.4365
_cell_angle_alpha    89.9988
_cell_angle_beta     94.5443
_cell_angle_gamma    90.0003

_space_group_name_H-M_alt    "P 1"
_space_group_IT_number       1

loop_
  _space_group_symop_operation_xyz
  'x, y, z'

loop_
  _atom_site_type_symbol
  _atom_site_label
  _atom_site_symmetry_multiplicity
  _atom_site_fract_x
  _atom_site_fract_y
  _atom_site_fract_z
  _atom_site_occupancy
  Cu  Cu1       1.0  0.99800  0.71036  0.74857  1.0000
  Cu  Cu2       1.0  0.50202  0.21036  0.75143  1.0000
  Cu  Cu3       1.0  0.00199  0.28964  0.25143  1.0000
  Cu  Cu4       1.0  0.49801  0.78964  0.24857  1.0000
  H   H1        1.0  0.86026  0.00978  0.84621  1.0000
  H   H2        1.0  0.63973  0.50978  0.65379  1.0000
  H   H3        1.0  0.13971  0.99022  0.15379  1.0000
  H   H4        1.0  0.36029  0.49022  0.34621  1.0000
  H   H5        1.0  0.24548  0.95663  0.97741  1.0000
  H   H6        1.0  0.25450  0.45664  0.52259  1.0000
  H   H7        1.0  0.75448  0.04337  0.02259  1.0000
  H   H8        1.0  0.74550  0.54336  0.47741  1.0000
  H   H9        1.0  0.37019  0.78395  0.94439  1.0000
  H   H10       1.0  0.12984  0.28396  0.55561  1.0000
  H   H11       1.0  0.62981  0.21605  0.05561  1.0000
  H   H12       1.0  0.87018  0.71604  0.44439  1.0000
  H   H13       1.0  0.51950  0.01195  0.70432  1.0000
  H   H14       1.0  0.98050  0.51195  0.79568  1.0000
  H   H15       1.0  0.48050  0.98805  0.29567  1.0000
  H   H16       1.0  0.01954  0.48805  0.20433  1.0000
  H   H17       1.0  0.21885  0.99135  0.55812  1.0000
  H   H18       1.0  0.28114  0.49135  0.94187  1.0000
  H   H19       1.0  0.78114  0.00865  0.44187  1.0000
  H   H20       1.0  0.71888  0.50865  0.05813  1.0000
  H   H21       1.0  0.23606  0.84531  0.48607  1.0000
  H   H22       1.0  0.26395  0.34531  0.01393  1.0000
  H   H23       1.0  0.76393  0.15469  0.51392  1.0000
  H   H24       1.0  0.73605  0.65469  0.98608  1.0000
  H   H25       1.0  0.54494  0.72442  0.57010  1.0000
  H   H26       1.0  0.95509  0.22442  0.92990  1.0000
  H   H27       1.0  0.45504  0.27558  0.42989  1.0000
  H   H28       1.0  0.04492  0.77558  0.07011  1.0000
  C   C1        1.0  0.89228  0.88204  0.79603  1.0000
  C   C2        1.0  0.60771  0.38204  0.70397  1.0000
  C   C3        1.0  0.10768  0.11796  0.20397  1.0000
  C   C4        1.0  0.39230  0.61796  0.29603  1.0000
  C   C5        1.0  0.15793  0.91659  0.92276  1.0000
  C   C6        1.0  0.34208  0.41659  0.57724  1.0000
  C   C7        1.0  0.84205  0.08341  0.07724  1.0000
  C   C8        1.0  0.65794  0.58341  0.42276  1.0000
  C   C9        1.0  0.21652  0.83065  0.90639  1.0000
  C   C10       1.0  0.28353  0.33066  0.59361  1.0000
  C   C11       1.0  0.78350  0.16935  0.09360  1.0000
  C   C12       1.0  0.71649  0.66934  0.40639  1.0000
  C   C13       1.0  0.69746  0.87983  0.71244  1.0000
  C   C14       1.0  0.80255  0.37983  0.78756  1.0000
  C   C15       1.0  0.30253  0.12017  0.28756  1.0000
  C   C16       1.0  0.19746  0.62017  0.21244  1.0000
  C   C17       1.0  0.52398  0.94957  0.67225  1.0000
  C   C18       1.0  0.97602  0.44957  0.82775  1.0000
  C   C19       1.0  0.47600  0.05043  0.32775  1.0000
  C   C20       1.0  0.02400  0.55043  0.17226  1.0000
  C   C21       1.0  0.35554  0.93732  0.59009  1.0000
  C   C22       1.0  0.14445  0.43733  0.90991  1.0000
  C   C23       1.0  0.64445  0.06267  0.40991  1.0000
  C   C24       1.0  0.85556  0.56267  0.09009  1.0000
  C   C25       1.0  0.36290  0.85657  0.55074  1.0000
  C   C26       1.0  0.13710  0.35657  0.94926  1.0000
  C   C27       1.0  0.63709  0.14343  0.44925  1.0000
  C   C28       1.0  0.86291  0.64343  0.05075  1.0000
  C   C29       1.0  0.53593  0.78951  0.59598  1.0000
  C   C30       1.0  0.96410  0.28951  0.90402  1.0000
  C   C31       1.0  0.46407  0.21049  0.40401  1.0000
  C   C32       1.0  0.03591  0.71049  0.09598  1.0000
  N   N1        1.0  0.04985  0.81042  0.82749  1.0000
  N   N2        1.0  0.45017  0.31042  0.67251  1.0000
  N   N3        1.0  0.95014  0.18958  0.17250  1.0000
  N   N4        1.0  0.54986  0.68958  0.32750  1.0000
  N   N5        1.0  0.95700  0.94773  0.85247  1.0000
  N   N6        1.0  0.54299  0.44773  0.64753  1.0000
  N   N7        1.0  0.04297  0.05227  0.14753  1.0000
  N   N8        1.0  0.45703  0.55227  0.35247  1.0000
  N   N9        1.0  0.70102  0.80084  0.67468  1.0000
  N   N10       1.0  0.79898  0.30083  0.82533  1.0000
  N   N11       1.0  0.29897  0.19916  0.32532  1.0000
  N   N12       1.0  0.20102  0.69916  0.17468  1.0000
  Cl  Cl1       1.0  0.99330  0.61559  0.63786  1.0000
  Cl  Cl2       1.0  0.50671  0.11559  0.86214  1.0000
  Cl  Cl3       1.0  0.00670  0.38441  0.36214  1.0000
  Cl  Cl4       1.0  0.49330  0.88441  0.13786  1.0000
  Cl  Cl5       1.0  0.45281  0.64157  0.82540  1.0000
  Cl  Cl6       1.0  0.04719  0.14157  0.67460  1.0000
  Cl  Cl7       1.0  0.54718  0.35843  0.17460  1.0000
  Cl  Cl8       1.0  0.95282  0.85843  0.32540  1.0000
