data_image0
_chemical_formula_structural       Fe2H40C52N20
_chemical_formula_sum              "Fe2 H40 C52 N20"
_cell_length_a       9.42304
_cell_length_b       9.42211
_cell_length_c       14.2781
_cell_angle_alpha    92.8113
_cell_angle_beta     104.577
_cell_angle_gamma    110.933

_space_group_name_H-M_alt    "P 1"
_space_group_IT_number       1

loop_
  _space_group_symop_operation_xyz
  'x, y, z'

loop_
  _atom_site_type_symbol
  _atom_site_label
  _atom_site_symmetry_multiplicity
  _atom_site_fract_x
  _atom_site_fract_y
  _atom_site_fract_z
  _atom_site_occupancy
  Fe  Fe1       1.0  0.50000  0.00000  0.00000  1.0000
  Fe  Fe2       1.0  0.49999  0.50000  0.50000  1.0000
  H   H1        1.0  0.86022  0.60571  0.99417  1.0000
  H   H2        1.0  0.13978  0.39429  0.00583  1.0000
  H   H3        1.0  0.57228  0.50821  0.89469  1.0000
  H   H4        1.0  0.42772  0.49179  0.10531  1.0000
  H   H5        1.0  0.41930  0.67538  0.90013  1.0000
  H   H6        1.0  0.58070  0.32463  0.09987  1.0000
  H   H7        1.0  0.84012  0.47927  0.28661  1.0000
  H   H8        1.0  0.15988  0.52073  0.71339  1.0000
  H   H9        1.0  0.00914  0.66869  0.43898  1.0000
  H   H10       1.0  0.99086  0.33131  0.56102  1.0000
  H   H11       1.0  0.27581  0.66562  0.52312  1.0000
  H   H12       1.0  0.72420  0.33438  0.47688  1.0000
  H   H13       1.0  0.21993  0.31833  0.30946  1.0000
  H   H14       1.0  0.78007  0.68166  0.69055  1.0000
  H   H15       1.0  0.08605  0.80280  0.09860  1.0000
  H   H16       1.0  0.91395  0.19720  0.90140  1.0000
  H   H17       1.0  0.04023  0.89594  0.19194  1.0000
  H   H18       1.0  0.95977  0.10406  0.80806  1.0000
  H   H19       1.0  0.09598  0.99601  0.09900  1.0000
  H   H20       1.0  0.90402  0.00400  0.90100  1.0000
  H   H21       1.0  0.16547  0.09067  0.74452  1.0000
  H   H22       1.0  0.83453  0.90932  0.25548  1.0000
  H   H23       1.0  0.29167  0.37539  0.80287  1.0000
  H   H24       1.0  0.70832  0.62460  0.19713  1.0000
  H   H25       1.0  0.43415  0.54831  0.69759  1.0000
  H   H26       1.0  0.56584  0.45168  0.30241  1.0000
  H   H27       1.0  0.29266  0.76751  0.33611  1.0000
  H   H28       1.0  0.70734  0.23250  0.66389  1.0000
  H   H29       1.0  0.26642  0.58469  0.19203  1.0000
  H   H30       1.0  0.73358  0.41531  0.80797  1.0000
  H   H31       1.0  0.34996  0.69319  0.04885  1.0000
  H   H32       1.0  0.65004  0.30681  0.95115  1.0000
  H   H33       1.0  0.50877  0.13979  0.19153  1.0000
  H   H34       1.0  0.49123  0.86021  0.80847  1.0000
  H   H35       1.0  0.19051  0.90682  0.51326  1.0000
  H   H36       1.0  0.80950  0.09318  0.48674  1.0000
  H   H37       1.0  0.04564  0.89351  0.57704  1.0000
  H   H38       1.0  0.95436  0.10648  0.42296  1.0000
  H   H39       1.0  0.22634  0.87774  0.63797  1.0000
  H   H40       1.0  0.77366  0.12225  0.36203  1.0000
  C   C1        1.0  0.81641  0.05936  0.10368  1.0000
  C   C2        1.0  0.18359  0.94064  0.89632  1.0000
  C   C3        1.0  0.91669  0.26597  0.20196  1.0000
  C   C4        1.0  0.08331  0.73403  0.79804  1.0000
  C   C5        1.0  0.76485  0.90756  0.05009  1.0000
  C   C6        1.0  0.23515  0.09245  0.94991  1.0000
  C   C7        1.0  0.85981  0.82060  0.05247  1.0000
  C   C8        1.0  0.14019  0.17940  0.94753  1.0000
  C   C9        1.0  0.78917  0.67506  0.99524  1.0000
  C   C10       1.0  0.21083  0.32494  0.00475  1.0000
  C   C11       1.0  0.63048  0.62085  0.94003  1.0000
  C   C12       1.0  0.36952  0.37915  0.05996  1.0000
  C   C13       1.0  0.54386  0.71270  0.94244  1.0000
  C   C14       1.0  0.45614  0.28731  0.05756  1.0000
  C   C15       1.0  0.01680  0.38446  0.28589  1.0000
  C   C16       1.0  0.98320  0.61554  0.71412  1.0000
  C   C17       1.0  0.95880  0.48600  0.32330  1.0000
  C   C18       1.0  0.04120  0.51400  0.67670  1.0000
  C   C19       1.0  0.05169  0.58932  0.40814  1.0000
  C   C20       1.0  0.94832  0.41068  0.59186  1.0000
  C   C21       1.0  0.20031  0.58915  0.45516  1.0000
  C   C22       1.0  0.79969  0.41084  0.54484  1.0000
  C   C23       1.0  0.16936  0.39403  0.33606  1.0000
  C   C24       1.0  0.83064  0.60597  0.66394  1.0000
  C   C25       1.0  0.02955  0.88137  0.11330  1.0000
  C   C26       1.0  0.97046  0.11863  0.88670  1.0000
  C   C27       1.0  0.36547  0.17134  0.47432  1.0000
  C   C28       1.0  0.63453  0.82866  0.52568  1.0000
  C   C29       1.0  0.40282  0.07797  0.35010  1.0000
  C   C30       1.0  0.59718  0.92203  0.64990  1.0000
  C   C31       1.0  0.33225  0.21090  0.56377  1.0000
  C   C32       1.0  0.66775  0.78910  0.43623  1.0000
  C   C33       1.0  0.24710  0.10730  0.61651  1.0000
  C   C34       1.0  0.75290  0.89270  0.38349  1.0000
  C   C35       1.0  0.23219  0.16888  0.70303  1.0000
  C   C36       1.0  0.76781  0.83111  0.29697  1.0000
  C   C37       1.0  0.30150  0.32667  0.73504  1.0000
  C   C38       1.0  0.69850  0.67333  0.26496  1.0000
  C   C39       1.0  0.38156  0.42308  0.67823  1.0000
  C   C40       1.0  0.61843  0.57692  0.32177  1.0000
  C   C41       1.0  0.39769  0.96770  0.27280  1.0000
  C   C42       1.0  0.60231  0.03230  0.72720  1.0000
  C   C43       1.0  0.33283  0.80880  0.27393  1.0000
  C   C44       1.0  0.66717  0.19121  0.72606  1.0000
  C   C45       1.0  0.31809  0.70866  0.19396  1.0000
  C   C46       1.0  0.68191  0.29134  0.80604  1.0000
  C   C47       1.0  0.36626  0.76743  0.11469  1.0000
  C   C48       1.0  0.63374  0.23257  0.88531  1.0000
  C   C49       1.0  0.45177  0.01754  0.19278  1.0000
  C   C50       1.0  0.54823  0.98246  0.80722  1.0000
  C   C51       1.0  0.17317  0.93663  0.58337  1.0000
  C   C52       1.0  0.82684  0.06336  0.41663  1.0000
  N   N1        1.0  0.70732  0.12573  0.08804  1.0000
  N   N2        1.0  0.29268  0.87427  0.91196  1.0000
  N   N3        1.0  0.77108  0.25895  0.15046  1.0000
  N   N4        1.0  0.22892  0.74105  0.84954  1.0000
  N   N5        1.0  0.95031  0.14448  0.17464  1.0000
  N   N6        1.0  0.04970  0.85552  0.82536  1.0000
  N   N7        1.0  0.60854  0.85441  0.99571  1.0000
  N   N8        1.0  0.39146  0.14559  0.00429  1.0000
  N   N9        1.0  0.25780  0.49361  0.41875  1.0000
  N   N10       1.0  0.74220  0.50639  0.58126  1.0000
  N   N11       1.0  0.44494  0.29214  0.43345  1.0000
  N   N12       1.0  0.55506  0.70786  0.56655  1.0000
  N   N13       1.0  0.46916  0.23279  0.35352  1.0000
  N   N14       1.0  0.53084  0.76722  0.64648  1.0000
  N   N15       1.0  0.33666  0.03503  0.42349  1.0000
  N   N16       1.0  0.66333  0.96497  0.57651  1.0000
  N   N17       1.0  0.39552  0.36732  0.59398  1.0000
  N   N18       1.0  0.60447  0.63268  0.40602  1.0000
  N   N19       1.0  0.43433  0.92042  0.11445  1.0000
  N   N20       1.0  0.56567  0.07959  0.88555  1.0000
