data_image0
_chemical_formula_structural       Zn2Mo8H40C28N12O32
_chemical_formula_sum              "Zn2 Mo8 H40 C28 N12 O32"
_cell_length_a       9.76047
_cell_length_b       11.5833
_cell_length_c       12.347
_cell_angle_alpha    91.0577
_cell_angle_beta     102.993
_cell_angle_gamma    96.206

_space_group_name_H-M_alt    "P 1"
_space_group_IT_number       1

loop_
  _space_group_symop_operation_xyz
  'x, y, z'

loop_
  _atom_site_type_symbol
  _atom_site_label
  _atom_site_symmetry_multiplicity
  _atom_site_fract_x
  _atom_site_fract_y
  _atom_site_fract_z
  _atom_site_occupancy
  Zn  Zn1       1.0  0.57728  0.20078  0.27654  1.0000
  Zn  Zn2       1.0  0.42272  0.79922  0.72347  1.0000
  Mo  Mo1       1.0  0.13911  0.56265  0.11496  1.0000
  Mo  Mo2       1.0  0.86089  0.43736  0.88504  1.0000
  Mo  Mo3       1.0  0.94194  0.36906  0.26197  1.0000
  Mo  Mo4       1.0  0.05805  0.63093  0.73804  1.0000
  Mo  Mo5       1.0  0.76028  0.54666  0.09381  1.0000
  Mo  Mo6       1.0  0.23972  0.45333  0.90619  1.0000
  Mo  Mo7       1.0  0.96429  0.74019  0.96014  1.0000
  Mo  Mo8       1.0  0.03571  0.25982  0.03986  1.0000
  H   H1        1.0  0.50842  0.32929  0.09394  1.0000
  H   H2        1.0  0.49158  0.67071  0.90606  1.0000
  H   H3        1.0  0.35822  0.26268  0.10523  1.0000
  H   H4        1.0  0.64178  0.73732  0.89477  1.0000
  H   H5        1.0  0.08364  0.27312  0.60585  1.0000
  H   H6        1.0  0.91636  0.72688  0.39414  1.0000
  H   H7        1.0  0.98058  0.15883  0.51811  1.0000
  H   H8        1.0  0.01942  0.84117  0.48189  1.0000
  H   H9        1.0  0.34059  0.13214  0.97832  1.0000
  H   H10       1.0  0.65941  0.86786  0.02168  1.0000
  H   H11       1.0  0.47007  0.48451  0.24199  1.0000
  H   H12       1.0  0.52994  0.51549  0.75801  1.0000
  H   H13       1.0  0.75771  0.54767  0.55638  1.0000
  H   H14       1.0  0.24229  0.45233  0.44362  1.0000
  H   H15       1.0  0.59877  0.63604  0.39435  1.0000
  H   H16       1.0  0.40124  0.36396  0.60565  1.0000
  H   H17       1.0  0.20182  0.08666  0.61894  1.0000
  H   H18       1.0  0.79818  0.91334  0.38106  1.0000
  H   H19       1.0  0.17528  0.13678  0.74790  1.0000
  H   H20       1.0  0.82472  0.86322  0.25210  1.0000
  H   H21       1.0  0.83036  0.36803  0.64528  1.0000
  H   H22       1.0  0.16965  0.63197  0.35471  1.0000
  H   H23       1.0  0.70894  0.17682  0.77258  1.0000
  H   H24       1.0  0.29106  0.82318  0.22742  1.0000
  H   H25       1.0  0.55143  0.21024  0.90116  1.0000
  H   H26       1.0  0.44857  0.78976  0.09884  1.0000
  H   H27       1.0  0.76695  0.04396  0.58793  1.0000
  H   H28       1.0  0.23305  0.95605  0.41206  1.0000
  H   H29       1.0  0.85507  0.91834  0.74305  1.0000
  H   H30       1.0  0.14492  0.08166  0.25695  1.0000
  H   H31       1.0  0.96116  0.03916  0.82048  1.0000
  H   H32       1.0  0.03884  0.96085  0.17952  1.0000
  H   H33       1.0  0.10201  0.92241  0.71909  1.0000
  H   H34       1.0  0.89799  0.07758  0.28092  1.0000
  H   H35       1.0  0.98556  0.94445  0.59242  1.0000
  H   H36       1.0  0.01443  0.05555  0.40758  1.0000
  H   H37       1.0  0.94515  0.23774  0.74567  1.0000
  H   H38       1.0  0.05485  0.76226  0.25433  1.0000
  H   H39       1.0  0.24197  0.92532  0.90596  1.0000
  H   H40       1.0  0.75803  0.07468  0.09404  1.0000
  C   C1        1.0  0.02430  0.18689  0.60566  1.0000
  C   C2        1.0  0.97570  0.81311  0.39434  1.0000
  C   C3        1.0  0.54058  0.46658  0.31955  1.0000
  C   C4        1.0  0.45942  0.53342  0.68044  1.0000
  C   C5        1.0  0.69025  0.49791  0.48529  1.0000
  C   C6        1.0  0.30975  0.50209  0.51471  1.0000
  C   C7        1.0  0.11973  0.09998  0.66470  1.0000
  C   C8        1.0  0.88027  0.90002  0.33529  1.0000
  C   C9        1.0  0.60306  0.01505  0.73656  1.0000
  C   C10       1.0  0.39694  0.98495  0.26345  1.0000
  C   C11       1.0  0.49229  0.12531  0.87885  1.0000
  C   C12       1.0  0.50771  0.87469  0.12116  1.0000
  C   C13       1.0  0.81628  0.08323  0.67129  1.0000
  C   C14       1.0  0.18372  0.91678  0.32871  1.0000
  C   C15       1.0  0.50413  0.03628  0.80645  1.0000
  C   C16       1.0  0.49588  0.96372  0.19355  1.0000
  C   C17       1.0  0.67131  0.38107  0.45427  1.0000
  C   C18       1.0  0.32868  0.61893  0.54573  1.0000
  C   C19       1.0  0.91640  0.00168  0.73551  1.0000
  C   C20       1.0  0.08359  0.99832  0.26449  1.0000
  C   C21       1.0  0.03379  0.98431  0.67577  1.0000
  C   C22       1.0  0.96620  0.01570  0.32423  1.0000
  C   C23       1.0  0.90066  0.20071  0.66077  1.0000
  C   C24       1.0  0.09934  0.79929  0.33923  1.0000
  C   C25       1.0  0.73471  0.27743  0.50135  1.0000
  C   C26       1.0  0.26528  0.72257  0.49865  1.0000
  C   C27       1.0  0.32829  0.97718  0.88123  1.0000
  C   C28       1.0  0.67171  0.02282  0.11877  1.0000
  N   N1        1.0  0.40062  0.94564  0.80900  1.0000
  N   N2        1.0  0.59939  0.05436  0.19100  1.0000
  N   N3        1.0  0.38134  0.08563  0.92419  1.0000
  N   N4        1.0  0.61866  0.91437  0.07582  1.0000
  N   N5        1.0  0.57815  0.36377  0.35145  1.0000
  N   N6        1.0  0.42184  0.63623  0.64855  1.0000
  N   N7        1.0  0.60656  0.54950  0.39936  1.0000
  N   N8        1.0  0.39344  0.45050  0.60064  1.0000
  N   N9        1.0  0.81349  0.28764  0.60543  1.0000
  N   N10       1.0  0.18651  0.71236  0.39457  1.0000
  N   N11       1.0  0.70273  0.10068  0.72743  1.0000
  N   N12       1.0  0.29727  0.89932  0.27257  1.0000
  O   O1        1.0  0.46119  0.26048  0.12339  1.0000
  O   O2        1.0  0.53881  0.73952  0.87662  1.0000
  O   O3        1.0  0.71061  0.18474  0.44147  1.0000
  O   O4        1.0  0.28939  0.81526  0.55853  1.0000
  O   O5        1.0  0.59135  0.91576  0.68796  1.0000
  O   O6        1.0  0.40865  0.08425  0.31205  1.0000
  O   O7        1.0  0.78678  0.27478  0.23154  1.0000
  O   O8        1.0  0.21322  0.72521  0.76845  1.0000
  O   O9        1.0  0.62093  0.43750  0.06438  1.0000
  O   O10       1.0  0.37907  0.56249  0.93562  1.0000
  O   O11       1.0  0.68871  0.66884  0.12136  1.0000
  O   O12       1.0  0.31131  0.33115  0.87865  1.0000
  O   O13       1.0  0.81963  0.81307  0.96426  1.0000
  O   O14       1.0  0.18036  0.18693  0.03575  1.0000
  O   O15       1.0  0.10918  0.84119  0.99889  1.0000
  O   O16       1.0  0.89082  0.15881  0.00111  1.0000
  O   O17       1.0  0.28126  0.66752  0.15294  1.0000
  O   O18       1.0  0.71875  0.33249  0.84707  1.0000
  O   O19       1.0  0.12042  0.50543  0.24478  1.0000
  O   O20       1.0  0.87958  0.49457  0.75521  1.0000
  O   O21       1.0  0.98088  0.65819  0.10238  1.0000
  O   O22       1.0  0.01912  0.34181  0.89762  1.0000
  O   O23       1.0  0.92664  0.42047  0.05493  1.0000
  O   O24       1.0  0.07336  0.57953  0.94506  1.0000
  O   O25       1.0  0.85217  0.50984  0.23901  1.0000
  O   O26       1.0  0.14783  0.49015  0.76099  1.0000
  O   O27       1.0  0.00526  0.36633  0.40223  1.0000
  O   O28       1.0  0.99472  0.63366  0.59776  1.0000
  O   O29       1.0  0.05825  0.27871  0.19655  1.0000
  O   O30       1.0  0.94175  0.72129  0.80345  1.0000
  O   O31       1.0  0.78053  0.56644  0.93718  1.0000
  O   O32       1.0  0.21947  0.43357  0.06281  1.0000
