data_image0
_chemical_formula_structural       Cu4H48C48N8O16
_chemical_formula_sum              "Cu4 H48 C48 N8 O16"
_cell_length_a       9.7735
_cell_length_b       10.9942
_cell_length_c       12.2342
_cell_angle_alpha    89.9998
_cell_angle_beta     90.0003
_cell_angle_gamma    96.568

_space_group_name_H-M_alt    "P 1"
_space_group_IT_number       1

loop_
  _space_group_symop_operation_xyz
  'x, y, z'

loop_
  _atom_site_type_symbol
  _atom_site_label
  _atom_site_symmetry_multiplicity
  _atom_site_fract_x
  _atom_site_fract_y
  _atom_site_fract_z
  _atom_site_occupancy
  Cu  Cu1       1.0  0.35197  0.62047  0.61723  1.0000
  Cu  Cu2       1.0  0.14803  0.87953  0.11723  1.0000
  Cu  Cu3       1.0  0.64803  0.37953  0.38277  1.0000
  Cu  Cu4       1.0  0.85197  0.12047  0.88277  1.0000
  H   H1        1.0  0.21592  0.24658  0.50820  1.0000
  H   H2        1.0  0.28406  0.25342  0.00821  1.0000
  H   H3        1.0  0.78406  0.75342  0.49179  1.0000
  H   H4        1.0  0.71592  0.74658  0.99180  1.0000
  H   H5        1.0  0.30402  0.25242  0.37873  1.0000
  H   H6        1.0  0.19598  0.24758  0.87873  1.0000
  H   H7        1.0  0.69598  0.74758  0.62127  1.0000
  H   H8        1.0  0.80401  0.75242  0.12127  1.0000
  H   H9        1.0  0.13761  0.30150  0.38897  1.0000
  H   H10       1.0  0.36238  0.19851  0.88898  1.0000
  H   H11       1.0  0.86238  0.69850  0.61102  1.0000
  H   H12       1.0  0.63761  0.80150  0.11103  1.0000
  H   H13       1.0  0.59813  0.93291  0.81692  1.0000
  H   H14       1.0  0.90188  0.56709  0.31693  1.0000
  H   H15       1.0  0.40187  0.06709  0.18307  1.0000
  H   H16       1.0  0.09813  0.43292  0.68308  1.0000
  H   H17       1.0  0.44678  0.96968  0.88262  1.0000
  H   H18       1.0  0.05322  0.53032  0.38262  1.0000
  H   H19       1.0  0.55322  0.03032  0.11738  1.0000
  H   H20       1.0  0.94678  0.46968  0.61738  1.0000
  H   H21       1.0  0.47035  0.99516  0.73858  1.0000
  H   H22       1.0  0.02964  0.50483  0.23858  1.0000
  H   H23       1.0  0.52963  0.00483  0.26141  1.0000
  H   H24       1.0  0.97035  0.49517  0.76141  1.0000
  H   H25       1.0  0.55437  0.77594  0.32034  1.0000
  H   H26       1.0  0.94564  0.72406  0.82034  1.0000
  H   H27       1.0  0.44564  0.22406  0.67966  1.0000
  H   H28       1.0  0.05436  0.27594  0.17966  1.0000
  H   H29       1.0  0.42472  0.70712  0.22852  1.0000
  H   H30       1.0  0.07529  0.79289  0.72852  1.0000
  H   H31       1.0  0.57529  0.29289  0.77147  1.0000
  H   H32       1.0  0.92471  0.20712  0.27148  1.0000
  H   H33       1.0  0.57269  0.63261  0.25599  1.0000
  H   H34       1.0  0.92732  0.86740  0.75600  1.0000
  H   H35       1.0  0.42733  0.36740  0.74400  1.0000
  H   H36       1.0  0.07269  0.13261  0.24400  1.0000
  H   H37       1.0  0.16940  0.45542  0.91761  1.0000
  H   H38       1.0  0.33059  0.04457  0.41761  1.0000
  H   H39       1.0  0.83059  0.54458  0.08239  1.0000
  H   H40       1.0  0.66941  0.95543  0.58239  1.0000
  H   H41       1.0  0.16419  0.59676  0.99035  1.0000
  H   H42       1.0  0.33581  0.90324  0.49036  1.0000
  H   H43       1.0  0.83582  0.40324  0.00966  1.0000
  H   H44       1.0  0.66418  0.09676  0.50966  1.0000
  H   H45       1.0  0.30774  0.51410  0.00488  1.0000
  H   H46       1.0  0.19226  0.98590  0.50488  1.0000
  H   H47       1.0  0.69227  0.48590  0.99512  1.0000
  H   H48       1.0  0.80773  0.01411  0.49512  1.0000
  C   C1        1.0  0.42243  0.80726  0.78071  1.0000
  C   C2        1.0  0.07757  0.69274  0.28070  1.0000
  C   C3        1.0  0.57757  0.19274  0.21929  1.0000
  C   C4        1.0  0.92244  0.30726  0.71930  1.0000
  C   C5        1.0  0.29751  0.42637  0.45757  1.0000
  C   C6        1.0  0.20249  0.07363  0.95758  1.0000
  C   C7        1.0  0.70249  0.57363  0.54242  1.0000
  C   C8        1.0  0.79751  0.92637  0.04243  1.0000
  C   C9        1.0  0.29813  0.60732  0.85061  1.0000
  C   C10       1.0  0.20186  0.89268  0.35061  1.0000
  C   C11       1.0  0.70186  0.39267  0.14939  1.0000
  C   C12       1.0  0.79813  0.10732  0.64939  1.0000
  C   C13       1.0  0.42806  0.62322  0.38751  1.0000
  C   C14       1.0  0.07194  0.87678  0.88751  1.0000
  C   C15       1.0  0.57195  0.37678  0.61249  1.0000
  C   C16       1.0  0.92806  0.12322  0.11249  1.0000
  C   C17       1.0  0.35779  0.50293  0.37156  1.0000
  C   C18       1.0  0.14220  0.99708  0.87156  1.0000
  C   C19       1.0  0.64220  0.49707  0.62843  1.0000
  C   C20       1.0  0.85779  0.00292  0.12844  1.0000
  C   C21       1.0  0.36266  0.72974  0.86600  1.0000
  C   C22       1.0  0.13734  0.77026  0.36600  1.0000
  C   C23       1.0  0.63734  0.27026  0.13400  1.0000
  C   C24       1.0  0.86267  0.22974  0.63400  1.0000
  C   C25       1.0  0.36631  0.77540  0.97354  1.0000
  C   C26       1.0  0.13369  0.72459  0.47354  1.0000
  C   C27       1.0  0.63369  0.22459  0.02646  1.0000
  C   C28       1.0  0.86631  0.27541  0.52646  1.0000
  C   C29       1.0  0.35134  0.45414  0.26425  1.0000
  C   C30       1.0  0.14866  0.04587  0.76426  1.0000
  C   C31       1.0  0.64865  0.54586  0.73574  1.0000
  C   C32       1.0  0.85134  0.95413  0.23575  1.0000
  C   C33       1.0  0.23586  0.29833  0.43224  1.0000
  C   C34       1.0  0.26413  0.20167  0.93224  1.0000
  C   C35       1.0  0.76413  0.70167  0.56775  1.0000
  C   C36       1.0  0.73586  0.79833  0.06776  1.0000
  C   C37       1.0  0.48645  0.93397  0.80693  1.0000
  C   C38       1.0  0.01355  0.56603  0.30693  1.0000
  C   C39       1.0  0.51355  0.06603  0.19307  1.0000
  C   C40       1.0  0.98645  0.43397  0.69307  1.0000
  C   C41       1.0  0.49903  0.68929  0.29246  1.0000
  C   C42       1.0  0.00098  0.81071  0.79247  1.0000
  C   C43       1.0  0.50098  0.31071  0.70753  1.0000
  C   C44       1.0  0.99903  0.18929  0.20754  1.0000
  C   C45       1.0  0.23044  0.53912  0.94600  1.0000
  C   C46       1.0  0.26956  0.96088  0.44600  1.0000
  C   C47       1.0  0.76956  0.46088  0.05400  1.0000
  C   C48       1.0  0.73044  0.03912  0.55400  1.0000
  N   N1        1.0  0.36472  0.81104  0.06394  1.0000
  N   N2        1.0  0.13529  0.68895  0.56394  1.0000
  N   N3        1.0  0.63529  0.18896  0.93606  1.0000
  N   N4        1.0  0.86471  0.31105  0.43606  1.0000
  N   N5        1.0  0.34418  0.41275  0.17587  1.0000
  N   N6        1.0  0.15581  0.08725  0.67587  1.0000
  N   N7        1.0  0.65581  0.58725  0.82412  1.0000
  N   N8        1.0  0.84419  0.91275  0.32413  1.0000
  O   O1        1.0  0.29242  0.45978  0.55688  1.0000
  O   O2        1.0  0.20758  0.04021  0.05688  1.0000
  O   O3        1.0  0.70759  0.54021  0.44312  1.0000
  O   O4        1.0  0.79242  0.95978  0.94312  1.0000
  O   O5        1.0  0.42642  0.77558  0.68071  1.0000
  O   O6        1.0  0.07360  0.72442  0.18071  1.0000
  O   O7        1.0  0.57358  0.22442  0.31929  1.0000
  O   O8        1.0  0.92643  0.27558  0.81929  1.0000
  O   O9        1.0  0.29325  0.55228  0.75915  1.0000
  O   O10       1.0  0.20673  0.94772  0.25916  1.0000
  O   O11       1.0  0.70673  0.44771  0.24085  1.0000
  O   O12       1.0  0.79325  0.05229  0.74085  1.0000
  O   O13       1.0  0.43704  0.67833  0.47907  1.0000
  O   O14       1.0  0.06296  0.82167  0.97908  1.0000
  O   O15       1.0  0.56298  0.32165  0.52092  1.0000
  O   O16       1.0  0.93704  0.17833  0.02092  1.0000
