data_image0
_chemical_formula_structural       Co6H6C24O18
_chemical_formula_sum              "Co6 H6 C24 O18"
_cell_length_a       6.77183
_cell_length_b       15.2501
_cell_length_c       15.2542
_cell_angle_alpha    117.849
_cell_angle_beta     98.5289
_cell_angle_gamma    98.5005

_space_group_name_H-M_alt    "P 1"
_space_group_IT_number       1

loop_
  _space_group_symop_operation_xyz
  'x, y, z'

loop_
  _atom_site_type_symbol
  _atom_site_label
  _atom_site_symmetry_multiplicity
  _atom_site_fract_x
  _atom_site_fract_y
  _atom_site_fract_z
  _atom_site_occupancy
  Co  Co1       1.0  0.21064  0.32824  0.72839  1.0000
  Co  Co2       1.0  0.88265  0.40036  0.67189  1.0000
  Co  Co3       1.0  0.48216  0.27152  0.59976  1.0000
  Co  Co4       1.0  0.78936  0.67176  0.27161  1.0000
  Co  Co5       1.0  0.11735  0.59964  0.32811  1.0000
  Co  Co6       1.0  0.51784  0.72848  0.40024  1.0000
  H   H1        1.0  0.64816  0.46851  0.02392  1.0000
  H   H2        1.0  0.17963  0.55544  0.53144  1.0000
  H   H3        1.0  0.62417  0.97602  0.44452  1.0000
  H   H4        1.0  0.35185  0.53149  0.97609  1.0000
  H   H5        1.0  0.82037  0.44456  0.46856  1.0000
  H   H6        1.0  0.37583  0.02398  0.55547  1.0000
  C   C1        1.0  0.64267  0.39369  0.82872  1.0000
  C   C2        1.0  0.24923  0.43518  0.60643  1.0000
  C   C3        1.0  0.81393  0.17128  0.56491  1.0000
  C   C4        1.0  0.35734  0.60632  0.17129  1.0000
  C   C5        1.0  0.75077  0.56482  0.39357  1.0000
  C   C6        1.0  0.18606  0.82872  0.43508  1.0000
  C   C7        1.0  0.82853  0.44869  0.91453  1.0000
  C   C8        1.0  0.38003  0.46595  0.55140  1.0000
  C   C9        1.0  0.91400  0.08549  0.53417  1.0000
  C   C10       1.0  0.17147  0.55131  0.08548  1.0000
  C   C11       1.0  0.61996  0.53405  0.44860  1.0000
  C   C12       1.0  0.08600  0.91452  0.46582  1.0000
  C   C13       1.0  0.03117  0.46600  0.89939  1.0000
  C   C14       1.0  0.56532  0.43341  0.53406  1.0000
  C   C15       1.0  0.13177  0.10063  0.56668  1.0000
  C   C16       1.0  0.96883  0.53400  0.10061  1.0000
  C   C17       1.0  0.43468  0.56658  0.46593  1.0000
  C   C18       1.0  0.86821  0.89937  0.43331  1.0000
  C   C19       1.0  0.80301  0.48272  0.01366  1.0000
  C   C20       1.0  0.32031  0.53100  0.51728  1.0000
  C   C21       1.0  0.78934  0.98632  0.46900  1.0000
  C   C22       1.0  0.19700  0.51729  0.98635  1.0000
  C   C23       1.0  0.67969  0.46899  0.48272  1.0000
  C   C24       1.0  0.21066  0.01368  0.53099  1.0000
  O   O1        1.0  0.46396  0.37700  0.84314  1.0000
  O   O2        1.0  0.08744  0.46649  0.62330  1.0000
  O   O3        1.0  0.62071  0.15681  0.53383  1.0000
  O   O4        1.0  0.53605  0.62300  0.15686  1.0000
  O   O5        1.0  0.91257  0.53351  0.37670  1.0000
  O   O6        1.0  0.37929  0.84320  0.46616  1.0000
  O   O7        1.0  0.66892  0.36219  0.73761  1.0000
  O   O8        1.0  0.30664  0.37530  0.63766  1.0000
  O   O9        1.0  0.93131  0.26242  0.62442  1.0000
  O   O10       1.0  0.33108  0.63780  0.26239  1.0000
  O   O11       1.0  0.69336  0.62471  0.36234  1.0000
  O   O12       1.0  0.06868  0.73758  0.37558  1.0000
  O   O13       1.0  0.07250  0.43701  0.80732  1.0000
  O   O14       1.0  0.63571  0.37038  0.56314  1.0000
  O   O15       1.0  0.26518  0.19272  0.62983  1.0000
  O   O16       1.0  0.92751  0.56300  0.19269  1.0000
  O   O17       1.0  0.36429  0.62961  0.43686  1.0000
  O   O18       1.0  0.73482  0.80729  0.37017  1.0000
