data_image0
_chemical_formula_structural       Cd2H14C14N14O2
_chemical_formula_sum              "Cd2 H14 C14 N14 O2"
_cell_length_a       6.8285
_cell_length_b       8.42422
_cell_length_c       10.6779
_cell_angle_alpha    71.272
_cell_angle_beta     70.9877
_cell_angle_gamma    66.1914

_space_group_name_H-M_alt    "P 1"
_space_group_IT_number       1

loop_
  _space_group_symop_operation_xyz
  'x, y, z'

loop_
  _atom_site_type_symbol
  _atom_site_label
  _atom_site_symmetry_multiplicity
  _atom_site_fract_x
  _atom_site_fract_y
  _atom_site_fract_z
  _atom_site_occupancy
  Cd  Cd1       1.0  0.23804  0.95297  0.56225  1.0000
  Cd  Cd2       1.0  0.76196  0.04702  0.43775  1.0000
  H   H1        1.0  0.26197  0.45469  0.02447  1.0000
  H   H2        1.0  0.73802  0.54530  0.97553  1.0000
  H   H3        1.0  0.30405  0.20543  0.93193  1.0000
  H   H4        1.0  0.69594  0.79456  0.06807  1.0000
  H   H5        1.0  0.29365  0.26452  0.68601  1.0000
  H   H6        1.0  0.70635  0.73548  0.31399  1.0000
  H   H7        1.0  0.24524  0.57392  0.54498  1.0000
  H   H8        1.0  0.75476  0.42608  0.45501  1.0000
  H   H9        1.0  0.28969  0.87785  0.02609  1.0000
  H   H10       1.0  0.71031  0.12215  0.97391  1.0000
  H   H11       1.0  0.28203  0.65469  0.07839  1.0000
  H   H12       1.0  0.71797  0.34530  0.92162  1.0000
  H   H13       1.0  0.03749  0.83756  0.07236  1.0000
  H   H14       1.0  0.96251  0.16244  0.92764  1.0000
  C   C1        1.0  0.23856  0.64552  0.83202  1.0000
  C   C2        1.0  0.76143  0.35447  0.16798  1.0000
  C   C3        1.0  0.25996  0.47786  0.91842  1.0000
  C   C4        1.0  0.74004  0.52214  0.08158  1.0000
  C   C5        1.0  0.28188  0.33758  0.86640  1.0000
  C   C6        1.0  0.71812  0.66242  0.13360  1.0000
  C   C7        1.0  0.27837  0.36922  0.73097  1.0000
  C   C8        1.0  0.72163  0.63079  0.26902  1.0000
  C   C9        1.0  0.25178  0.54142  0.65149  1.0000
  C   C10       1.0  0.74822  0.45859  0.34851  1.0000
  C   C11       1.0  0.22637  0.80169  0.87639  1.0000
  C   C12       1.0  0.77363  0.19831  0.12362  1.0000
  C   C13       1.0  0.21242  0.78912  0.02111  1.0000
  C   C14       1.0  0.78758  0.21088  0.97889  1.0000
  N   N1        1.0  0.35958  0.19017  0.46316  1.0000
  N   N2        1.0  0.64043  0.80983  0.53685  1.0000
  N   N3        1.0  0.29793  0.30608  0.36835  1.0000
  N   N4        1.0  0.70207  0.69392  0.63165  1.0000
  N   N5        1.0  0.24333  0.42014  0.27721  1.0000
  N   N6        1.0  0.75667  0.57986  0.72280  1.0000
  N   N7        1.0  0.15842  0.91654  0.37940  1.0000
  N   N8        1.0  0.84158  0.08346  0.62059  1.0000
  N   N9        1.0  0.24169  0.98390  0.26669  1.0000
  N   N10       1.0  0.75831  0.01610  0.73331  1.0000
  N   N11       1.0  0.32092  0.04673  0.15761  1.0000
  N   N12       1.0  0.67907  0.95328  0.84239  1.0000
  N   N13       1.0  0.23349  0.67501  0.70071  1.0000
  N   N14       1.0  0.76651  0.32499  0.29929  1.0000
  O   O1        1.0  0.22493  0.94401  0.79206  1.0000
  O   O2        1.0  0.77507  0.05599  0.20795  1.0000
