data_image0
_chemical_formula_structural       Cu6H44C56N4O32
_chemical_formula_sum              "Cu6 H44 C56 N4 O32"
_cell_length_a       11.0253
_cell_length_b       11.0253
_cell_length_c       14.2331
_cell_angle_alpha    101.274
_cell_angle_beta     101.273
_cell_angle_gamma    119.657

_space_group_name_H-M_alt    "P 1"
_space_group_IT_number       1

loop_
  _space_group_symop_operation_xyz
  'x, y, z'

loop_
  _atom_site_type_symbol
  _atom_site_label
  _atom_site_symmetry_multiplicity
  _atom_site_fract_x
  _atom_site_fract_y
  _atom_site_fract_z
  _atom_site_occupancy
  Cu  Cu1       1.0  0.70383  0.70381  0.00007  1.0000
  Cu  Cu2       1.0  0.95381  0.45383  0.50007  1.0000
  Cu  Cu3       1.0  0.60151  0.06382  0.15375  1.0000
  Cu  Cu4       1.0  0.91010  0.44773  0.84627  1.0000
  Cu  Cu5       1.0  0.69772  0.66010  0.34627  1.0000
  Cu  Cu6       1.0  0.31382  0.35151  0.65375  1.0000
  H   H1        1.0  0.81942  0.14464  0.30988  1.0000
  H   H2        1.0  0.83497  0.50976  0.69018  1.0000
  H   H3        1.0  0.75977  0.58497  0.19018  1.0000
  H   H4        1.0  0.39464  0.56942  0.80988  1.0000
  H   H5        1.0  0.67480  0.97435  0.28229  1.0000
  H   H6        1.0  0.69226  0.39269  0.71774  1.0000
  H   H7        1.0  0.64269  0.44226  0.21773  1.0000
  H   H8        1.0  0.22435  0.42480  0.78230  1.0000
  H   H9        1.0  0.44723  0.15719  0.12351  1.0000
  H   H10       1.0  0.03368  0.32371  0.87649  1.0000
  H   H11       1.0  0.57371  0.78368  0.37649  1.0000
  H   H12       1.0  0.40719  0.19723  0.62352  1.0000
  H   H13       1.0  0.54675  0.19328  0.05403  1.0000
  H   H14       1.0  0.13921  0.49264  0.94605  1.0000
  H   H15       1.0  0.74264  0.88920  0.44604  1.0000
  H   H16       1.0  0.44328  0.29675  0.55403  1.0000
  H   H17       1.0  0.15943  0.78948  0.10626  1.0000
  H   H18       1.0  0.68325  0.05298  0.89375  1.0000
  H   H19       1.0  0.30298  0.43325  0.39375  1.0000
  H   H20       1.0  0.03947  0.90943  0.60626  1.0000
  H   H21       1.0  0.31074  0.59261  0.29075  1.0000
  H   H22       1.0  0.30204  0.02003  0.70931  1.0000
  H   H23       1.0  0.27003  0.05203  0.20931  1.0000
  H   H24       1.0  0.84262  0.06075  0.79076  1.0000
  H   H25       1.0  0.04732  0.38116  0.24513  1.0000
  H   H26       1.0  0.13621  0.80224  0.75497  1.0000
  H   H27       1.0  0.05224  0.88621  0.25497  1.0000
  H   H28       1.0  0.63117  0.79732  0.74513  1.0000
  H   H29       1.0  0.84595  0.02978  0.08568  1.0000
  H   H30       1.0  0.94389  0.76020  0.91428  1.0000
  H   H31       1.0  0.01020  0.69389  0.41428  1.0000
  H   H32       1.0  0.27978  0.59595  0.58568  1.0000
  H   H33       1.0  0.05972  0.25653  0.08270  1.0000
  H   H34       1.0  0.17348  0.97678  0.91694  1.0000
  H   H35       1.0  0.22677  0.92348  0.41694  1.0000
  H   H36       1.0  0.50653  0.80973  0.58270  1.0000
  H   H37       1.0  0.49975  0.64942  0.11511  1.0000
  H   H38       1.0  0.53472  0.38485  0.88504  1.0000
  H   H39       1.0  0.63484  0.28471  0.38504  1.0000
  H   H40       1.0  0.89942  0.24975  0.61511  1.0000
  H   H41       1.0  0.27859  0.43225  0.12179  1.0000
  H   H42       1.0  0.31067  0.15690  0.87805  1.0000
  H   H43       1.0  0.40690  0.06067  0.37806  1.0000
  H   H44       1.0  0.68225  0.02859  0.62180  1.0000
  C   C1        1.0  0.95636  0.46486  0.14875  1.0000
  C   C2        1.0  0.31618  0.80755  0.85131  1.0000
  C   C3        1.0  0.05755  0.06617  0.35130  1.0000
  C   C4        1.0  0.71486  0.70637  0.64875  1.0000
  C   C5        1.0  0.98709  0.58300  0.11264  1.0000
  C   C6        1.0  0.47039  0.87433  0.88741  1.0000
  C   C7        1.0  0.12433  0.22039  0.38741  1.0000
  C   C8        1.0  0.83300  0.73709  0.61264  1.0000
  C   C9        1.0  0.13403  0.70025  0.13729  1.0000
  C   C10       1.0  0.56303  0.99661  0.86275  1.0000
  C   C11       1.0  0.24662  0.31302  0.36274  1.0000
  C   C12       1.0  0.95025  0.88403  0.63729  1.0000
  C   C13       1.0  0.25103  0.70362  0.20018  1.0000
  C   C14       1.0  0.50356  0.05078  0.79984  1.0000
  C   C15       1.0  0.30078  0.25355  0.29983  1.0000
  C   C16       1.0  0.95362  0.00103  0.70018  1.0000
  C   C17       1.0  0.21988  0.58926  0.24048  1.0000
  C   C18       1.0  0.34893  0.97940  0.75957  1.0000
  C   C19       1.0  0.22940  0.09893  0.25957  1.0000
  C   C20       1.0  0.83926  0.96988  0.74049  1.0000
  C   C21       1.0  0.07363  0.47077  0.21436  1.0000
  C   C22       1.0  0.25655  0.85925  0.78570  1.0000
  C   C23       1.0  0.10925  0.00655  0.28570  1.0000
  C   C24       1.0  0.72077  0.82363  0.71436  1.0000
  C   C25       1.0  0.79999  0.33310  0.11623  1.0000
  C   C26       1.0  0.21693  0.68376  0.88389  1.0000
  C   C27       1.0  0.93376  0.96693  0.38389  1.0000
  C   C28       1.0  0.58310  0.55000  0.61624  1.0000
  C   C29       1.0  0.86939  0.59385  0.04896  1.0000
  C   C30       1.0  0.54482  0.82026  0.95110  1.0000
  C   C31       1.0  0.07026  0.29482  0.45110  1.0000
  C   C32       1.0  0.84384  0.61939  0.54896  1.0000
  C   C33       1.0  0.40791  0.82726  0.22134  1.0000
  C   C34       1.0  0.60605  0.18647  0.77861  1.0000
  C   C35       1.0  0.43647  0.35604  0.27860  1.0000
  C   C36       1.0  0.07726  0.15791  0.72134  1.0000
  C   C37       1.0  0.91953  0.02253  0.04718  1.0000
  C   C38       1.0  0.97517  0.87230  0.95270  1.0000
  C   C39       1.0  0.12230  0.72517  0.45270  1.0000
  C   C40       1.0  0.27252  0.66953  0.54719  1.0000
  C   C41       1.0  0.04229  0.14987  0.04675  1.0000
  C   C42       1.0  0.10284  0.99538  0.95294  1.0000
  C   C43       1.0  0.24538  0.85284  0.45294  1.0000
  C   C44       1.0  0.39987  0.79230  0.54675  1.0000
  C   C45       1.0  0.13899  0.13903  0.99981  1.0000
  C   C46       1.0  0.38902  0.88899  0.49981  1.0000
  C   C47       1.0  0.45453  0.53770  0.06474  1.0000
  C   C48       1.0  0.47317  0.38984  0.93531  1.0000
  C   C49       1.0  0.63984  0.22317  0.43531  1.0000
  C   C50       1.0  0.78769  0.20452  0.56475  1.0000
  C   C51       1.0  0.32935  0.41470  0.06683  1.0000
  C   C52       1.0  0.34795  0.26255  0.93302  1.0000
  C   C53       1.0  0.51255  0.09795  0.43302  1.0000
  C   C54       1.0  0.66470  0.07935  0.56683  1.0000
  C   C55       1.0  0.27247  0.27249  0.99985  1.0000
  C   C56       1.0  0.52249  0.02247  0.49985  1.0000
  N   N1        1.0  0.88493  0.88500  0.99999  1.0000
  N   N2        1.0  0.13500  0.63493  0.49999  1.0000
  N   N3        1.0  0.52522  0.52512  0.00006  1.0000
  N   N4        1.0  0.77512  0.27522  0.50006  1.0000
  O   O1        1.0  0.78482  0.22670  0.14823  1.0000
  O   O2        1.0  0.07855  0.63663  0.85191  1.0000
  O   O3        1.0  0.88663  0.82855  0.35191  1.0000
  O   O4        1.0  0.47670  0.53482  0.64823  1.0000
  O   O5        1.0  0.69601  0.33380  0.06070  1.0000
  O   O6        1.0  0.27312  0.63530  0.93946  1.0000
  O   O7        1.0  0.88530  0.02312  0.43945  1.0000
  O   O8        1.0  0.58380  0.44601  0.56071  1.0000
  O   O9        1.0  0.82765  0.66767  0.10096  1.0000
  O   O10       1.0  0.56663  0.72650  0.89913  1.0000
  O   O11       1.0  0.97651  0.31663  0.39913  1.0000
  O   O12       1.0  0.91766  0.57765  0.60095  1.0000
  O   O13       1.0  0.82866  0.55100  0.95375  1.0000
  O   O14       1.0  0.59724  0.87482  0.04631  1.0000
  O   O15       1.0  0.12482  0.34724  0.54631  1.0000
  O   O16       1.0  0.80100  0.57866  0.45375  1.0000
  O   O17       1.0  0.42359  0.92622  0.18114  1.0000
  O   O18       1.0  0.74518  0.24233  0.81877  1.0000
  O   O19       1.0  0.49232  0.49517  0.31876  1.0000
  O   O20       1.0  0.17622  0.17359  0.68115  1.0000
  O   O21       1.0  0.51415  0.82684  0.27509  1.0000
  O   O22       1.0  0.55189  0.23899  0.72486  1.0000
  O   O23       1.0  0.48900  0.30189  0.22485  1.0000
  O   O24       1.0  0.07683  0.26415  0.77509  1.0000
  O   O25       1.0  0.74035  0.04921  0.25473  1.0000
  O   O26       1.0  0.79465  0.48580  0.74534  1.0000
  O   O27       1.0  0.73580  0.54465  0.24534  1.0000
  O   O28       1.0  0.29921  0.49035  0.75473  1.0000
  O   O29       1.0  0.46913  0.10637  0.06988  1.0000
  O   O30       1.0  0.03647  0.39918  0.93014  1.0000
  O   O31       1.0  0.64918  0.78646  0.43014  1.0000
  O   O32       1.0  0.35637  0.21914  0.56988  1.0000
