data_image0
_chemical_formula_structural       CoP4H26C16N4O12
_chemical_formula_sum              "Co1 P4 H26 C16 N4 O12"
_cell_length_a       8.81416
_cell_length_b       8.70284
_cell_length_c       9.07446
_cell_angle_alpha    78.8901
_cell_angle_beta     65.6427
_cell_angle_gamma    68.8659

_space_group_name_H-M_alt    "P 1"
_space_group_IT_number       1

loop_
  _space_group_symop_operation_xyz
  'x, y, z'

loop_
  _atom_site_type_symbol
  _atom_site_label
  _atom_site_symmetry_multiplicity
  _atom_site_fract_x
  _atom_site_fract_y
  _atom_site_fract_z
  _atom_site_occupancy
  Co  Co1       1.0  0.50000  0.00000  1.00000  1.0000
  P   P1        1.0  0.65513  0.29094  0.79630  1.0000
  P   P2        1.0  0.34487  0.70906  0.20370  1.0000
  P   P3        1.0  0.93504  0.71407  0.78162  1.0000
  P   P4        1.0  0.06495  0.28594  0.21839  1.0000
  H   H1        1.0  0.95704  0.37764  0.93901  1.0000
  H   H2        1.0  0.04296  0.62236  0.06099  1.0000
  H   H3        1.0  0.53050  0.76259  0.78872  1.0000
  H   H4        1.0  0.46950  0.23742  0.21129  1.0000
  H   H5        1.0  0.38704  0.76574  0.60454  1.0000
  H   H6        1.0  0.61296  0.23425  0.39547  1.0000
  H   H7        1.0  0.16227  0.03149  0.55957  1.0000
  H   H8        1.0  0.83773  0.96851  0.44043  1.0000
  H   H9        1.0  0.27227  0.25924  0.86940  1.0000
  H   H10       1.0  0.72773  0.74076  0.13060  1.0000
  H   H11       1.0  0.02538  0.32613  0.59579  1.0000
  H   H12       1.0  0.97462  0.67387  0.40421  1.0000
  H   H13       1.0  0.14082  0.42218  0.64888  1.0000
  H   H14       1.0  0.85918  0.57781  0.35112  1.0000
  H   H15       1.0  0.70326  0.33409  0.02507  1.0000
  H   H16       1.0  0.29674  0.66591  0.97493  1.0000
  H   H17       1.0  0.87079  0.16016  0.92317  1.0000
  H   H18       1.0  0.12921  0.83985  0.07683  1.0000
  H   H19       1.0  0.70289  0.60173  0.93243  1.0000
  H   H20       1.0  0.29710  0.39827  0.06757  1.0000
  H   H21       1.0  0.76872  0.57845  0.72331  1.0000
  H   H22       1.0  0.23128  0.42155  0.27669  1.0000
  H   H23       1.0  0.79341  0.03672  0.71141  1.0000
  H   H24       1.0  0.20659  0.96328  0.28859  1.0000
  H   H25       1.0  0.11824  0.76612  0.51947  1.0000
  H   H26       1.0  0.88176  0.23389  0.48053  1.0000
  C   C1        1.0  0.43781  0.87559  0.76364  1.0000
  C   C2        1.0  0.56219  0.12441  0.23636  1.0000
  C   C3        1.0  0.35510  0.87866  0.66128  1.0000
  C   C4        1.0  0.64489  0.12134  0.33872  1.0000
  C   C5        1.0  0.23084  0.02460  0.63791  1.0000
  C   C6        1.0  0.76916  0.97540  0.36209  1.0000
  C   C7        1.0  0.19720  0.16457  0.71478  1.0000
  C   C8        1.0  0.80280  0.83544  0.28522  1.0000
  C   C9        1.0  0.28913  0.15217  0.81238  1.0000
  C   C10       1.0  0.71087  0.84783  0.18762  1.0000
  C   C11       1.0  0.07340  0.32888  0.68864  1.0000
  C   C12       1.0  0.92660  0.67112  0.31135  1.0000
  C   C13       1.0  0.79341  0.28802  0.90487  1.0000
  C   C14       1.0  0.20660  0.71198  0.09513  1.0000
  C   C15       1.0  0.81749  0.56740  0.81944  1.0000
  C   C16       1.0  0.18251  0.43260  0.18056  1.0000
  N   N1        1.0  0.40405  0.00972  0.84081  1.0000
  N   N2        1.0  0.59595  0.99028  0.15919  1.0000
  N   N3        1.0  0.91605  0.38982  0.83997  1.0000
  N   N4        1.0  0.08395  0.61019  0.16002  1.0000
  O   O1        1.0  0.59058  0.45741  0.72279  1.0000
  O   O2        1.0  0.40942  0.54259  0.27721  1.0000
  O   O3        1.0  0.51704  0.21899  0.92746  1.0000
  O   O4        1.0  0.48296  0.78101  0.07253  1.0000
  O   O5        1.0  0.77663  0.15747  0.65915  1.0000
  O   O6        1.0  0.22338  0.84253  0.34085  1.0000
  O   O7        1.0  0.04813  0.66222  0.88064  1.0000
  O   O8        1.0  0.95186  0.33778  0.11936  1.0000
  O   O9        1.0  0.79376  0.88312  0.80851  1.0000
  O   O10       1.0  0.20624  0.11688  0.19149  1.0000
  O   O11       1.0  0.04873  0.69340  0.59326  1.0000
  O   O12       1.0  0.95127  0.30661  0.40674  1.0000
