data_image0
_chemical_formula_structural       Cu3H22C12S2N32O12
_chemical_formula_sum              "Cu3 H22 C12 S2 N32 O12"
_cell_length_a       6.67111
_cell_length_b       10.8224
_cell_length_c       12.1555
_cell_angle_alpha    99.9149
_cell_angle_beta     104.838
_cell_angle_gamma    90.1186

_space_group_name_H-M_alt    "P 1"
_space_group_IT_number       1

loop_
  _space_group_symop_operation_xyz
  'x, y, z'

loop_
  _atom_site_type_symbol
  _atom_site_label
  _atom_site_symmetry_multiplicity
  _atom_site_fract_x
  _atom_site_fract_y
  _atom_site_fract_z
  _atom_site_occupancy
  Cu  Cu1       1.0  1.00000  0.00000  0.00000  1.0000
  Cu  Cu2       1.0  0.50000  0.50000  0.00000  1.0000
  Cu  Cu3       1.0  0.50000  0.50000  0.50000  1.0000
  H   H1        1.0  0.98095  0.23605  0.25233  1.0000
  H   H2        1.0  0.01905  0.76395  0.74767  1.0000
  H   H3        1.0  0.57670  0.13546  0.35962  1.0000
  H   H4        1.0  0.42331  0.86454  0.64038  1.0000
  H   H5        1.0  0.95749  0.83293  0.36335  1.0000
  H   H6        1.0  0.04251  0.16707  0.63665  1.0000
  H   H7        1.0  0.83216  0.44266  0.35390  1.0000
  H   H8        1.0  0.16784  0.55734  0.64610  1.0000
  H   H9        1.0  0.87046  0.55964  0.27735  1.0000
  H   H10       1.0  0.12954  0.44036  0.72265  1.0000
  H   H11       1.0  0.34251  0.91922  0.34515  1.0000
  H   H12       1.0  0.65749  0.08078  0.65485  1.0000
  H   H13       1.0  0.33230  0.83590  0.20456  1.0000
  H   H14       1.0  0.66769  0.16410  0.79543  1.0000
  H   H15       1.0  0.52891  0.27590  0.49959  1.0000
  H   H16       1.0  0.47109  0.72410  0.50042  1.0000
  H   H17       1.0  0.20529  0.30036  0.99118  1.0000
  H   H18       1.0  0.79471  0.69964  0.00882  1.0000
  H   H19       1.0  0.04005  0.38136  0.91977  1.0000
  H   H20       1.0  0.95995  0.61864  0.08023  1.0000
  H   H21       1.0  0.76871  0.31480  0.50947  1.0000
  H   H22       1.0  0.23130  0.68520  0.49053  1.0000
  C   C1        1.0  0.55097  0.50890  0.25546  1.0000
  C   C2        1.0  0.44903  0.49110  0.74454  1.0000
  C   C3        1.0  0.77194  0.47581  0.27212  1.0000
  C   C4        1.0  0.22806  0.52419  0.72788  1.0000
  C   C5        1.0  0.79268  0.37959  0.17284  1.0000
  C   C6        1.0  0.20731  0.62040  0.82716  1.0000
  C   C7        1.0  0.04306  0.90817  0.22312  1.0000
  C   C8        1.0  0.95694  0.09182  0.77688  1.0000
  C   C9        1.0  0.27444  0.91793  0.25279  1.0000
  C   C10       1.0  0.72556  0.08207  0.74721  1.0000
  C   C11       1.0  0.34097  0.03325  0.21736  1.0000
  C   C12       1.0  0.65904  0.96675  0.78264  1.0000
  S   S1        1.0  0.14424  0.24324  0.46435  1.0000
  S   S2        1.0  0.85576  0.75676  0.53565  1.0000
  N   N1        1.0  0.42976  0.53056  0.15475  1.0000
  N   N2        1.0  0.57024  0.46944  0.84525  1.0000
  N   N3        1.0  0.24044  0.55661  0.17225  1.0000
  N   N4        1.0  0.75956  0.44340  0.82775  1.0000
  N   N5        1.0  0.24656  0.55139  0.27950  1.0000
  N   N6        1.0  0.75344  0.44861  0.72050  1.0000
  N   N7        1.0  0.43933  0.52045  0.33370  1.0000
  N   N8        1.0  0.56067  0.47955  0.66630  1.0000
  N   N9        1.0  0.69384  0.37675  0.06153  1.0000
  N   N10       1.0  0.30616  0.62325  0.93847  1.0000
  N   N11       1.0  0.74332  0.27130  0.99893  1.0000
  N   N12       1.0  0.25668  0.72870  0.00107  1.0000
  N   N13       1.0  0.86944  0.21061  0.06842  1.0000
  N   N14       1.0  0.13056  0.78939  0.93158  1.0000
  N   N15       1.0  0.90380  0.27727  0.17675  1.0000
  N   N16       1.0  0.09620  0.72273  0.82325  1.0000
  N   N17       1.0  0.25797  0.06911  0.11656  1.0000
  N   N18       1.0  0.74203  0.93089  0.88344  1.0000
  N   N19       1.0  0.34928  0.18142  0.11771  1.0000
  N   N20       1.0  0.65072  0.81858  0.88229  1.0000
  N   N21       1.0  0.48720  0.21489  0.21507  1.0000
  N   N22       1.0  0.51280  0.78511  0.78493  1.0000
  N   N23       1.0  0.48431  0.12341  0.27717  1.0000
  N   N24       1.0  0.51569  0.87658  0.72283  1.0000
  N   N25       1.0  0.91746  0.94067  0.12890  1.0000
  N   N26       1.0  0.08254  0.05933  0.87110  1.0000
  N   N27       1.0  0.71959  0.92587  0.13534  1.0000
  N   N28       1.0  0.28041  0.07413  0.86465  1.0000
  N   N29       1.0  0.72173  0.88361  0.22915  1.0000
  N   N30       1.0  0.27827  0.11639  0.77085  1.0000
  N   N31       1.0  0.92143  0.87219  0.28465  1.0000
  N   N32       1.0  0.07857  0.12781  0.71535  1.0000
  O   O1        1.0  0.34340  0.19050  0.51983  1.0000
  O   O2        1.0  0.65660  0.80950  0.48017  1.0000
  O   O3        1.0  0.99160  0.23353  0.53612  1.0000
  O   O4        1.0  0.00840  0.76647  0.46388  1.0000
  O   O5        1.0  0.05377  0.16524  0.34669  1.0000
  O   O6        1.0  0.94623  0.83477  0.65331  1.0000
  O   O7        1.0  0.17113  0.37568  0.45416  1.0000
  O   O8        1.0  0.82887  0.62433  0.54583  1.0000
  O   O9        1.0  0.62167  0.32818  0.46939  1.0000
  O   O10       1.0  0.37833  0.67182  0.53061  1.0000
  O   O11       1.0  0.18155  0.35128  0.93027  1.0000
  O   O12       1.0  0.81845  0.64872  0.06973  1.0000
