data_image0
_chemical_formula_structural       Y2H12C10O16
_chemical_formula_sum              "Y2 H12 C10 O16"
_cell_length_a       7.94864
_cell_length_b       7.97788
_cell_length_c       7.87073
_cell_angle_alpha    107.906
_cell_angle_beta     96.4435
_cell_angle_gamma    113.993

_space_group_name_H-M_alt    "P 1"
_space_group_IT_number       1

loop_
  _space_group_symop_operation_xyz
  'x, y, z'

loop_
  _atom_site_type_symbol
  _atom_site_label
  _atom_site_symmetry_multiplicity
  _atom_site_fract_x
  _atom_site_fract_y
  _atom_site_fract_z
  _atom_site_occupancy
  Y   Y1        1.0  0.57506  0.79103  0.26656  1.0000
  Y   Y2        1.0  0.42504  0.20893  0.73345  1.0000
  H   H1        1.0  0.09120  0.40923  0.35975  1.0000
  H   H2        1.0  0.90878  0.59076  0.64018  1.0000
  H   H3        1.0  0.14191  0.71402  0.13649  1.0000
  H   H4        1.0  0.85819  0.28598  0.86350  1.0000
  H   H5        1.0  0.59833  0.49723  0.42144  1.0000
  H   H6        1.0  0.40049  0.50252  0.57922  1.0000
  H   H7        1.0  0.45857  0.36421  0.21409  1.0000
  H   H8        1.0  0.54149  0.63569  0.78590  1.0000
  H   H9        1.0  0.89803  0.98200  0.62524  1.0000
  H   H10       1.0  0.10200  0.01805  0.37476  1.0000
  H   H11       1.0  0.70000  0.93216  0.66941  1.0000
  H   H12       1.0  0.30004  0.06789  0.33060  1.0000
  C   C1        1.0  0.55917  0.96484  0.94126  1.0000
  C   C2        1.0  0.44084  0.03515  0.05872  1.0000
  C   C3        1.0  0.21790  0.73557  0.51251  1.0000
  C   C4        1.0  0.78217  0.26446  0.48747  1.0000
  C   C5        1.0  0.07342  0.52480  0.46187  1.0000
  C   C6        1.0  0.92672  0.47526  0.53817  1.0000
  C   C7        1.0  0.83130  0.60635  0.08117  1.0000
  C   C8        1.0  0.16878  0.39366  0.91877  1.0000
  C   C9        1.0  0.00460  0.58498  0.05660  1.0000
  C   C10       1.0  0.99545  0.41501  0.94334  1.0000
  O   O1        1.0  0.61349  0.84900  0.97977  1.0000
  O   O2        1.0  0.38648  0.15092  0.02018  1.0000
  O   O3        1.0  0.59062  0.02727  0.81244  1.0000
  O   O4        1.0  0.40940  0.97272  0.18758  1.0000
  O   O5        1.0  0.35378  0.76801  0.43424  1.0000
  O   O6        1.0  0.64626  0.23207  0.56574  1.0000
  O   O7        1.0  0.20111  0.87268  0.63225  1.0000
  O   O8        1.0  0.79891  0.12734  0.36772  1.0000
  O   O9        1.0  0.85241  0.76159  0.21329  1.0000
  O   O10       1.0  0.14770  0.23845  0.78661  1.0000
  O   O11       1.0  0.66905  0.47077  0.97309  1.0000
  O   O12       1.0  0.33104  0.52929  0.02682  1.0000
  O   O13       1.0  0.51570  0.49578  0.31926  1.0000
  O   O14       1.0  0.48452  0.50430  0.68051  1.0000
  O   O15       1.0  0.76188  0.88303  0.57575  1.0000
  O   O16       1.0  0.23818  0.11701  0.42426  1.0000
