data_image0
_chemical_formula_structural       Cu4H28C28I4N4
_chemical_formula_sum              "Cu4 H28 C28 I4 N4"
_cell_length_a       4.04124
_cell_length_b       11.9422
_cell_length_c       16.3397
_cell_angle_alpha    98.4658
_cell_angle_beta     89.9993
_cell_angle_gamma    89.998

_space_group_name_H-M_alt    "P 1"
_space_group_IT_number       1

loop_
  _space_group_symop_operation_xyz
  'x, y, z'

loop_
  _atom_site_type_symbol
  _atom_site_label
  _atom_site_symmetry_multiplicity
  _atom_site_fract_x
  _atom_site_fract_y
  _atom_site_fract_z
  _atom_site_occupancy
  Cu  Cu1       1.0  0.41920  0.69823  0.70613  1.0000
  Cu  Cu2       1.0  0.91916  0.80177  0.79388  1.0000
  Cu  Cu3       1.0  0.58079  0.30177  0.29387  1.0000
  Cu  Cu4       1.0  0.08082  0.19822  0.20612  1.0000
  H   H1        1.0  0.13179  0.49549  0.76449  1.0000
  H   H2        1.0  0.63186  0.00452  0.73551  1.0000
  H   H3        1.0  0.86819  0.50450  0.23551  1.0000
  H   H4        1.0  0.36818  0.99548  0.26449  1.0000
  H   H5        1.0  0.11957  0.28800  0.72072  1.0000
  H   H6        1.0  0.61958  0.21201  0.77926  1.0000
  H   H7        1.0  0.88041  0.71199  0.27928  1.0000
  H   H8        1.0  0.38040  0.78799  0.22073  1.0000
  H   H9        1.0  0.73378  0.33877  0.51253  1.0000
  H   H10       1.0  0.23384  0.16123  0.98747  1.0000
  H   H11       1.0  0.26624  0.66124  0.48749  1.0000
  H   H12       1.0  0.76620  0.83875  0.01252  1.0000
  H   H13       1.0  0.72638  0.54555  0.56709  1.0000
  H   H14       1.0  0.22639  0.95445  0.93291  1.0000
  H   H15       1.0  0.27361  0.45445  0.43292  1.0000
  H   H16       1.0  0.77362  0.04553  0.06708  1.0000
  H   H17       1.0  0.60509  0.14919  0.52803  1.0000
  H   H18       1.0  0.10509  0.35081  0.97196  1.0000
  H   H19       1.0  0.39490  0.85081  0.47197  1.0000
  H   H20       1.0  0.89493  0.64919  0.02803  1.0000
  H   H21       1.0  0.09434  0.10970  0.66191  1.0000
  H   H22       1.0  0.59431  0.39030  0.83808  1.0000
  H   H23       1.0  0.90568  0.89030  0.33809  1.0000
  H   H24       1.0  0.40562  0.60969  0.16192  1.0000
  H   H25       1.0  0.29075  0.00248  0.58402  1.0000
  H   H26       1.0  0.79071  0.49754  0.91598  1.0000
  H   H27       1.0  0.70922  0.99753  0.41597  1.0000
  H   H28       1.0  0.20928  0.50248  0.08404  1.0000
  C   C1        1.0  0.26234  0.45710  0.70888  1.0000
  C   C2        1.0  0.76237  0.04292  0.79112  1.0000
  C   C3        1.0  0.73763  0.54290  0.29111  1.0000
  C   C4        1.0  0.23763  0.95709  0.20889  1.0000
  C   C5        1.0  0.25795  0.34101  0.68390  1.0000
  C   C6        1.0  0.75800  0.15902  0.81609  1.0000
  C   C7        1.0  0.74204  0.65899  0.31610  1.0000
  C   C8        1.0  0.24202  0.84100  0.18392  1.0000
  C   C9        1.0  0.42763  0.29371  0.61175  1.0000
  C   C10       1.0  0.92765  0.20631  0.88825  1.0000
  C   C11       1.0  0.57235  0.70629  0.38826  1.0000
  C   C12       1.0  0.07235  0.79370  0.11175  1.0000
  C   C13       1.0  0.43951  0.17253  0.58068  1.0000
  C   C14       1.0  0.93954  0.32747  0.91932  1.0000
  C   C15       1.0  0.56051  0.82749  0.41932  1.0000
  C   C16       1.0  0.06050  0.67249  0.08070  1.0000
  C   C17       1.0  0.26732  0.09133  0.61049  1.0000
  C   C18       1.0  0.76732  0.40867  0.88950  1.0000
  C   C19       1.0  0.73268  0.90868  0.38949  1.0000
  C   C20       1.0  0.23268  0.59130  0.11052  1.0000
  C   C21       1.0  0.59594  0.36994  0.56877  1.0000
  C   C22       1.0  0.09598  0.13008  0.93123  1.0000
  C   C23       1.0  0.40409  0.63005  0.43125  1.0000
  C   C24       1.0  0.90406  0.86994  0.06876  1.0000
  C   C25       1.0  0.59127  0.48497  0.59830  1.0000
  C   C26       1.0  0.09131  0.01506  0.90170  1.0000
  C   C27       1.0  0.40876  0.51504  0.40172  1.0000
  C   C28       1.0  0.90871  0.98495  0.09829  1.0000
  I   I1        1.0  0.91727  0.78716  0.63135  1.0000
  I   I2        1.0  0.41727  0.71284  0.86865  1.0000
  I   I3        1.0  0.08273  0.21283  0.36865  1.0000
  I   I4        1.0  0.58272  0.28716  0.13134  1.0000
  N   N1        1.0  0.42736  0.52959  0.66734  1.0000
  N   N2        1.0  0.92738  0.97042  0.83266  1.0000
  N   N3        1.0  0.57259  0.47042  0.33266  1.0000
  N   N4        1.0  0.07260  0.02955  0.16733  1.0000
