data_image0
_chemical_formula_structural       Cu4H28C28Br4N4
_chemical_formula_sum              "Cu4 H28 C28 Br4 N4"
_cell_length_a       8.78124
_cell_length_b       9.42037
_cell_length_c       9.73746
_cell_angle_alpha    91.9927
_cell_angle_beta     104.804
_cell_angle_gamma    90.3599

_space_group_name_H-M_alt    "P 1"
_space_group_IT_number       1

loop_
  _space_group_symop_operation_xyz
  'x, y, z'

loop_
  _atom_site_type_symbol
  _atom_site_label
  _atom_site_symmetry_multiplicity
  _atom_site_fract_x
  _atom_site_fract_y
  _atom_site_fract_z
  _atom_site_occupancy
  Cu  Cu1       1.0  0.90998  0.57333  0.84925  1.0000
  Cu  Cu2       1.0  0.09003  0.42667  0.15075  1.0000
  Cu  Cu3       1.0  0.92202  0.92567  0.61307  1.0000
  Cu  Cu4       1.0  0.07798  0.07433  0.38693  1.0000
  H   H1        1.0  0.04956  0.82419  0.86140  1.0000
  H   H2        1.0  0.95045  0.17581  0.13860  1.0000
  H   H3        1.0  0.94249  0.13502  0.79658  1.0000
  H   H4        1.0  0.05751  0.86498  0.20343  1.0000
  H   H5        1.0  0.13797  0.05833  0.80749  1.0000
  H   H6        1.0  0.86204  0.94167  0.19251  1.0000
  H   H7        1.0  0.71646  0.08665  0.81651  1.0000
  H   H8        1.0  0.28354  0.91334  0.18349  1.0000
  H   H9        1.0  0.45087  0.02010  0.84389  1.0000
  H   H10       1.0  0.54913  0.97990  0.15611  1.0000
  H   H11       1.0  0.40376  0.76802  0.90816  1.0000
  H   H12       1.0  0.59623  0.23198  0.09184  1.0000
  H   H13       1.0  0.62203  0.59570  0.92917  1.0000
  H   H14       1.0  0.37797  0.40430  0.07082  1.0000
  H   H15       1.0  0.05330  0.67689  0.67346  1.0000
  H   H16       1.0  0.94670  0.32311  0.32654  1.0000
  H   H17       1.0  0.93190  0.36538  0.67420  1.0000
  H   H18       1.0  0.06810  0.63462  0.32580  1.0000
  H   H19       1.0  0.12680  0.44170  0.76792  1.0000
  H   H20       1.0  0.87320  0.55830  0.23208  1.0000
  H   H21       1.0  0.74289  0.40287  0.50136  1.0000
  H   H22       1.0  0.25711  0.59713  0.49865  1.0000
  H   H23       1.0  0.50087  0.46085  0.31791  1.0000
  H   H24       1.0  0.49913  0.53915  0.68209  1.0000
  H   H25       1.0  0.44192  0.71696  0.26421  1.0000
  H   H26       1.0  0.55808  0.28304  0.73579  1.0000
  H   H27       1.0  0.63351  0.90368  0.39921  1.0000
  H   H28       1.0  0.36649  0.09632  0.60079  1.0000
  C   C1        1.0  0.80708  0.87476  0.85017  1.0000
  C   C2        1.0  0.19292  0.12523  0.14983  1.0000
  C   C3        1.0  0.96308  0.90761  0.83031  1.0000
  C   C4        1.0  0.03692  0.09239  0.16969  1.0000
  C   C5        1.0  0.01311  0.03999  0.79852  1.0000
  C   C6        1.0  0.98689  0.96001  0.20148  1.0000
  C   C7        1.0  0.68989  0.97808  0.83874  1.0000
  C   C8        1.0  0.31011  0.02192  0.16126  1.0000
  C   C9        1.0  0.54298  0.94126  0.85562  1.0000
  C   C10       1.0  0.45702  0.05873  0.14438  1.0000
  C   C11       1.0  0.51573  0.80218  0.89032  1.0000
  C   C12       1.0  0.48427  0.19781  0.10968  1.0000
  C   C13       1.0  0.63625  0.70551  0.90182  1.0000
  C   C14       1.0  0.36375  0.29449  0.09818  1.0000
  C   C15       1.0  0.81800  0.62219  0.54766  1.0000
  C   C16       1.0  0.18200  0.37781  0.45233  1.0000
  C   C17       1.0  0.96386  0.59233  0.65498  1.0000
  C   C18       1.0  0.03614  0.40767  0.34502  1.0000
  C   C19       1.0  0.00514  0.46002  0.71070  1.0000
  C   C20       1.0  0.99486  0.53998  0.28930  1.0000
  C   C21       1.0  0.71495  0.51311  0.47670  1.0000
  C   C22       1.0  0.28504  0.48689  0.52329  1.0000
  C   C23       1.0  0.58026  0.54552  0.37350  1.0000
  C   C24       1.0  0.41973  0.45448  0.62650  1.0000
  C   C25       1.0  0.54780  0.68761  0.34336  1.0000
  C   C26       1.0  0.45220  0.31240  0.65664  1.0000
  C   C27       1.0  0.65327  0.79092  0.41755  1.0000
  C   C28       1.0  0.34674  0.20908  0.58245  1.0000
  Br  Br1       1.0  0.81141  0.37208  0.95594  1.0000
  Br  Br2       1.0  0.18859  0.62792  0.04405  1.0000
  Br  Br3       1.0  0.81422  0.12614  0.46571  1.0000
  Br  Br4       1.0  0.18579  0.87387  0.53430  1.0000
  N   N1        1.0  0.77773  0.73799  0.87885  1.0000
  N   N2        1.0  0.22227  0.26201  0.12115  1.0000
  N   N3        1.0  0.78651  0.76076  0.51639  1.0000
  N   N4        1.0  0.21349  0.23924  0.48361  1.0000
