data_image0
_chemical_formula_structural       Cu4H28C28I4N4
_chemical_formula_sum              "Cu4 H28 C28 I4 N4"
_cell_length_a       4.11632
_cell_length_b       13.8329
_cell_length_c       13.8699
_cell_angle_alpha    89.9995
_cell_angle_beta     99.5556
_cell_angle_gamma    89.9992

_space_group_name_H-M_alt    "P 1"
_space_group_IT_number       1

loop_
  _space_group_symop_operation_xyz
  'x, y, z'

loop_
  _atom_site_type_symbol
  _atom_site_label
  _atom_site_symmetry_multiplicity
  _atom_site_fract_x
  _atom_site_fract_y
  _atom_site_fract_z
  _atom_site_occupancy
  Cu  Cu1       1.0  0.34909  0.92040  0.02336  1.0000
  Cu  Cu2       1.0  0.65091  0.42040  0.47665  1.0000
  Cu  Cu3       1.0  0.65091  0.07960  0.97665  1.0000
  Cu  Cu4       1.0  0.34909  0.57960  0.52335  1.0000
  H   H1        1.0  0.14568  0.77468  0.11269  1.0000
  H   H2        1.0  0.85433  0.27469  0.38733  1.0000
  H   H3        1.0  0.85433  0.22532  0.88731  1.0000
  H   H4        1.0  0.14566  0.72531  0.61267  1.0000
  H   H5        1.0  0.12507  0.55086  0.10462  1.0000
  H   H6        1.0  0.87495  0.05087  0.39538  1.0000
  H   H7        1.0  0.87492  0.44914  0.89537  1.0000
  H   H8        1.0  0.12506  0.94913  0.60462  1.0000
  H   H9        1.0  0.00420  0.63093  0.19908  1.0000
  H   H10       1.0  0.99583  0.13094  0.30093  1.0000
  H   H11       1.0  0.99580  0.36907  0.80092  1.0000
  H   H12       1.0  0.00418  0.86906  0.69908  1.0000
  H   H13       1.0  0.27504  0.55021  0.96451  1.0000
  H   H14       1.0  0.72494  0.05020  0.53549  1.0000
  H   H15       1.0  0.72496  0.44980  0.03548  1.0000
  H   H16       1.0  0.27506  0.94980  0.46451  1.0000
  H   H17       1.0  0.50602  0.55990  0.80897  1.0000
  H   H18       1.0  0.49393  0.05989  0.69102  1.0000
  H   H19       1.0  0.49397  0.44011  0.19102  1.0000
  H   H20       1.0  0.50607  0.94010  0.30898  1.0000
  H   H21       1.0  0.67069  0.72191  0.75255  1.0000
  H   H22       1.0  0.32930  0.22191  0.74746  1.0000
  H   H23       1.0  0.32931  0.27810  0.24745  1.0000
  H   H24       1.0  0.67071  0.77808  0.25255  1.0000
  H   H25       1.0  0.58334  0.86794  0.85188  1.0000
  H   H26       1.0  0.41668  0.36794  0.64813  1.0000
  H   H27       1.0  0.41666  0.13206  0.14812  1.0000
  H   H28       1.0  0.58333  0.63206  0.35188  1.0000
  C   C1        1.0  0.30728  0.70394  0.99071  1.0000
  C   C2        1.0  0.69272  0.20393  0.50930  1.0000
  C   C3        1.0  0.69272  0.29607  0.00929  1.0000
  C   C4        1.0  0.30728  0.79607  0.49070  1.0000
  C   C5        1.0  0.17743  0.70283  0.08248  1.0000
  C   C6        1.0  0.82259  0.20284  0.41752  1.0000
  C   C7        1.0  0.82257  0.29716  0.91752  1.0000
  C   C8        1.0  0.17741  0.79716  0.58248  1.0000
  C   C9        1.0  0.09769  0.62446  0.13038  1.0000
  C   C10       1.0  0.90231  0.12447  0.36963  1.0000
  C   C11       1.0  0.90230  0.37554  0.86962  1.0000
  C   C12       1.0  0.09770  0.87553  0.63037  1.0000
  C   C13       1.0  0.34729  0.61960  0.93758  1.0000
  C   C14       1.0  0.65268  0.11960  0.56242  1.0000
  C   C15       1.0  0.65270  0.38040  0.06242  1.0000
  C   C16       1.0  0.34731  0.88040  0.43758  1.0000
  C   C17       1.0  0.47616  0.62461  0.85144  1.0000
  C   C18       1.0  0.52382  0.12460  0.64855  1.0000
  C   C19       1.0  0.52384  0.37540  0.14855  1.0000
  C   C20       1.0  0.47618  0.87540  0.35145  1.0000
  C   C21       1.0  0.56631  0.71488  0.81940  1.0000
  C   C22       1.0  0.43368  0.21489  0.68060  1.0000
  C   C23       1.0  0.43369  0.28512  0.18060  1.0000
  C   C24       1.0  0.56633  0.78511  0.31940  1.0000
  C   C25       1.0  0.51788  0.79589  0.87422  1.0000
  C   C26       1.0  0.48213  0.29588  0.62578  1.0000
  C   C27       1.0  0.48212  0.20412  0.12577  1.0000
  C   C28       1.0  0.51788  0.70411  0.37422  1.0000
  I   I1        1.0  0.90340  0.96597  0.13323  1.0000
  I   I2        1.0  0.09659  0.46597  0.36678  1.0000
  I   I3        1.0  0.09660  0.03403  0.86677  1.0000
  I   I4        1.0  0.90340  0.53403  0.63323  1.0000
  N   N1        1.0  0.38928  0.79195  0.95777  1.0000
  N   N2        1.0  0.61073  0.29195  0.54224  1.0000
  N   N3        1.0  0.61072  0.20805  0.04223  1.0000
  N   N4        1.0  0.38927  0.70805  0.45777  1.0000
