data_image0
_chemical_formula_structural       Cu2H14C14Br2N2
_chemical_formula_sum              "Cu2 H14 C14 Br2 N2"
_cell_length_a       6.21831
_cell_length_b       7.95553
_cell_length_c       7.83231
_cell_angle_alpha    103.61
_cell_angle_beta     89.9981
_cell_angle_gamma    89.9996

_space_group_name_H-M_alt    "P 1"
_space_group_IT_number       1

loop_
  _space_group_symop_operation_xyz
  'x, y, z'

loop_
  _atom_site_type_symbol
  _atom_site_label
  _atom_site_symmetry_multiplicity
  _atom_site_fract_x
  _atom_site_fract_y
  _atom_site_fract_z
  _atom_site_occupancy
  Cu  Cu1       1.0  0.08728  0.37634  0.05823  1.0000
  Cu  Cu2       1.0  0.58732  0.62360  0.94177  1.0000
  H   H1        1.0  0.44079  0.24269  0.24916  1.0000
  H   H2        1.0  0.94088  0.75727  0.75082  1.0000
  H   H3        1.0  0.48684  0.98724  0.37431  1.0000
  H   H4        1.0  0.98686  0.01274  0.62571  1.0000
  H   H5        1.0  0.84019  0.83318  0.20147  1.0000
  H   H6        1.0  0.34026  0.16677  0.79855  1.0000
  H   H7        1.0  0.81581  0.10210  0.09233  1.0000
  H   H8        1.0  0.31584  0.89789  0.90769  1.0000
  H   H9        1.0  0.02625  0.65594  0.35555  1.0000
  H   H10       1.0  0.52631  0.34402  0.64446  1.0000
  H   H11       1.0  0.33782  0.55955  0.49601  1.0000
  H   H12       1.0  0.83787  0.44052  0.50399  1.0000
  H   H13       1.0  0.50024  0.74388  0.46195  1.0000
  H   H14       1.0  0.00027  0.25618  0.53805  1.0000
  C   C1        1.0  0.31033  0.14993  0.24365  1.0000
  C   C2        1.0  0.81042  0.85009  0.75633  1.0000
  C   C3        1.0  0.33485  0.00533  0.31196  1.0000
  C   C4        1.0  0.83486  0.99469  0.68801  1.0000
  C   C5        1.0  0.16573  0.88540  0.30028  1.0000
  C   C6        1.0  0.66578  0.11466  0.69971  1.0000
  C   C7        1.0  0.17535  0.73089  0.36997  1.0000
  C   C8        1.0  0.67535  0.26908  0.63002  1.0000
  C   C9        1.0  0.34665  0.67606  0.44615  1.0000
  C   C10       1.0  0.84665  0.32397  0.55387  1.0000
  C   C11       1.0  0.97622  0.92232  0.21787  1.0000
  C   C12       1.0  0.47630  0.07767  0.78211  1.0000
  C   C13       1.0  0.96235  0.07013  0.15409  1.0000
  C   C14       1.0  0.46240  0.92988  0.84592  1.0000
  Br  Br1       1.0  0.20015  0.53273  0.86146  1.0000
  Br  Br2       1.0  0.70014  0.46727  0.13857  1.0000
  N   N1        1.0  0.12668  0.18408  0.16440  1.0000
  N   N2        1.0  0.62678  0.81591  0.83557  1.0000
