data_image0
_chemical_formula_structural       Cu2H18C26N2Cl2
_chemical_formula_sum              "Cu2 H18 C26 N2 Cl2"
_cell_length_a       3.73269
_cell_length_b       9.00446
_cell_length_c       15.1253
_cell_angle_alpha    90.0005
_cell_angle_beta     89.9997
_cell_angle_gamma    91.8435

_space_group_name_H-M_alt    "P 1"
_space_group_IT_number       1

loop_
  _space_group_symop_operation_xyz
  'x, y, z'

loop_
  _atom_site_type_symbol
  _atom_site_label
  _atom_site_symmetry_multiplicity
  _atom_site_fract_x
  _atom_site_fract_y
  _atom_site_fract_z
  _atom_site_occupancy
  Cu  Cu1       1.0  0.37501  0.23764  0.00536  1.0000
  Cu  Cu2       1.0  0.62500  0.76236  0.50536  1.0000
  H   H1        1.0  0.64231  0.49545  0.03005  1.0000
  H   H2        1.0  0.35771  0.50455  0.53005  1.0000
  H   H3        1.0  0.78763  0.76721  0.03797  1.0000
  H   H4        1.0  0.21239  0.23279  0.53796  1.0000
  H   H5        1.0  0.62440  0.93423  0.91529  1.0000
  H   H6        1.0  0.37562  0.06577  0.41529  1.0000
  H   H7        1.0  0.32455  0.82877  0.77995  1.0000
  H   H8        1.0  0.67545  0.17123  0.27995  1.0000
  H   H9        1.0  0.06158  0.61381  0.70014  1.0000
  H   H10       1.0  0.93842  0.38619  0.20014  1.0000
  H   H11       1.0  0.12026  0.07915  0.88316  1.0000
  H   H12       1.0  0.87972  0.92084  0.38316  1.0000
  H   H13       1.0  0.82741  0.96401  0.75079  1.0000
  H   H14       1.0  0.17256  0.03600  0.25079  1.0000
  H   H15       1.0  0.66364  0.11740  0.62246  1.0000
  H   H16       1.0  0.33634  0.88260  0.12246  1.0000
  H   H17       1.0  0.79930  0.39070  0.62384  1.0000
  H   H18       1.0  0.20069  0.60930  0.12383  1.0000
  C   C1        1.0  0.38722  0.50785  0.90241  1.0000
  C   C2        1.0  0.61278  0.49215  0.40242  1.0000
  C   C3        1.0  0.56758  0.57056  0.97681  1.0000
  C   C4        1.0  0.43243  0.42944  0.47681  1.0000
  C   C5        1.0  0.64859  0.72053  0.98060  1.0000
  C   C6        1.0  0.35142  0.27948  0.48059  1.0000
  C   C7        1.0  0.55790  0.81584  0.90995  1.0000
  C   C8        1.0  0.44210  0.18416  0.40995  1.0000
  C   C9        1.0  0.39233  0.75844  0.83585  1.0000
  C   C10       1.0  0.60768  0.24156  0.33585  1.0000
  C   C11       1.0  0.30192  0.60395  0.82977  1.0000
  C   C12       1.0  0.69807  0.39605  0.32976  1.0000
  C   C13       1.0  0.12830  0.54250  0.75584  1.0000
  C   C14       1.0  0.87169  0.45750  0.25584  1.0000
  C   C15       1.0  0.13437  0.30061  0.82867  1.0000
  C   C16       1.0  0.86564  0.69939  0.32867  1.0000
  C   C17       1.0  0.04925  0.14605  0.82593  1.0000
  C   C18       1.0  0.95075  0.85395  0.32593  1.0000
  C   C19       1.0  0.88659  0.08306  0.75285  1.0000
  C   C20       1.0  0.11341  0.91693  0.25285  1.0000
  C   C21       1.0  0.79464  0.17097  0.67895  1.0000
  C   C22       1.0  0.20536  0.82903  0.17895  1.0000
  C   C23       1.0  0.86948  0.32112  0.67981  1.0000
  C   C24       1.0  0.13051  0.67889  0.17981  1.0000
  C   C25       1.0  0.04336  0.39032  0.75357  1.0000
  C   C26       1.0  0.95664  0.60968  0.25357  1.0000
  N   N1        1.0  0.30042  0.35965  0.90147  1.0000
  N   N2        1.0  0.69958  0.64035  0.40147  1.0000
  Cl  Cl1       1.0  0.85149  0.15664  0.07612  1.0000
  Cl  Cl2       1.0  0.14852  0.84336  0.57613  1.0000
