data_image0
_chemical_formula_structural       CuH9C13BrN
_chemical_formula_sum              "Cu1 H9 C13 Br1 N1"
_cell_length_a       3.86004
_cell_length_b       8.48077
_cell_length_c       8.73099
_cell_angle_alpha    67.4778
_cell_angle_beta     86.6717
_cell_angle_gamma    79.6239

_space_group_name_H-M_alt    "P 1"
_space_group_IT_number       1

loop_
  _space_group_symop_operation_xyz
  'x, y, z'

loop_
  _atom_site_type_symbol
  _atom_site_label
  _atom_site_symmetry_multiplicity
  _atom_site_fract_x
  _atom_site_fract_y
  _atom_site_fract_z
  _atom_site_occupancy
  Cu  Cu1       1.0  0.95308  0.14828  0.35562  1.0000
  H   H1        1.0  0.74466  0.09052  0.12125  1.0000
  H   H2        1.0  0.60198  0.07154  0.85484  1.0000
  H   H3        1.0  0.64254  0.31565  0.58791  1.0000
  H   H4        1.0  0.83488  0.58358  0.58402  1.0000
  H   H5        1.0  0.05304  0.74121  0.73508  1.0000
  H   H6        1.0  0.13248  0.39130  0.41946  1.0000
  H   H7        1.0  0.32392  0.65372  0.42654  1.0000
  H   H8        1.0  0.38109  0.90420  0.16716  1.0000
  H   H9        1.0  0.24860  0.89464  0.89364  1.0000
  C   C1        1.0  0.88111  0.34550  0.00485  1.0000
  C   C2        1.0  0.76613  0.19670  0.00256  1.0000
  C   C3        1.0  0.68649  0.18710  0.85525  1.0000
  C   C4        1.0  0.71128  0.32682  0.70226  1.0000
  C   C5        1.0  0.81798  0.47362  0.69985  1.0000
  C   C6        1.0  0.90871  0.48704  0.84954  1.0000
  C   C7        1.0  0.02734  0.63254  0.85109  1.0000
  C   C8        1.0  0.07393  0.49413  0.15295  1.0000
  C   C9        1.0  0.15657  0.50266  0.30549  1.0000
  C   C10       1.0  0.26332  0.64770  0.30876  1.0000
  C   C11       1.0  0.29650  0.79139  0.16008  1.0000
  C   C12       1.0  0.22383  0.78656  0.01011  1.0000
  C   C13       1.0  0.10940  0.63962  0.00174  1.0000
  Br  Br1       1.0  0.50401  0.99507  0.50242  1.0000
  N   N1        1.0  0.96391  0.35022  0.15264  1.0000
