data_image0
_chemical_formula_structural       Cu4H36C40N4Cl4
_chemical_formula_sum              "Cu4 H36 C40 N4 Cl4"
_cell_length_a       3.73066
_cell_length_b       9.32639
_cell_length_c       25.2252
_cell_angle_alpha    89.9998
_cell_angle_beta     89.9998
_cell_angle_gamma    90.0007

_space_group_name_H-M_alt    "P 1"
_space_group_IT_number       1

loop_
  _space_group_symop_operation_xyz
  'x, y, z'

loop_
  _atom_site_type_symbol
  _atom_site_label
  _atom_site_symmetry_multiplicity
  _atom_site_fract_x
  _atom_site_fract_y
  _atom_site_fract_z
  _atom_site_occupancy
  Cu  Cu1       1.0  0.73520  0.98101  0.63579  1.0000
  Cu  Cu2       1.0  0.26481  0.51899  0.13579  1.0000
  Cu  Cu3       1.0  0.76482  0.48101  0.36421  1.0000
  Cu  Cu4       1.0  0.23519  0.01899  0.86421  1.0000
  H   H1        1.0  0.29561  0.90996  0.71519  1.0000
  H   H2        1.0  0.70440  0.59004  0.21519  1.0000
  H   H3        1.0  0.20438  0.40996  0.28481  1.0000
  H   H4        1.0  0.79562  0.09003  0.78481  1.0000
  H   H5        1.0  0.67103  0.85657  0.75359  1.0000
  H   H6        1.0  0.32898  0.64343  0.25359  1.0000
  H   H7        1.0  0.82896  0.35657  0.24641  1.0000
  H   H8        1.0  0.17104  0.14343  0.74641  1.0000
  H   H9        1.0  0.26233  0.76317  0.76073  1.0000
  H   H10       1.0  0.73768  0.73684  0.26072  1.0000
  H   H11       1.0  0.23766  0.26317  0.23927  1.0000
  H   H12       1.0  0.76234  0.23682  0.73927  1.0000
  H   H13       1.0  0.35622  0.52704  0.72807  1.0000
  H   H14       1.0  0.64377  0.97296  0.22807  1.0000
  H   H15       1.0  0.14375  0.02704  0.27193  1.0000
  H   H16       1.0  0.85622  0.47295  0.77193  1.0000
  H   H17       1.0  0.53407  0.36141  0.65437  1.0000
  H   H18       1.0  0.46592  0.13859  0.15437  1.0000
  H   H19       1.0  0.96591  0.86141  0.34563  1.0000
  H   H20       1.0  0.03406  0.63859  0.84562  1.0000
  H   H21       1.0  0.80632  0.33310  0.56456  1.0000
  H   H22       1.0  0.19368  0.16691  0.06456  1.0000
  H   H23       1.0  0.69369  0.83309  0.43544  1.0000
  H   H24       1.0  0.30632  0.66691  0.93543  1.0000
  H   H25       1.0  0.07026  0.44568  0.48382  1.0000
  H   H26       1.0  0.92971  0.05432  0.98382  1.0000
  H   H27       1.0  0.42973  0.94568  0.51618  1.0000
  H   H28       1.0  0.57026  0.55433  0.01617  1.0000
  H   H29       1.0  0.17523  0.70734  0.48063  1.0000
  H   H30       1.0  0.82476  0.79266  0.98063  1.0000
  H   H31       1.0  0.32475  0.20734  0.51937  1.0000
  H   H32       1.0  0.67522  0.29267  0.01937  1.0000
  H   H33       1.0  0.99916  0.86210  0.55752  1.0000
  H   H34       1.0  0.00085  0.63790  0.05752  1.0000
  H   H35       1.0  0.50083  0.36210  0.44248  1.0000
  H   H36       1.0  0.49915  0.13791  0.94248  1.0000
  C   C1        1.0  0.54496  0.71700  0.68821  1.0000
  C   C2        1.0  0.45505  0.78301  0.18820  1.0000
  C   C3        1.0  0.95504  0.21700  0.31180  1.0000
  C   C4        1.0  0.04496  0.28300  0.81179  1.0000
  C   C5        1.0  0.43631  0.81648  0.73180  1.0000
  C   C6        1.0  0.56370  0.68352  0.23179  1.0000
  C   C7        1.0  0.06368  0.31648  0.26820  1.0000
  C   C8        1.0  0.93632  0.18352  0.76820  1.0000
  C   C9        1.0  0.48760  0.56766  0.69260  1.0000
  C   C10       1.0  0.51240  0.93234  0.19259  1.0000
  C   C11       1.0  0.01239  0.06766  0.30740  1.0000
  C   C12       1.0  0.98760  0.43234  0.80740  1.0000
  C   C13       1.0  0.58532  0.47650  0.65220  1.0000
  C   C14       1.0  0.41469  0.02349  0.15220  1.0000
  C   C15       1.0  0.91468  0.97650  0.34780  1.0000
  C   C16       1.0  0.08532  0.52349  0.84780  1.0000
  C   C17       1.0  0.74591  0.53416  0.60614  1.0000
  C   C18       1.0  0.25409  0.96584  0.10614  1.0000
  C   C19       1.0  0.75409  0.03416  0.39387  1.0000
  C   C20       1.0  0.24591  0.46584  0.89386  1.0000
  C   C21       1.0  0.84800  0.44865  0.56221  1.0000
  C   C22       1.0  0.15199  0.05135  0.06221  1.0000
  C   C23       1.0  0.65200  0.94866  0.43779  1.0000
  C   C24       1.0  0.34801  0.55135  0.93779  1.0000
  C   C25       1.0  0.99641  0.51108  0.51783  1.0000
  C   C26       1.0  0.00358  0.98891  0.01784  1.0000
  C   C27       1.0  0.50359  0.01108  0.48217  1.0000
  C   C28       1.0  0.49641  0.48892  0.98216  1.0000
  C   C29       1.0  0.05380  0.66066  0.51591  1.0000
  C   C30       1.0  0.94620  0.83933  0.01591  1.0000
  C   C31       1.0  0.44621  0.16066  0.48409  1.0000
  C   C32       1.0  0.55379  0.33935  0.98409  1.0000
  C   C33       1.0  0.95747  0.74622  0.55818  1.0000
  C   C34       1.0  0.04253  0.75377  0.05818  1.0000
  C   C35       1.0  0.54253  0.24622  0.44182  1.0000
  C   C36       1.0  0.45747  0.25378  0.94182  1.0000
  C   C37       1.0  0.79937  0.68575  0.60384  1.0000
  C   C38       1.0  0.20063  0.81425  0.10384  1.0000
  C   C39       1.0  0.70064  0.18575  0.39616  1.0000
  C   C40       1.0  0.29939  0.31425  0.89616  1.0000
  N   N1        1.0  0.69564  0.77471  0.64484  1.0000
  N   N2        1.0  0.30437  0.72529  0.14484  1.0000
  N   N3        1.0  0.80437  0.27471  0.35516  1.0000
  N   N4        1.0  0.19565  0.22529  0.85516  1.0000
  Cl  Cl1       1.0  0.22915  0.11761  0.62851  1.0000
  Cl  Cl2       1.0  0.77086  0.38239  0.12851  1.0000
  Cl  Cl3       1.0  0.27088  0.61762  0.37149  1.0000
  Cl  Cl4       1.0  0.72913  0.88238  0.87149  1.0000
