data_image0
_chemical_formula_structural       Cu4H36C40I4N4
_chemical_formula_sum              "Cu4 H36 C40 I4 N4"
_cell_length_a       4.06876
_cell_length_b       9.7042
_cell_length_c       24.5357
_cell_angle_alpha    89.9993
_cell_angle_beta     90.0002
_cell_angle_gamma    98.4014

_space_group_name_H-M_alt    "P 1"
_space_group_IT_number       1

loop_
  _space_group_symop_operation_xyz
  'x, y, z'

loop_
  _atom_site_type_symbol
  _atom_site_label
  _atom_site_symmetry_multiplicity
  _atom_site_fract_x
  _atom_site_fract_y
  _atom_site_fract_z
  _atom_site_occupancy
  Cu  Cu1       1.0  0.84637  0.08464  0.13685  1.0000
  Cu  Cu2       1.0  0.65364  0.41537  0.63686  1.0000
  Cu  Cu3       1.0  0.15363  0.91536  0.86314  1.0000
  Cu  Cu4       1.0  0.34635  0.58464  0.36315  1.0000
  H   H1        1.0  0.34793  0.82910  0.24578  1.0000
  H   H2        1.0  0.15205  0.67090  0.74579  1.0000
  H   H3        1.0  0.65206  0.17090  0.75421  1.0000
  H   H4        1.0  0.84789  0.32909  0.25422  1.0000
  H   H5        1.0  0.74394  0.91359  0.26479  1.0000
  H   H6        1.0  0.75603  0.58642  0.76480  1.0000
  H   H7        1.0  0.25604  0.08642  0.73520  1.0000
  H   H8        1.0  0.24390  0.41358  0.23521  1.0000
  H   H9        1.0  0.51438  0.99108  0.21390  1.0000
  H   H10       1.0  0.98559  0.50891  0.71391  1.0000
  H   H11       1.0  0.48560  0.00892  0.78610  1.0000
  H   H12       1.0  0.01435  0.49108  0.28610  1.0000
  H   H13       1.0  0.66571  0.62232  0.23226  1.0000
  H   H14       1.0  0.83426  0.87767  0.73226  1.0000
  H   H15       1.0  0.33427  0.37768  0.76774  1.0000
  H   H16       1.0  0.16572  0.12233  0.26775  1.0000
  H   H17       1.0  0.93720  0.49174  0.16074  1.0000
  H   H18       1.0  0.56281  0.00827  0.66074  1.0000
  H   H19       1.0  0.06280  0.50826  0.83926  1.0000
  H   H20       1.0  0.43721  0.99174  0.33926  1.0000
  H   H21       1.0  0.20362  0.49338  0.06932  1.0000
  H   H22       1.0  0.29639  0.00663  0.56932  1.0000
  H   H23       1.0  0.79636  0.50661  0.93068  1.0000
  H   H24       1.0  0.70366  0.99338  0.43068  1.0000
  H   H25       1.0  0.40441  0.62433  0.98493  1.0000
  H   H26       1.0  0.09564  0.87568  0.48493  1.0000
  H   H27       1.0  0.59560  0.37566  0.01507  1.0000
  H   H28       1.0  0.90442  0.12433  0.51507  1.0000
  H   H29       1.0  0.34923  0.87373  0.97605  1.0000
  H   H30       1.0  0.15082  0.62628  0.47604  1.0000
  H   H31       1.0  0.65079  0.12625  0.02395  1.0000
  H   H32       1.0  0.84923  0.37373  0.52396  1.0000
  H   H33       1.0  0.08838  0.99631  0.05018  1.0000
  H   H34       1.0  0.41168  0.50370  0.55018  1.0000
  H   H35       1.0  0.91164  0.00368  0.94982  1.0000
  H   H36       1.0  0.58836  0.49631  0.44982  1.0000
  C   C1        1.0  0.73118  0.81447  0.18679  1.0000
  C   C2        1.0  0.76882  0.68553  0.68679  1.0000
  C   C3        1.0  0.26882  0.18553  0.81321  1.0000
  C   C4        1.0  0.23116  0.31447  0.31321  1.0000
  C   C5        1.0  0.57432  0.89186  0.22988  1.0000
  C   C6        1.0  0.92565  0.60815  0.72988  1.0000
  C   C7        1.0  0.42566  0.10815  0.77012  1.0000
  C   C8        1.0  0.07429  0.39185  0.27012  1.0000
  C   C9        1.0  0.76207  0.67243  0.19462  1.0000
  C   C10       1.0  0.73791  0.82758  0.69463  1.0000
  C   C11       1.0  0.23791  0.32757  0.80537  1.0000
  C   C12       1.0  0.26208  0.17243  0.30538  1.0000
  C   C13       1.0  0.91197  0.60127  0.15557  1.0000
  C   C14       1.0  0.58803  0.89874  0.65558  1.0000
  C   C15       1.0  0.08803  0.39873  0.84442  1.0000
  C   C16       1.0  0.41199  0.10127  0.34443  1.0000
  C   C17       1.0  0.03052  0.67069  0.10717  1.0000
  C   C18       1.0  0.46946  0.82932  0.60717  1.0000
  C   C19       1.0  0.96947  0.32931  0.89283  1.0000
  C   C20       1.0  0.53056  0.17069  0.39283  1.0000
  C   C21       1.0  0.17961  0.60332  0.06444  1.0000
  C   C22       1.0  0.32042  0.89668  0.56444  1.0000
  C   C23       1.0  0.82039  0.39667  0.93556  1.0000
  C   C24       1.0  0.67962  0.10333  0.43556  1.0000
  C   C25       1.0  0.29014  0.67557  0.01799  1.0000
  C   C26       1.0  0.20989  0.82445  0.51799  1.0000
  C   C27       1.0  0.70986  0.32442  0.98201  1.0000
  C   C28       1.0  0.79016  0.17556  0.48201  1.0000
  C   C29       1.0  0.25797  0.81791  0.01292  1.0000
  C   C30       1.0  0.24209  0.68209  0.51292  1.0000
  C   C31       1.0  0.74205  0.18208  0.98708  1.0000
  C   C32       1.0  0.75795  0.31791  0.48708  1.0000
  C   C33       1.0  0.11342  0.88622  0.05383  1.0000
  C   C34       1.0  0.38661  0.61379  0.55383  1.0000
  C   C35       1.0  0.88659  0.11377  0.94617  1.0000
  C   C36       1.0  0.61341  0.38621  0.44617  1.0000
  C   C37       1.0  0.99505  0.81434  0.10160  1.0000
  C   C38       1.0  0.50498  0.68567  0.60161  1.0000
  C   C39       1.0  0.00496  0.18566  0.89839  1.0000
  C   C40       1.0  0.49504  0.31434  0.39840  1.0000
  I   I1        1.0  0.40822  0.24224  0.13595  1.0000
  I   I2        1.0  0.09178  0.25777  0.63595  1.0000
  I   I3        1.0  0.59177  0.75776  0.86405  1.0000
  I   I4        1.0  0.90822  0.74224  0.36405  1.0000
  N   N1        1.0  0.84726  0.88387  0.14185  1.0000
  N   N2        1.0  0.65273  0.61614  0.64185  1.0000
  N   N3        1.0  0.15272  0.11613  0.85815  1.0000
  N   N4        1.0  0.34726  0.38386  0.35815  1.0000
