data_image0
_chemical_formula_structural       Cu4H36C28Br4N4
_chemical_formula_sum              "Cu4 H36 C28 Br4 N4"
_cell_length_a       3.93395
_cell_length_b       14.4893
_cell_length_c       14.0872
_cell_angle_alpha    89.9993
_cell_angle_beta     89.999
_cell_angle_gamma    89.9981

_space_group_name_H-M_alt    "P 1"
_space_group_IT_number       1

loop_
  _space_group_symop_operation_xyz
  'x, y, z'

loop_
  _atom_site_type_symbol
  _atom_site_label
  _atom_site_symmetry_multiplicity
  _atom_site_fract_x
  _atom_site_fract_y
  _atom_site_fract_z
  _atom_site_occupancy
  Cu  Cu1       1.0  0.38650  0.92691  0.83845  1.0000
  Cu  Cu2       1.0  0.38652  0.42689  0.66153  1.0000
  Cu  Cu3       1.0  0.61345  0.92691  0.33847  1.0000
  Cu  Cu4       1.0  0.61350  0.42690  0.16154  1.0000
  H   H1        1.0  0.23558  0.72791  0.78987  1.0000
  H   H2        1.0  0.23558  0.22792  0.71012  1.0000
  H   H3        1.0  0.76443  0.72791  0.28986  1.0000
  H   H4        1.0  0.76439  0.22793  0.21015  1.0000
  H   H5        1.0  0.60066  0.65835  0.76912  1.0000
  H   H6        1.0  0.60066  0.15836  0.73090  1.0000
  H   H7        1.0  0.39935  0.65835  0.26911  1.0000
  H   H8        1.0  0.39932  0.15836  0.23091  1.0000
  H   H9        1.0  0.60707  0.77900  0.74249  1.0000
  H   H10       1.0  0.60706  0.27902  0.75750  1.0000
  H   H11       1.0  0.39292  0.77901  0.24249  1.0000
  H   H12       1.0  0.39287  0.27902  0.25753  1.0000
  H   H13       1.0  0.85556  0.61564  0.91832  1.0000
  H   H14       1.0  0.85561  0.11562  0.58170  1.0000
  H   H15       1.0  0.14448  0.61563  0.41830  1.0000
  H   H16       1.0  0.14443  0.11564  0.08172  1.0000
  H   H17       1.0  0.04784  0.65930  0.08281  1.0000
  H   H18       1.0  0.04789  0.15927  0.41720  1.0000
  H   H19       1.0  0.95217  0.65927  0.58279  1.0000
  H   H20       1.0  0.95221  0.15927  0.91722  1.0000
  H   H21       1.0  0.92695  0.82078  0.14034  1.0000
  H   H22       1.0  0.92698  0.32074  0.35965  1.0000
  H   H23       1.0  0.07302  0.82074  0.64035  1.0000
  H   H24       1.0  0.07309  0.32075  0.85966  1.0000
  H   H25       1.0  0.38150  0.95379  0.09659  1.0000
  H   H26       1.0  0.38151  0.45374  0.40337  1.0000
  H   H27       1.0  0.61852  0.95374  0.59659  1.0000
  H   H28       1.0  0.61854  0.45375  0.90339  1.0000
  H   H29       1.0  0.80583  0.98752  0.08023  1.0000
  H   H30       1.0  0.80582  0.48749  0.41972  1.0000
  H   H31       1.0  0.19419  0.98749  0.58026  1.0000
  H   H32       1.0  0.19420  0.48750  0.91973  1.0000
  H   H33       1.0  0.51076  0.99864  0.98398  1.0000
  H   H34       1.0  0.51071  0.49862  0.51597  1.0000
  H   H35       1.0  0.48923  0.99861  0.48400  1.0000
  H   H36       1.0  0.48927  0.49862  0.01599  1.0000
  C   C1        1.0  0.63400  0.74809  0.89109  1.0000
  C   C2        1.0  0.63401  0.24808  0.60891  1.0000
  C   C3        1.0  0.36600  0.74809  0.39109  1.0000
  C   C4        1.0  0.36595  0.24809  0.10893  1.0000
  C   C5        1.0  0.51481  0.72651  0.79283  1.0000
  C   C6        1.0  0.51482  0.22652  0.70717  1.0000
  C   C7        1.0  0.48520  0.72651  0.29282  1.0000
  C   C8        1.0  0.48516  0.22653  0.20719  1.0000
  C   C9        1.0  0.80456  0.68393  0.94731  1.0000
  C   C10       1.0  0.80460  0.18391  0.55271  1.0000
  C   C11       1.0  0.19543  0.68391  0.44729  1.0000
  C   C12       1.0  0.19540  0.18392  0.05273  1.0000
  C   C13       1.0  0.91252  0.70866  0.03815  1.0000
  C   C14       1.0  0.91255  0.20864  0.46185  1.0000
  C   C15       1.0  0.08748  0.70864  0.53815  1.0000
  C   C16       1.0  0.08747  0.20864  0.96187  1.0000
  C   C17       1.0  0.84547  0.79760  0.07035  1.0000
  C   C18       1.0  0.84552  0.29757  0.42965  1.0000
  C   C19       1.0  0.15451  0.79757  0.57035  1.0000
  C   C20       1.0  0.15454  0.29758  0.92966  1.0000
  C   C21       1.0  0.67228  0.85965  0.01179  1.0000
  C   C22       1.0  0.67230  0.35962  0.48820  1.0000
  C   C23       1.0  0.32770  0.85963  0.51179  1.0000
  C   C24       1.0  0.32769  0.35963  0.98821  1.0000
  C   C25       1.0  0.58915  0.95525  0.04421  1.0000
  C   C26       1.0  0.58916  0.45521  0.45575  1.0000
  C   C27       1.0  0.41083  0.95522  0.54422  1.0000
  C   C28       1.0  0.41086  0.45522  0.95577  1.0000
  Br  Br1       1.0  0.92289  0.99929  0.77236  1.0000
  Br  Br2       1.0  0.92291  0.49928  0.72763  1.0000
  Br  Br3       1.0  0.07702  0.99933  0.27240  1.0000
  Br  Br4       1.0  0.07708  0.49930  0.22762  1.0000
  N   N1        1.0  0.56934  0.83467  0.92358  1.0000
  N   N2        1.0  0.56938  0.33466  0.57641  1.0000
  N   N3        1.0  0.43062  0.83467  0.42358  1.0000
  N   N4        1.0  0.43064  0.33467  0.07642  1.0000
