data_image0
_chemical_formula_structural       Cu4H36C40Br4N4
_chemical_formula_sum              "Cu4 H36 C40 Br4 N4"
_cell_length_a       3.84198
_cell_length_b       9.59163
_cell_length_c       24.7034
_cell_angle_alpha    89.9997
_cell_angle_beta     89.9998
_cell_angle_gamma    90.0001

_space_group_name_H-M_alt    "P 1"
_space_group_IT_number       1

loop_
  _space_group_symop_operation_xyz
  'x, y, z'

loop_
  _atom_site_type_symbol
  _atom_site_label
  _atom_site_symmetry_multiplicity
  _atom_site_fract_x
  _atom_site_fract_y
  _atom_site_fract_z
  _atom_site_occupancy
  Cu  Cu1       1.0  0.92067  0.99499  0.86117  1.0000
  Cu  Cu2       1.0  0.42065  0.49499  0.63882  1.0000
  Cu  Cu3       1.0  0.57932  0.99499  0.36117  1.0000
  Cu  Cu4       1.0  0.07934  0.49499  0.13882  1.0000
  H   H1        1.0  0.67096  0.06027  0.77579  1.0000
  H   H2        1.0  0.17095  0.56027  0.72421  1.0000
  H   H3        1.0  0.82904  0.06027  0.27579  1.0000
  H   H4        1.0  0.32906  0.56027  0.22421  1.0000
  H   H5        1.0  0.36711  0.19331  0.75861  1.0000
  H   H6        1.0  0.86709  0.69331  0.74138  1.0000
  H   H7        1.0  0.13290  0.19331  0.25861  1.0000
  H   H8        1.0  0.63291  0.69331  0.24138  1.0000
  H   H9        1.0  0.78092  0.19531  0.72822  1.0000
  H   H10       1.0  0.28090  0.69530  0.77178  1.0000
  H   H11       1.0  0.71908  0.19531  0.22822  1.0000
  H   H12       1.0  0.21910  0.69530  0.27178  1.0000
  H   H13       1.0  0.64337  0.45201  0.77102  1.0000
  H   H14       1.0  0.14337  0.95201  0.72899  1.0000
  H   H15       1.0  0.85662  0.45202  0.27102  1.0000
  H   H16       1.0  0.35663  0.95201  0.22898  1.0000
  H   H17       1.0  0.85492  0.60360  0.84709  1.0000
  H   H18       1.0  0.35492  0.10360  0.65291  1.0000
  H   H19       1.0  0.64508  0.60360  0.34709  1.0000
  H   H20       1.0  0.14509  0.10360  0.15291  1.0000
  H   H21       1.0  0.12515  0.61771  0.93893  1.0000
  H   H22       1.0  0.62516  0.11771  0.56107  1.0000
  H   H23       1.0  0.37484  0.61771  0.43893  1.0000
  H   H24       1.0  0.87484  0.11771  0.06107  1.0000
  H   H25       1.0  0.36486  0.49618  0.02025  1.0000
  H   H26       1.0  0.86486  0.99619  0.47975  1.0000
  H   H27       1.0  0.13514  0.49618  0.52025  1.0000
  H   H28       1.0  0.63514  0.99619  0.97975  1.0000
  H   H29       1.0  0.39641  0.23894  0.02263  1.0000
  H   H30       1.0  0.89641  0.73895  0.47737  1.0000
  H   H31       1.0  0.10360  0.23894  0.52263  1.0000
  H   H32       1.0  0.60359  0.73895  0.97737  1.0000
  H   H33       1.0  0.18250  0.09823  0.94417  1.0000
  H   H34       1.0  0.68249  0.59824  0.55583  1.0000
  H   H35       1.0  0.31751  0.09824  0.44417  1.0000
  H   H36       1.0  0.81750  0.59824  0.05583  1.0000
  C   C1        1.0  0.77493  0.26012  0.81157  1.0000
  C   C2        1.0  0.27492  0.76012  0.68843  1.0000
  C   C3        1.0  0.72507  0.26013  0.31157  1.0000
  C   C4        1.0  0.22507  0.76012  0.18843  1.0000
  C   C5        1.0  0.64345  0.17158  0.76622  1.0000
  C   C6        1.0  0.14344  0.67158  0.73378  1.0000
  C   C7        1.0  0.85655  0.17158  0.26622  1.0000
  C   C8        1.0  0.35656  0.67158  0.23378  1.0000
  C   C9        1.0  0.75540  0.40710  0.80755  1.0000
  C   C10       1.0  0.25540  0.90710  0.69245  1.0000
  C   C11       1.0  0.74461  0.40711  0.30755  1.0000
  C   C12       1.0  0.24460  0.90710  0.19245  1.0000
  C   C13       1.0  0.87187  0.49013  0.84914  1.0000
  C   C14       1.0  0.37187  0.99013  0.65087  1.0000
  C   C15       1.0  0.62813  0.49014  0.34914  1.0000
  C   C16       1.0  0.12813  0.99013  0.15087  1.0000
  C   C17       1.0  0.01462  0.42672  0.89586  1.0000
  C   C18       1.0  0.51462  0.92672  0.60414  1.0000
  C   C19       1.0  0.48538  0.42672  0.39586  1.0000
  C   C20       1.0  0.98538  0.92672  0.10414  1.0000
  C   C21       1.0  0.13803  0.50424  0.94075  1.0000
  C   C22       1.0  0.63803  0.00424  0.55925  1.0000
  C   C23       1.0  0.36197  0.50424  0.44075  1.0000
  C   C24       1.0  0.86197  0.00424  0.05925  1.0000
  C   C25       1.0  0.27137  0.43705  0.98553  1.0000
  C   C26       1.0  0.77137  0.93706  0.51447  1.0000
  C   C27       1.0  0.22863  0.43706  0.48554  1.0000
  C   C28       1.0  0.72863  0.93706  0.01447  1.0000
  C   C29       1.0  0.28898  0.29007  0.98695  1.0000
  C   C30       1.0  0.78899  0.79008  0.51305  1.0000
  C   C31       1.0  0.21102  0.29008  0.48695  1.0000
  C   C32       1.0  0.71101  0.79008  0.01305  1.0000
  C   C33       1.0  0.17162  0.21205  0.94371  1.0000
  C   C34       1.0  0.67161  0.71206  0.55629  1.0000
  C   C35       1.0  0.32838  0.21206  0.44371  1.0000
  C   C36       1.0  0.82837  0.71206  0.05629  1.0000
  C   C37       1.0  0.03076  0.27800  0.89756  1.0000
  C   C38       1.0  0.53076  0.77800  0.60244  1.0000
  C   C39       1.0  0.46924  0.27801  0.39756  1.0000
  C   C40       1.0  0.96925  0.77801  0.10244  1.0000
  Br  Br1       1.0  0.41881  0.84691  0.86569  1.0000
  Br  Br2       1.0  0.91880  0.34691  0.63431  1.0000
  Br  Br3       1.0  0.08118  0.84692  0.36569  1.0000
  Br  Br4       1.0  0.58118  0.34691  0.13431  1.0000
  N   N1        1.0  0.90930  0.19713  0.85528  1.0000
  N   N2        1.0  0.40930  0.69713  0.64471  1.0000
  N   N3        1.0  0.59070  0.19713  0.35529  1.0000
  N   N4        1.0  0.09070  0.69713  0.14471  1.0000
