data_image0
_chemical_formula_structural       Cu2H18C14N2Cl2
_chemical_formula_sum              "Cu2 H18 C14 N2 Cl2"
_cell_length_a       4.12459
_cell_length_b       9.97177
_cell_length_c       9.34264
_cell_angle_alpha    90
_cell_angle_beta     89.9985
_cell_angle_gamma    89.9977

_space_group_name_H-M_alt    "P 1"
_space_group_IT_number       1

loop_
  _space_group_symop_operation_xyz
  'x, y, z'

loop_
  _atom_site_type_symbol
  _atom_site_label
  _atom_site_symmetry_multiplicity
  _atom_site_fract_x
  _atom_site_fract_y
  _atom_site_fract_z
  _atom_site_occupancy
  Cu  Cu1       1.0  0.29259  0.49999  0.11078  1.0000
  Cu  Cu2       1.0  0.70742  0.00000  0.61078  1.0000
  H   H1        1.0  0.28181  0.75546  0.26856  1.0000
  H   H2        1.0  0.28186  0.24450  0.26858  1.0000
  H   H3        1.0  0.71817  0.25549  0.76857  1.0000
  H   H4        1.0  0.71817  0.74455  0.76856  1.0000
  H   H5        1.0  0.61020  0.73882  0.14757  1.0000
  H   H6        1.0  0.61021  0.26113  0.14759  1.0000
  H   H7        1.0  0.38981  0.23887  0.64758  1.0000
  H   H8        1.0  0.38980  0.76116  0.64758  1.0000
  H   H9        1.0  0.65815  0.83245  0.31010  1.0000
  H   H10       1.0  0.65816  0.16752  0.31014  1.0000
  H   H11       1.0  0.34186  0.33248  0.81012  1.0000
  H   H12       1.0  0.34187  0.66755  0.81013  1.0000
  H   H13       1.0  0.91462  0.71707  0.50274  1.0000
  H   H14       1.0  0.91465  0.28290  0.50274  1.0000
  H   H15       1.0  0.08535  0.21711  0.00274  1.0000
  H   H16       1.0  0.08536  0.78293  0.00275  1.0000
  H   H17       1.0  0.07902  0.49999  0.62102  1.0000
  H   H18       1.0  0.92098  0.00002  0.12102  1.0000
  C   C1        1.0  0.65152  0.61811  0.33579  1.0000
  C   C2        1.0  0.65152  0.38186  0.33580  1.0000
  C   C3        1.0  0.34848  0.11813  0.83579  1.0000
  C   C4        1.0  0.34847  0.88190  0.83579  1.0000
  C   C5        1.0  0.54646  0.74356  0.26182  1.0000
  C   C6        1.0  0.54646  0.25638  0.26184  1.0000
  C   C7        1.0  0.45355  0.24362  0.76184  1.0000
  C   C8        1.0  0.45354  0.75643  0.76184  1.0000
  C   C9        1.0  0.84085  0.62024  0.45954  1.0000
  C   C10       1.0  0.84084  0.37974  0.45956  1.0000
  C   C11       1.0  0.15914  0.12026  0.95955  1.0000
  C   C12       1.0  0.15917  0.87977  0.95955  1.0000
  C   C13       1.0  0.93409  0.49998  0.52333  1.0000
  C   C14       1.0  0.06589  0.00003  0.02334  1.0000
  N   N1        1.0  0.55591  0.49998  0.27671  1.0000
  N   N2        1.0  0.44406  0.00002  0.77671  1.0000
  Cl  Cl1       1.0  0.93200  0.50001  0.95078  1.0000
  Cl  Cl2       1.0  0.06802  0.99998  0.45077  1.0000
