data_image0
_chemical_formula_structural       Cu4H44C32Br4N4
_chemical_formula_sum              "Cu4 H44 C32 Br4 N4"
_cell_length_a       3.94828
_cell_length_b       14.2414
_cell_length_c       15.6987
_cell_angle_alpha    90.0005
_cell_angle_beta     90.001
_cell_angle_gamma    90.0004

_space_group_name_H-M_alt    "P 1"
_space_group_IT_number       1

loop_
  _space_group_symop_operation_xyz
  'x, y, z'

loop_
  _atom_site_type_symbol
  _atom_site_label
  _atom_site_symmetry_multiplicity
  _atom_site_fract_x
  _atom_site_fract_y
  _atom_site_fract_z
  _atom_site_occupancy
  Cu  Cu1       1.0  0.76446  0.55576  0.01892  1.0000
  Cu  Cu2       1.0  0.76430  0.05575  0.48107  1.0000
  Cu  Cu3       1.0  0.23564  0.55576  0.51892  1.0000
  Cu  Cu4       1.0  0.23557  0.05576  0.98108  1.0000
  H   H1        1.0  0.83601  0.46620  0.87580  1.0000
  H   H2        1.0  0.83593  0.96619  0.62421  1.0000
  H   H3        1.0  0.16405  0.46619  0.37580  1.0000
  H   H4        1.0  0.16399  0.96619  0.12420  1.0000
  H   H5        1.0  0.61595  0.45784  0.77605  1.0000
  H   H6        1.0  0.61588  0.95783  0.72396  1.0000
  H   H7        1.0  0.38412  0.45783  0.27605  1.0000
  H   H8        1.0  0.38404  0.95784  0.22395  1.0000
  H   H9        1.0  0.40559  0.43133  0.87373  1.0000
  H   H10       1.0  0.40550  0.93132  0.62628  1.0000
  H   H11       1.0  0.59448  0.43133  0.37373  1.0000
  H   H12       1.0  0.59444  0.93133  0.12627  1.0000
  H   H13       1.0  0.24097  0.58331  0.72926  1.0000
  H   H14       1.0  0.24095  0.08332  0.77075  1.0000
  H   H15       1.0  0.75907  0.58330  0.22926  1.0000
  H   H16       1.0  0.75899  0.08331  0.27075  1.0000
  H   H17       1.0  0.88385  0.71353  0.68489  1.0000
  H   H18       1.0  0.88385  0.21354  0.81512  1.0000
  H   H19       1.0  0.11616  0.71352  0.18487  1.0000
  H   H20       1.0  0.11614  0.21353  0.31513  1.0000
  H   H21       1.0  0.17332  0.80891  0.68949  1.0000
  H   H22       1.0  0.17333  0.30891  0.81051  1.0000
  H   H23       1.0  0.82673  0.80890  0.18947  1.0000
  H   H24       1.0  0.82667  0.30891  0.31052  1.0000
  H   H25       1.0  0.80978  0.81026  0.75519  1.0000
  H   H26       1.0  0.80979  0.31027  0.74481  1.0000
  H   H27       1.0  0.19026  0.81025  0.25517  1.0000
  H   H28       1.0  0.19020  0.31026  0.24482  1.0000
  H   H29       1.0  0.21301  0.83430  0.88257  1.0000
  H   H30       1.0  0.21303  0.33431  0.61744  1.0000
  H   H31       1.0  0.78700  0.83430  0.38255  1.0000
  H   H32       1.0  0.78697  0.33431  0.11744  1.0000
  H   H33       1.0  0.44724  0.72560  0.07066  1.0000
  H   H34       1.0  0.44722  0.22559  0.42935  1.0000
  H   H35       1.0  0.55281  0.72562  0.57064  1.0000
  H   H36       1.0  0.55275  0.22560  0.92935  1.0000
  H   H37       1.0  0.84319  0.75671  0.02593  1.0000
  H   H38       1.0  0.84318  0.25669  0.47407  1.0000
  H   H39       1.0  0.15685  0.75671  0.52592  1.0000
  H   H40       1.0  0.15680  0.25670  0.97407  1.0000
  H   H41       1.0  0.49386  0.83540  0.01587  1.0000
  H   H42       1.0  0.49385  0.33540  0.48413  1.0000
  H   H43       1.0  0.50618  0.83541  0.51585  1.0000
  H   H44       1.0  0.50611  0.33540  0.98413  1.0000
  C   C1        1.0  0.48574  0.57805  0.85142  1.0000
  C   C2        1.0  0.48570  0.07803  0.64858  1.0000
  C   C3        1.0  0.51430  0.57803  0.35142  1.0000
  C   C4        1.0  0.51423  0.07804  0.14858  1.0000
  C   C5        1.0  0.59272  0.47777  0.84331  1.0000
  C   C6        1.0  0.59265  0.97776  0.65670  1.0000
  C   C7        1.0  0.40734  0.47776  0.34331  1.0000
  C   C8        1.0  0.40728  0.97777  0.15670  1.0000
  C   C9        1.0  0.30302  0.62233  0.78697  1.0000
  C   C10       1.0  0.30299  0.12234  0.71304  1.0000
  C   C11       1.0  0.69701  0.62233  0.28696  1.0000
  C   C12       1.0  0.69696  0.12233  0.21303  1.0000
  C   C13       1.0  0.19862  0.71542  0.79639  1.0000
  C   C14       1.0  0.19863  0.21541  0.70361  1.0000
  C   C15       1.0  0.80140  0.71541  0.29638  1.0000
  C   C16       1.0  0.80134  0.21542  0.20362  1.0000
  C   C17       1.0  0.00407  0.76440  0.72773  1.0000
  C   C18       1.0  0.00406  0.26440  0.77228  1.0000
  C   C19       1.0  0.99596  0.76438  0.22771  1.0000
  C   C20       1.0  0.99592  0.26439  0.27228  1.0000
  C   C21       1.0  0.28765  0.76148  0.87187  1.0000
  C   C22       1.0  0.28763  0.26148  0.62813  1.0000
  C   C23       1.0  0.71238  0.76148  0.37185  1.0000
  C   C24       1.0  0.71234  0.26148  0.12813  1.0000
  C   C25       1.0  0.47068  0.71456  0.93455  1.0000
  C   C26       1.0  0.47067  0.21454  0.56545  1.0000
  C   C27       1.0  0.52935  0.71455  0.43454  1.0000
  C   C28       1.0  0.52932  0.21455  0.06546  1.0000
  C   C29       1.0  0.56782  0.76123  0.01629  1.0000
  C   C30       1.0  0.56781  0.26122  0.48372  1.0000
  C   C31       1.0  0.43222  0.76123  0.51627  1.0000
  C   C32       1.0  0.43216  0.26122  0.98371  1.0000
  Br  Br1       1.0  0.21836  0.50136  0.09628  1.0000
  Br  Br2       1.0  0.21820  0.00138  0.40369  1.0000
  Br  Br3       1.0  0.78173  0.50138  0.59629  1.0000
  Br  Br4       1.0  0.78167  0.00137  0.90371  1.0000
  N   N1        1.0  0.56696  0.62350  0.92457  1.0000
  N   N2        1.0  0.56687  0.12349  0.57543  1.0000
  N   N3        1.0  0.43312  0.62349  0.42457  1.0000
  N   N4        1.0  0.43306  0.12349  0.07543  1.0000
