data_image0
_chemical_formula_structural       Cr4Cu2H32C24N16O14
_chemical_formula_sum              "Cr4 Cu2 H32 C24 N16 O14"
_cell_length_a       9.52418
_cell_length_b       9.84484
_cell_length_c       13.2173
_cell_angle_alpha    69.263
_cell_angle_beta     80.2746
_cell_angle_gamma    62.3917

_space_group_name_H-M_alt    "P 1"
_space_group_IT_number       1

loop_
  _space_group_symop_operation_xyz
  'x, y, z'

loop_
  _atom_site_type_symbol
  _atom_site_label
  _atom_site_symmetry_multiplicity
  _atom_site_fract_x
  _atom_site_fract_y
  _atom_site_fract_z
  _atom_site_occupancy
  Cr  Cr1       1.0  0.24096  0.65561  0.61286  1.0000
  Cr  Cr2       1.0  0.75904  0.34439  0.38714  1.0000
  Cr  Cr3       1.0  0.29473  0.48664  0.87222  1.0000
  Cr  Cr4       1.0  0.70526  0.51336  0.12778  1.0000
  Cu  Cu1       1.0  0.50000  0.00000  0.00000  1.0000
  Cu  Cu2       1.0  1.00000  0.50000  0.50000  1.0000
  H   H1        1.0  0.07203  0.12171  0.28771  1.0000
  H   H2        1.0  0.92798  0.87829  0.71229  1.0000
  H   H3        1.0  0.82794  0.21258  0.10666  1.0000
  H   H4        1.0  0.17206  0.78742  0.89333  1.0000
  H   H5        1.0  0.67318  0.10643  0.41470  1.0000
  H   H6        1.0  0.32683  0.89357  0.58529  1.0000
  H   H7        1.0  0.39459  0.47980  0.18830  1.0000
  H   H8        1.0  0.60540  0.52020  0.81170  1.0000
  H   H9        1.0  0.17883  0.23411  0.09958  1.0000
  H   H10       1.0  0.82117  0.76588  0.90043  1.0000
  H   H11       1.0  0.25546  0.82625  0.37879  1.0000
  H   H12       1.0  0.74454  0.17375  0.62122  1.0000
  H   H13       1.0  0.50519  0.74693  0.23446  1.0000
  H   H14       1.0  0.49481  0.25307  0.76554  1.0000
  H   H15       1.0  0.56280  0.27772  0.03633  1.0000
  H   H16       1.0  0.43721  0.72229  0.96367  1.0000
  H   H17       1.0  0.01361  0.90897  0.15839  1.0000
  H   H18       1.0  0.98639  0.09103  0.84161  1.0000
  H   H19       1.0  0.84429  0.77556  0.10620  1.0000
  H   H20       1.0  0.15571  0.22444  0.89380  1.0000
  H   H21       1.0  0.93689  0.85900  0.48500  1.0000
  H   H22       1.0  0.06311  0.14100  0.51500  1.0000
  H   H23       1.0  0.49409  0.03287  0.34263  1.0000
  H   H24       1.0  0.50592  0.96713  0.65737  1.0000
  H   H25       1.0  0.66199  0.70158  0.37774  1.0000
  H   H26       1.0  0.33801  0.29842  0.62226  1.0000
  H   H27       1.0  0.34279  0.45883  0.38908  1.0000
  H   H28       1.0  0.65720  0.54117  0.61092  1.0000
  H   H29       1.0  0.15031  0.52972  0.09751  1.0000
  H   H30       1.0  0.84969  0.47028  0.90249  1.0000
  H   H31       1.0  0.92078  0.54691  0.26042  1.0000
  H   H32       1.0  0.07921  0.45309  0.73957  1.0000
  C   C1        1.0  0.23578  0.11279  0.15501  1.0000
  C   C2        1.0  0.76422  0.88720  0.84499  1.0000
  C   C3        1.0  0.27767  0.89763  0.29986  1.0000
  C   C4        1.0  0.72233  0.10236  0.70015  1.0000
  C   C5        1.0  0.40025  0.85964  0.22749  1.0000
  C   C6        1.0  0.59975  0.14035  0.77251  1.0000
  C   C7        1.0  0.66004  0.15820  0.06282  1.0000
  C   C8        1.0  0.33996  0.84181  0.93718  1.0000
  C   C9        1.0  0.89583  0.96368  0.12572  1.0000
  C   C10       1.0  0.10417  0.03633  0.87427  1.0000
  C   C11       1.0  0.81123  0.89887  0.10032  1.0000
  C   C12       1.0  0.18878  0.10114  0.89968  1.0000
  C   C13       1.0  0.84154  0.85917  0.45020  1.0000
  C   C14       1.0  0.15846  0.14083  0.54980  1.0000
  C   C15       1.0  0.61024  0.94699  0.37663  1.0000
  C   C16       1.0  0.38976  0.05301  0.62337  1.0000
  C   C17       1.0  0.69455  0.78357  0.39376  1.0000
  C   C18       1.0  0.30545  0.21642  0.60624  1.0000
  C   C19       1.0  0.25741  0.48122  0.33326  1.0000
  C   C20       1.0  0.74259  0.51877  0.66674  1.0000
  C   C21       1.0  0.15495  0.51646  0.18206  1.0000
  C   C22       1.0  0.84505  0.48353  0.81794  1.0000
  C   C23       1.0  0.04247  0.52537  0.26288  1.0000
  C   C24       1.0  0.95753  0.47463  0.73711  1.0000
  N   N1        1.0  0.37255  0.99475  0.13786  1.0000
  N   N2        1.0  0.62745  0.00525  0.86214  1.0000
  N   N3        1.0  0.17596  0.05731  0.25261  1.0000
  N   N4        1.0  0.82404  0.94268  0.74739  1.0000
  N   N5        1.0  0.66483  0.02131  0.06154  1.0000
  N   N6        1.0  0.33517  0.97870  0.93846  1.0000
  N   N7        1.0  0.79856  0.12679  0.10144  1.0000
  N   N8        1.0  0.20144  0.87321  0.89856  1.0000
  N   N9        1.0  0.83825  0.73074  0.43960  1.0000
  N   N10       1.0  0.16175  0.26926  0.56040  1.0000
  N   N11       1.0  0.70477  0.99179  0.41268  1.0000
  N   N12       1.0  0.29523  0.00821  0.58732  1.0000
  N   N13       1.0  0.10783  0.50337  0.35625  1.0000
  N   N14       1.0  0.89217  0.49663  0.64375  1.0000
  N   N15       1.0  0.28890  0.48873  0.22832  1.0000
  N   N16       1.0  0.71110  0.51127  0.77168  1.0000
  O   O1        1.0  0.09013  0.81566  0.63040  1.0000
  O   O2        1.0  0.90987  0.18434  0.36960  1.0000
  O   O3        1.0  0.19762  0.59968  0.52559  1.0000
  O   O4        1.0  0.80238  0.40032  0.47441  1.0000
  O   O5        1.0  0.39150  0.69783  0.57189  1.0000
  O   O6        1.0  0.60851  0.30217  0.42811  1.0000
  O   O7        1.0  0.28845  0.49284  0.73684  1.0000
  O   O8        1.0  0.71155  0.50716  0.26316  1.0000
  O   O9        1.0  0.32902  0.30508  0.94987  1.0000
  O   O10       1.0  0.67097  0.69492  0.05014  1.0000
  O   O11       1.0  0.12714  0.61953  0.90353  1.0000
  O   O12       1.0  0.87286  0.38048  0.09647  1.0000
  O   O13       1.0  0.43685  0.52866  0.88295  1.0000
  O   O14       1.0  0.56315  0.47134  0.11705  1.0000
