data_image0
_chemical_formula_structural       Hg4H32C36N8Cl8
_chemical_formula_sum              "Hg4 H32 C36 N8 Cl8"
_cell_length_a       3.89918
_cell_length_b       10.6048
_cell_length_c       25.9364
_cell_angle_alpha    90.0004
_cell_angle_beta     90
_cell_angle_gamma    98.4868

_space_group_name_H-M_alt    "P 1"
_space_group_IT_number       1

loop_
  _space_group_symop_operation_xyz
  'x, y, z'

loop_
  _atom_site_type_symbol
  _atom_site_label
  _atom_site_symmetry_multiplicity
  _atom_site_fract_x
  _atom_site_fract_y
  _atom_site_fract_z
  _atom_site_occupancy
  Hg  Hg1       1.0  0.36996  0.57883  0.42703  1.0000
  Hg  Hg2       1.0  0.13004  0.92117  0.92703  1.0000
  Hg  Hg3       1.0  0.63008  0.42117  0.57297  1.0000
  Hg  Hg4       1.0  0.86995  0.07883  0.07297  1.0000
  H   H1        1.0  0.96008  0.71059  0.23423  1.0000
  H   H2        1.0  0.53989  0.78940  0.73424  1.0000
  H   H3        1.0  0.03990  0.28940  0.76576  1.0000
  H   H4        1.0  0.46008  0.21059  0.26577  1.0000
  H   H5        1.0  0.18648  0.87042  0.23019  1.0000
  H   H6        1.0  0.31347  0.62956  0.73019  1.0000
  H   H7        1.0  0.81350  0.12957  0.76981  1.0000
  H   H8        1.0  0.68648  0.37043  0.26981  1.0000
  H   H9        1.0  0.76474  0.83419  0.20501  1.0000
  H   H10       1.0  0.73524  0.66580  0.70501  1.0000
  H   H11       1.0  0.23526  0.16580  0.79499  1.0000
  H   H12       1.0  0.26473  0.33420  0.29499  1.0000
  H   H13       1.0  0.63229  0.64482  0.31014  1.0000
  H   H14       1.0  0.86770  0.85518  0.81014  1.0000
  H   H15       1.0  0.36772  0.35518  0.68986  1.0000
  H   H16       1.0  0.13227  0.14482  0.18986  1.0000
  H   H17       1.0  0.22178  0.84603  0.45137  1.0000
  H   H18       1.0  0.27820  0.65399  0.95137  1.0000
  H   H19       1.0  0.77825  0.15397  0.54863  1.0000
  H   H20       1.0  0.72179  0.34602  0.04863  1.0000
  H   H21       1.0  0.23579  0.07403  0.47625  1.0000
  H   H22       1.0  0.26421  0.42598  0.97626  1.0000
  H   H23       1.0  0.76425  0.92597  0.52375  1.0000
  H   H24       1.0  0.73578  0.57403  0.02375  1.0000
  H   H25       1.0  0.53464  0.24662  0.42093  1.0000
  H   H26       1.0  0.96540  0.25340  0.92093  1.0000
  H   H27       1.0  0.46537  0.75339  0.57907  1.0000
  H   H28       1.0  0.03465  0.74661  0.07907  1.0000
  H   H29       1.0  0.81313  0.19498  0.33889  1.0000
  H   H30       1.0  0.68688  0.30501  0.83889  1.0000
  H   H31       1.0  0.18685  0.80502  0.66111  1.0000
  H   H32       1.0  0.31315  0.69498  0.16111  1.0000
  C   C1        1.0  0.78928  0.84392  0.28764  1.0000
  C   C2        1.0  0.71071  0.65608  0.78764  1.0000
  C   C3        1.0  0.21070  0.15608  0.71236  1.0000
  C   C4        1.0  0.28928  0.34392  0.21236  1.0000
  C   C5        1.0  0.93399  0.81193  0.23669  1.0000
  C   C6        1.0  0.56600  0.68806  0.73670  1.0000
  C   C7        1.0  0.06599  0.18806  0.76331  1.0000
  C   C8        1.0  0.43398  0.31194  0.26331  1.0000
  C   C9        1.0  0.63641  0.74451  0.32104  1.0000
  C   C10       1.0  0.86357  0.75548  0.82105  1.0000
  C   C11       1.0  0.36359  0.25548  0.67895  1.0000
  C   C12       1.0  0.13640  0.24452  0.17895  1.0000
  C   C13       1.0  0.50400  0.89198  0.38033  1.0000
  C   C14       1.0  0.99600  0.60802  0.88033  1.0000
  C   C15       1.0  0.49600  0.10802  0.61967  1.0000
  C   C16       1.0  0.00400  0.39198  0.11967  1.0000
  C   C17       1.0  0.34961  0.92287  0.42708  1.0000
  C   C18       1.0  0.15040  0.57712  0.92709  1.0000
  C   C19       1.0  0.65041  0.07712  0.57292  1.0000
  C   C20       1.0  0.84961  0.42288  0.07292  1.0000
  C   C21       1.0  0.35792  0.04901  0.44066  1.0000
  C   C22       1.0  0.14209  0.45101  0.94066  1.0000
  C   C23       1.0  0.64210  0.95099  0.55934  1.0000
  C   C24       1.0  0.85793  0.54901  0.05934  1.0000
  C   C25       1.0  0.52623  0.14781  0.40895  1.0000
  C   C26       1.0  0.97380  0.35220  0.90896  1.0000
  C   C27       1.0  0.47378  0.85219  0.59104  1.0000
  C   C28       1.0  0.02624  0.64781  0.09105  1.0000
  C   C29       1.0  0.67900  0.11998  0.36328  1.0000
  C   C30       1.0  0.82101  0.38003  0.86328  1.0000
  C   C31       1.0  0.32099  0.88003  0.63672  1.0000
  C   C32       1.0  0.17902  0.61998  0.13672  1.0000
  C   C33       1.0  0.66576  0.99179  0.34719  1.0000
  C   C34       1.0  0.83423  0.50821  0.84719  1.0000
  C   C35       1.0  0.33423  0.00821  0.65281  1.0000
  C   C36       1.0  0.16578  0.49179  0.15281  1.0000
  N   N1        1.0  0.80714  0.96545  0.30108  1.0000
  N   N2        1.0  0.69284  0.53454  0.80109  1.0000
  N   N3        1.0  0.19284  0.03455  0.69891  1.0000
  N   N4        1.0  0.30715  0.46545  0.19891  1.0000
  N   N5        1.0  0.50075  0.76782  0.36610  1.0000
  N   N6        1.0  0.99922  0.73218  0.86609  1.0000
  N   N7        1.0  0.49925  0.23218  0.63391  1.0000
  N   N8        1.0  0.00076  0.26782  0.13391  1.0000
  Cl  Cl1       1.0  0.78847  0.65702  0.49230  1.0000
  Cl  Cl2       1.0  0.71154  0.84298  0.99230  1.0000
  Cl  Cl3       1.0  0.21156  0.34298  0.50770  1.0000
  Cl  Cl4       1.0  0.28846  0.15702  0.00770  1.0000
  Cl  Cl5       1.0  0.93269  0.46391  0.37258  1.0000
  Cl  Cl6       1.0  0.56732  0.03608  0.87258  1.0000
  Cl  Cl7       1.0  0.06734  0.53608  0.62742  1.0000
  Cl  Cl8       1.0  0.43268  0.96392  0.12742  1.0000
