data_image0
_chemical_formula_structural       Ag2H40C42N6O8
_chemical_formula_sum              "Ag2 H40 C42 N6 O8"
_cell_length_a       6.55261
_cell_length_b       11.3162
_cell_length_c       13.5713
_cell_angle_alpha    105.228
_cell_angle_beta     90.0012
_cell_angle_gamma    89.999

_space_group_name_H-M_alt    "P 1"
_space_group_IT_number       1

loop_
  _space_group_symop_operation_xyz
  'x, y, z'

loop_
  _atom_site_type_symbol
  _atom_site_label
  _atom_site_symmetry_multiplicity
  _atom_site_fract_x
  _atom_site_fract_y
  _atom_site_fract_z
  _atom_site_occupancy
  Ag  Ag1       1.0  0.62080  0.46963  0.53909  1.0000
  Ag  Ag2       1.0  0.12079  0.53037  0.46092  1.0000
  H   H1        1.0  0.60070  0.74976  0.90405  1.0000
  H   H2        1.0  0.10066  0.25025  0.09595  1.0000
  H   H3        1.0  0.07608  0.03798  0.82678  1.0000
  H   H4        1.0  0.57609  0.96202  0.17322  1.0000
  H   H5        1.0  0.02543  0.69229  0.83234  1.0000
  H   H6        1.0  0.52542  0.30769  0.16766  1.0000
  H   H7        1.0  0.94131  0.64176  0.99493  1.0000
  H   H8        1.0  0.44129  0.35825  0.00508  1.0000
  H   H9        1.0  0.70645  0.57891  0.94575  1.0000
  H   H10       1.0  0.20644  0.42109  0.05425  1.0000
  H   H11       1.0  0.24146  0.50002  0.82711  1.0000
  H   H12       1.0  0.74144  0.49997  0.17289  1.0000
  H   H13       1.0  0.36552  0.28836  0.78223  1.0000
  H   H14       1.0  0.86551  0.71163  0.21777  1.0000
  H   H15       1.0  0.81810  0.17000  0.90329  1.0000
  H   H16       1.0  0.31810  0.83002  0.09671  1.0000
  H   H17       1.0  0.69159  0.38352  0.94802  1.0000
  H   H18       1.0  0.19157  0.61650  0.05198  1.0000
  H   H19       1.0  0.64563  0.03490  0.98459  1.0000
  H   H20       1.0  0.14561  0.96511  0.01540  1.0000
  H   H21       1.0  0.46366  0.92628  0.91963  1.0000
  H   H22       1.0  0.96365  0.07374  0.08035  1.0000
  H   H23       1.0  0.58076  0.02671  0.85578  1.0000
  H   H24       1.0  0.08071  0.97329  0.14421  1.0000
  H   H25       1.0  0.61044  0.61204  0.37584  1.0000
  H   H26       1.0  0.11042  0.38796  0.62417  1.0000
  H   H27       1.0  0.63373  0.82935  0.37129  1.0000
  H   H28       1.0  0.13374  0.17065  0.62871  1.0000
  H   H29       1.0  0.46959  0.93088  0.69147  1.0000
  H   H30       1.0  0.96960  0.06912  0.30853  1.0000
  H   H31       1.0  0.47133  0.70800  0.68393  1.0000
  H   H32       1.0  0.97131  0.29200  0.31608  1.0000
  H   H33       1.0  0.51716  0.22361  0.37780  1.0000
  H   H34       1.0  0.01717  0.77638  0.62220  1.0000
  H   H35       1.0  0.51073  0.00210  0.36953  1.0000
  H   H36       1.0  0.01071  0.99788  0.63046  1.0000
  H   H37       1.0  0.62988  0.10064  0.69476  1.0000
  H   H38       1.0  0.12987  0.89935  0.30525  1.0000
  H   H39       1.0  0.63982  0.31836  0.68805  1.0000
  H   H40       1.0  0.13982  0.68163  0.31195  1.0000
  C   C1        1.0  0.78341  0.58277  0.74282  1.0000
  C   C2        1.0  0.28340  0.41724  0.25718  1.0000
  C   C3        1.0  0.87207  0.66052  0.84504  1.0000
  C   C4        1.0  0.37204  0.33948  0.15497  1.0000
  C   C5        1.0  0.86714  0.58686  0.92502  1.0000
  C   C6        1.0  0.36712  0.41314  0.07497  1.0000
  C   C7        1.0  0.95412  0.45894  0.89226  1.0000
  C   C8        1.0  0.45412  0.54106  0.10773  1.0000
  C   C9        1.0  0.14475  0.42959  0.84475  1.0000
  C   C10       1.0  0.64474  0.57041  0.15526  1.0000
  C   C11       1.0  0.21705  0.30922  0.81865  1.0000
  C   C12       1.0  0.71703  0.69078  0.18136  1.0000
  C   C13       1.0  0.10080  0.21411  0.83886  1.0000
  C   C14       1.0  0.60081  0.78589  0.16113  1.0000
  C   C15       1.0  0.91087  0.24240  0.88680  1.0000
  C   C16       1.0  0.41085  0.75761  0.11320  1.0000
  C   C17       1.0  0.84042  0.36284  0.91198  1.0000
  C   C18       1.0  0.34041  0.63717  0.08802  1.0000
  C   C19       1.0  0.77984  0.88251  0.87425  1.0000
  C   C20       1.0  0.27984  0.11749  0.12573  1.0000
  C   C21       1.0  0.60716  0.97207  0.91034  1.0000
  C   C22       1.0  0.10716  0.02794  0.08965  1.0000
  C   C23       1.0  0.58668  0.68620  0.44456  1.0000
  C   C24       1.0  0.08668  0.31379  0.55544  1.0000
  C   C25       1.0  0.59487  0.80800  0.44262  1.0000
  C   C26       1.0  0.09490  0.19199  0.55738  1.0000
  C   C27       1.0  0.55661  0.90065  0.53199  1.0000
  C   C28       1.0  0.05664  0.09934  0.46801  1.0000
  C   C29       1.0  0.51091  0.86401  0.62074  1.0000
  C   C30       1.0  0.01094  0.13601  0.37926  1.0000
  C   C31       1.0  0.50710  0.74049  0.61703  1.0000
  C   C32       1.0  0.00711  0.25952  0.38297  1.0000
  C   C33       1.0  0.54356  0.19178  0.44598  1.0000
  C   C34       1.0  0.04354  0.80821  0.55402  1.0000
  C   C35       1.0  0.53864  0.06815  0.44251  1.0000
  C   C36       1.0  0.03863  0.93185  0.55749  1.0000
  C   C37       1.0  0.56530  0.03060  0.53232  1.0000
  C   C38       1.0  0.06529  0.96939  0.46768  1.0000
  C   C39       1.0  0.60231  0.12276  0.62249  1.0000
  C   C40       1.0  0.10230  0.87724  0.37751  1.0000
  C   C41       1.0  0.60889  0.24436  0.61977  1.0000
  C   C42       1.0  0.10888  0.75563  0.38022  1.0000
  N   N1        1.0  0.74253  0.76806  0.88132  1.0000
  N   N2        1.0  0.24250  0.23194  0.11869  1.0000
  N   N3        1.0  0.57671  0.27934  0.53330  1.0000
  N   N4        1.0  0.07670  0.72064  0.46669  1.0000
  N   N5        1.0  0.54326  0.65224  0.53025  1.0000
  N   N6        1.0  0.04327  0.34774  0.46975  1.0000
  O   O1        1.0  0.89673  0.56669  0.66461  1.0000
  O   O2        1.0  0.39672  0.43331  0.33539  1.0000
  O   O3        1.0  0.60291  0.54372  0.74610  1.0000
  O   O4        1.0  0.10291  0.45629  0.25390  1.0000
  O   O5        1.0  0.17550  0.09731  0.81025  1.0000
  O   O6        1.0  0.67548  0.90270  0.18977  1.0000
  O   O7        1.0  0.94607  0.91324  0.84198  1.0000
  O   O8        1.0  0.44609  0.08676  0.15802  1.0000
