data_image0
_chemical_formula_structural       Dy2H14C16N6O12
_chemical_formula_sum              "Dy2 H14 C16 N6 O12"
_cell_length_a       6.15119
_cell_length_b       9.20604
_cell_length_c       9.32333
_cell_angle_alpha    85.111
_cell_angle_beta     71.8037
_cell_angle_gamma    85.4722

_space_group_name_H-M_alt    "P 1"
_space_group_IT_number       1

loop_
  _space_group_symop_operation_xyz
  'x, y, z'

loop_
  _atom_site_type_symbol
  _atom_site_label
  _atom_site_symmetry_multiplicity
  _atom_site_fract_x
  _atom_site_fract_y
  _atom_site_fract_z
  _atom_site_occupancy
  Dy  Dy1       1.0  0.37797  0.68309  0.47067  1.0000
  Dy  Dy2       1.0  0.62203  0.31690  0.52933  1.0000
  H   H1        1.0  0.72070  0.88917  0.75131  1.0000
  H   H2        1.0  0.27931  0.11082  0.24869  1.0000
  H   H3        1.0  0.92961  0.97059  0.91656  1.0000
  H   H4        1.0  0.07040  0.02940  0.08344  1.0000
  H   H5        1.0  0.80142  0.89233  0.19553  1.0000
  H   H6        1.0  0.19858  0.10767  0.80447  1.0000
  H   H7        1.0  0.85110  0.57272  0.36771  1.0000
  H   H8        1.0  0.14890  0.42728  0.63229  1.0000
  H   H9        1.0  0.89441  0.43929  0.12499  1.0000
  H   H10       1.0  0.10559  0.56071  0.87501  1.0000
  H   H11       1.0  0.87668  0.75397  0.53898  1.0000
  H   H12       1.0  0.12333  0.24603  0.46102  1.0000
  H   H13       1.0  0.89568  0.59993  0.62710  1.0000
  H   H14       1.0  0.10431  0.40007  0.37290  1.0000
  C   C1        1.0  0.43632  0.72123  0.09148  1.0000
  C   C2        1.0  0.56368  0.27878  0.90852  1.0000
  C   C3        1.0  0.37376  0.02441  0.50531  1.0000
  C   C4        1.0  0.62624  0.97559  0.49469  1.0000
  C   C5        1.0  0.67197  0.85501  0.87093  1.0000
  C   C6        1.0  0.32803  0.14498  0.12907  1.0000
  C   C7        1.0  0.49213  0.76189  0.93597  1.0000
  C   C8        1.0  0.50787  0.23811  0.06403  1.0000
  C   C9        1.0  0.36153  0.70475  0.84868  1.0000
  C   C10       1.0  0.63847  0.29525  0.15132  1.0000
  C   C11       1.0  0.78673  0.90069  0.96372  1.0000
  C   C12       1.0  0.21327  0.09931  0.03628  1.0000
  C   C13       1.0  0.25573  0.62040  0.16149  1.0000
  C   C14       1.0  0.74427  0.37960  0.83851  1.0000
  C   C15       1.0  0.71726  0.85695  0.11840  1.0000
  C   C16       1.0  0.28274  0.14305  0.88160  1.0000
  N   N1        1.0  0.54426  0.77016  0.18257  1.0000
  N   N2        1.0  0.45574  0.22984  0.81743  1.0000
  N   N3        1.0  0.14676  0.56595  0.07802  1.0000
  N   N4        1.0  0.85324  0.43404  0.92199  1.0000
  N   N5        1.0  0.20419  0.60951  0.92742  1.0000
  N   N6        1.0  0.79581  0.39049  0.07258  1.0000
  O   O1        1.0  0.25749  0.93519  0.46914  1.0000
  O   O2        1.0  0.74251  0.06481  0.53086  1.0000
  O   O3        1.0  0.30607  0.15198  0.54965  1.0000
  O   O4        1.0  0.69393  0.84802  0.45035  1.0000
  O   O5        1.0  0.39018  0.74159  0.71075  1.0000
  O   O6        1.0  0.60982  0.25840  0.28926  1.0000
  O   O7        1.0  0.20436  0.58479  0.30565  1.0000
  O   O8        1.0  0.79564  0.41521  0.69435  1.0000
  O   O9        1.0  0.69570  0.53918  0.40726  1.0000
  O   O10       1.0  0.30430  0.46082  0.59274  1.0000
  O   O11       1.0  0.96919  0.69430  0.59566  1.0000
  O   O12       1.0  0.03081  0.30570  0.40434  1.0000
