data_image0
_chemical_formula_structural       CdH26C28N10O6
_chemical_formula_sum              "Cd1 H26 C28 N10 O6"
_cell_length_a       7.35559
_cell_length_b       7.80559
_cell_length_c       12.3609
_cell_angle_alpha    87.1959
_cell_angle_beta     84.0276
_cell_angle_gamma    78.9356

_space_group_name_H-M_alt    "P 1"
_space_group_IT_number       1

loop_
  _space_group_symop_operation_xyz
  'x, y, z'

loop_
  _atom_site_type_symbol
  _atom_site_label
  _atom_site_symmetry_multiplicity
  _atom_site_fract_x
  _atom_site_fract_y
  _atom_site_fract_z
  _atom_site_occupancy
  Cd  Cd1       1.0  0.00000  0.50000  0.00000  1.0000
  H   H1        1.0  0.41109  0.38201  0.88730  1.0000
  H   H2        1.0  0.58891  0.61799  0.11270  1.0000
  H   H3        1.0  0.07385  0.54335  0.56372  1.0000
  H   H4        1.0  0.92615  0.45665  0.43628  1.0000
  H   H5        1.0  0.13300  0.74747  0.38300  1.0000
  H   H6        1.0  0.86701  0.25253  0.61700  1.0000
  H   H7        1.0  0.93708  0.63237  0.74943  1.0000
  H   H8        1.0  0.06292  0.36763  0.25057  1.0000
  H   H9        1.0  0.56357  0.27110  0.70792  1.0000
  H   H10       1.0  0.43643  0.72890  0.29208  1.0000
  H   H11       1.0  0.69714  0.16274  0.17704  1.0000
  H   H12       1.0  0.30286  0.83725  0.82296  1.0000
  H   H13       1.0  0.96387  0.95846  0.08738  1.0000
  H   H14       1.0  0.03613  0.04154  0.91263  1.0000
  H   H15       1.0  0.86447  0.93720  0.48605  1.0000
  H   H16       1.0  0.13553  0.06280  0.51395  1.0000
  H   H17       1.0  0.41655  0.25543  0.26965  1.0000
  H   H18       1.0  0.58345  0.74456  0.73034  1.0000
  H   H19       1.0  0.48118  0.04740  0.87888  1.0000
  H   H20       1.0  0.51882  0.95260  0.12112  1.0000
  H   H21       1.0  0.65552  0.09894  0.95524  1.0000
  H   H22       1.0  0.34448  0.90106  0.04475  1.0000
  H   H23       1.0  0.81752  0.31507  0.85792  1.0000
  H   H24       1.0  0.18249  0.68493  0.14208  1.0000
  H   H25       1.0  0.70759  0.51031  0.88755  1.0000
  H   H26       1.0  0.29241  0.48969  0.11245  1.0000
  C   C1        1.0  0.68446  0.82535  0.92507  1.0000
  C   C2        1.0  0.31554  0.17465  0.07493  1.0000
  C   C3        1.0  0.41059  0.32075  0.51647  1.0000
  C   C4        1.0  0.58941  0.67925  0.48353  1.0000
  C   C5        1.0  0.32953  0.39424  0.62080  1.0000
  C   C6        1.0  0.67047  0.60576  0.37920  1.0000
  C   C7        1.0  0.33976  0.41246  0.81385  1.0000
  C   C8        1.0  0.66024  0.58754  0.18615  1.0000
  C   C9        1.0  0.15346  0.50290  0.63304  1.0000
  C   C10       1.0  0.84654  0.49710  0.36696  1.0000
  C   C11       1.0  0.59865  0.17444  0.39800  1.0000
  C   C12       1.0  0.40135  0.82556  0.60200  1.0000
  C   C13       1.0  0.03273  0.84053  0.34007  1.0000
  C   C14       1.0  0.96727  0.15948  0.65993  1.0000
  C   C15       1.0  0.07669  0.55387  0.73653  1.0000
  C   C16       1.0  0.92331  0.44613  0.26348  1.0000
  C   C17       1.0  0.56502  0.00440  0.94703  1.0000
  C   C18       1.0  0.43498  0.99560  0.05297  1.0000
  C   C19       1.0  0.75749  0.06403  0.34000  1.0000
  C   C20       1.0  0.24251  0.93597  0.66000  1.0000
  C   C21       1.0  0.42533  0.35247  0.71378  1.0000
  C   C22       1.0  0.57467  0.64753  0.28622  1.0000
  C   C23       1.0  0.78817  0.07110  0.22616  1.0000
  C   C24       1.0  0.21183  0.92890  0.77384  1.0000
  C   C25       1.0  0.93963  0.95887  0.17573  1.0000
  C   C26       1.0  0.06037  0.04113  0.82427  1.0000
  C   C27       1.0  0.88471  0.94711  0.39770  1.0000
  C   C28       1.0  0.11530  0.05289  0.60231  1.0000
  N   N1        1.0  0.44585  0.25818  0.35087  1.0000
  N   N2        1.0  0.55415  0.74182  0.64913  1.0000
  N   N3        1.0  0.16591  0.50698  0.82625  1.0000
  N   N4        1.0  0.83409  0.49302  0.17375  1.0000
  N   N5        1.0  0.57938  0.21121  0.50361  1.0000
  N   N6        1.0  0.42062  0.78879  0.49639  1.0000
  N   N7        1.0  0.32408  0.35187  0.42454  1.0000
  N   N8        1.0  0.67591  0.64813  0.57546  1.0000
  N   N9        1.0  0.06012  0.84427  0.23069  1.0000
  N   N10       1.0  0.93988  0.15573  0.76931  1.0000
  O   O1        1.0  0.63490  0.72744  0.85757  1.0000
  O   O2        1.0  0.36510  0.27256  0.14243  1.0000
  O   O3        1.0  0.76403  0.39482  0.91984  1.0000
  O   O4        1.0  0.23597  0.60518  0.08016  1.0000
  O   O5        1.0  0.82433  0.78019  0.97911  1.0000
  O   O6        1.0  0.17566  0.21981  0.02090  1.0000
