data_image0
_chemical_formula_structural       Ni2H30C32N10O10
_chemical_formula_sum              "Ni2 H30 C32 N10 O10"
_cell_length_a       8.39729
_cell_length_b       10.6655
_cell_length_c       10.6018
_cell_angle_alpha    94.6398
_cell_angle_beta     85.4759
_cell_angle_gamma    65.8905

_space_group_name_H-M_alt    "P 1"
_space_group_IT_number       1

loop_
  _space_group_symop_operation_xyz
  'x, y, z'

loop_
  _atom_site_type_symbol
  _atom_site_label
  _atom_site_symmetry_multiplicity
  _atom_site_fract_x
  _atom_site_fract_y
  _atom_site_fract_z
  _atom_site_occupancy
  Ni  Ni1       1.0  0.49999  0.50001  0.50001  1.0000
  Ni  Ni2       1.0  0.50000  1.00000  0.50000  1.0000
  H   H1        1.0  0.73738  0.57366  0.18046  1.0000
  H   H2        1.0  0.26264  0.42633  0.81953  1.0000
  H   H3        1.0  0.93075  0.42182  0.15391  1.0000
  H   H4        1.0  0.06925  0.57817  0.84610  1.0000
  H   H5        1.0  0.89132  0.43237  0.41056  1.0000
  H   H6        1.0  0.10868  0.56763  0.58944  1.0000
  H   H7        1.0  0.98852  0.53199  0.33448  1.0000
  H   H8        1.0  0.01148  0.46802  0.66551  1.0000
  H   H9        1.0  0.63022  0.83002  0.25100  1.0000
  H   H10       1.0  0.36979  0.16998  0.74899  1.0000
  H   H11       1.0  0.51535  0.82612  0.04047  1.0000
  H   H12       1.0  0.48464  0.17390  0.95953  1.0000
  H   H13       1.0  0.05210  0.19017  0.20100  1.0000
  H   H14       1.0  0.94790  0.80980  0.79900  1.0000
  H   H15       1.0  0.18549  0.17525  0.40752  1.0000
  H   H16       1.0  0.81452  0.82471  0.59247  1.0000
  H   H17       1.0  0.80902  0.37149  0.91060  1.0000
  H   H18       1.0  0.19098  0.62852  0.08940  1.0000
  H   H19       1.0  0.60834  0.52864  0.77271  1.0000
  H   H20       1.0  0.39166  0.47136  0.22728  1.0000
  H   H21       1.0  0.82095  0.23538  0.45530  1.0000
  H   H22       1.0  0.17905  0.76462  0.54471  1.0000
  H   H23       1.0  0.03654  0.06895  0.57660  1.0000
  H   H24       1.0  0.96348  0.93105  0.42340  1.0000
  H   H25       1.0  0.30060  0.81096  0.88112  1.0000
  H   H26       1.0  0.69940  0.18904  0.11888  1.0000
  H   H27       1.0  0.70163  0.07948  0.36089  1.0000
  H   H28       1.0  0.29838  0.92052  0.63911  1.0000
  H   H29       1.0  0.55062  0.20300  0.46522  1.0000
  H   H30       1.0  0.44939  0.79700  0.53479  1.0000
  C   C1        1.0  0.70798  0.39238  0.22690  1.0000
  C   C2        1.0  0.29202  0.60762  0.77310  1.0000
  C   C3        1.0  0.81350  0.47983  0.22349  1.0000
  C   C4        1.0  0.18651  0.52017  0.77652  1.0000
  C   C5        1.0  0.86738  0.51698  0.35179  1.0000
  C   C6        1.0  0.13262  0.48302  0.64821  1.0000
  C   C7        1.0  0.72872  0.65091  0.42348  1.0000
  C   C8        1.0  0.27128  0.34909  0.57652  1.0000
  C   C9        1.0  0.50192  0.90631  0.23520  1.0000
  C   C10       1.0  0.49808  0.09369  0.76479  1.0000
  C   C11       1.0  0.43658  0.90559  0.11890  1.0000
  C   C12       1.0  0.56340  0.09442  0.88110  1.0000
  C   C13       1.0  0.27324  0.01016  0.10383  1.0000
  C   C14       1.0  0.72675  0.98985  0.89616  1.0000
  C   C15       1.0  0.18022  0.10893  0.20915  1.0000
  C   C16       1.0  0.81978  0.89106  0.79085  1.0000
  C   C17       1.0  0.25231  0.10150  0.32281  1.0000
  C   C18       1.0  0.74769  0.89847  0.67719  1.0000
  C   C19       1.0  0.20125  0.02438  0.98259  1.0000
  C   C20       1.0  0.79874  0.97563  0.01741  1.0000
  C   C21       1.0  0.06171  0.11059  0.82980  1.0000
  C   C22       1.0  0.93829  0.88942  0.17020  1.0000
  C   C23       1.0  0.94060  0.20660  0.75436  1.0000
  C   C24       1.0  0.05939  0.79340  0.24564  1.0000
  C   C25       1.0  0.81839  0.33868  0.80911  1.0000
  C   C26       1.0  0.18162  0.66133  0.19089  1.0000
  C   C27       1.0  0.70428  0.42535  0.73309  1.0000
  C   C28       1.0  0.29571  0.57466  0.26691  1.0000
  C   C29       1.0  0.82302  0.26123  0.55627  1.0000
  C   C30       1.0  0.17699  0.73878  0.44373  1.0000
  C   C31       1.0  0.94179  0.16881  0.62468  1.0000
  C   C32       1.0  0.05821  0.83118  0.37533  1.0000
  N   N1        1.0  0.41203  0.00270  0.33548  1.0000
  N   N2        1.0  0.58797  0.99729  0.66451  1.0000
  N   N3        1.0  0.08498  0.14439  0.95126  1.0000
  N   N4        1.0  0.91502  0.85562  0.04873  1.0000
  N   N5        1.0  0.24709  0.92256  0.88335  1.0000
  N   N6        1.0  0.75290  0.07744  0.11665  1.0000
  N   N7        1.0  0.15885  0.97584  0.78546  1.0000
  N   N8        1.0  0.84116  0.02416  0.21454  1.0000
  N   N9        1.0  0.70333  0.38756  0.60855  1.0000
  N   N10       1.0  0.29666  0.61244  0.39145  1.0000
  O   O1        1.0  0.64446  0.37286  0.33301  1.0000
  O   O2        1.0  0.35554  0.62715  0.66699  1.0000
  O   O3        1.0  0.69177  0.33864  0.11977  1.0000
  O   O4        1.0  0.30823  0.66136  0.88022  1.0000
  O   O5        1.0  0.59000  0.64990  0.48492  1.0000
  O   O6        1.0  0.41001  0.35009  0.51508  1.0000
  O   O7        1.0  0.74947  0.76077  0.41777  1.0000
  O   O8        1.0  0.25052  0.23924  0.58223  1.0000
  O   O9        1.0  0.63809  0.10043  0.44908  1.0000
  O   O10       1.0  0.36191  0.89957  0.55092  1.0000
