data_image0
_chemical_formula_structural       Zn4H48C56N20O12
_chemical_formula_sum              "Zn4 H48 C56 N20 O12"
_cell_length_a       7.63143
_cell_length_b       12.5797
_cell_length_c       14.1441
_cell_angle_alpha    94.0484
_cell_angle_beta     90.0002
_cell_angle_gamma    90

_space_group_name_H-M_alt    "P 1"
_space_group_IT_number       1

loop_
  _space_group_symop_operation_xyz
  'x, y, z'

loop_
  _atom_site_type_symbol
  _atom_site_label
  _atom_site_symmetry_multiplicity
  _atom_site_fract_x
  _atom_site_fract_y
  _atom_site_fract_z
  _atom_site_occupancy
  Zn  Zn1       1.0  0.95902  0.19735  0.96913  1.0000
  Zn  Zn2       1.0  0.45903  0.30265  0.53087  1.0000
  Zn  Zn3       1.0  0.04097  0.80265  0.03087  1.0000
  Zn  Zn4       1.0  0.54097  0.69735  0.46913  1.0000
  H   H1        1.0  0.37369  0.07972  0.05264  1.0000
  H   H2        1.0  0.87369  0.42028  0.44736  1.0000
  H   H3        1.0  0.62631  0.92028  0.94737  1.0000
  H   H4        1.0  0.12631  0.57972  0.55264  1.0000
  H   H5        1.0  0.53054  0.00024  0.10775  1.0000
  H   H6        1.0  0.03054  0.49976  0.39225  1.0000
  H   H7        1.0  0.46946  0.99976  0.89226  1.0000
  H   H8        1.0  0.96946  0.50024  0.60775  1.0000
  H   H9        1.0  0.85712  0.87331  0.85606  1.0000
  H   H10       1.0  0.35712  0.62669  0.64394  1.0000
  H   H11       1.0  0.14287  0.12669  0.14394  1.0000
  H   H12       1.0  0.64287  0.37330  0.35606  1.0000
  H   H13       1.0  0.69579  0.78704  0.72088  1.0000
  H   H14       1.0  0.19579  0.71296  0.77912  1.0000
  H   H15       1.0  0.30421  0.21296  0.27912  1.0000
  H   H16       1.0  0.80421  0.28704  0.22089  1.0000
  H   H17       1.0  0.66893  0.58658  0.70552  1.0000
  H   H18       1.0  0.16893  0.91342  0.79448  1.0000
  H   H19       1.0  0.33107  0.41342  0.29448  1.0000
  H   H20       1.0  0.83108  0.08658  0.20552  1.0000
  H   H21       1.0  0.97779  0.58189  0.96148  1.0000
  H   H22       1.0  0.47778  0.91812  0.53853  1.0000
  H   H23       1.0  0.02221  0.41812  0.03853  1.0000
  H   H24       1.0  0.52222  0.08188  0.46148  1.0000
  H   H25       1.0  0.72556  0.09186  0.83866  1.0000
  H   H26       1.0  0.22556  0.40814  0.66133  1.0000
  H   H27       1.0  0.27445  0.90814  0.16133  1.0000
  H   H28       1.0  0.77445  0.59185  0.33867  1.0000
  H   H29       1.0  0.82385  0.90898  0.58941  1.0000
  H   H30       1.0  0.32385  0.59103  0.91058  1.0000
  H   H31       1.0  0.17615  0.09102  0.41059  1.0000
  H   H32       1.0  0.67615  0.40897  0.08942  1.0000
  H   H33       1.0  0.90480  0.07118  0.50528  1.0000
  H   H34       1.0  0.40478  0.42884  0.99472  1.0000
  H   H35       1.0  0.09521  0.92883  0.49471  1.0000
  H   H36       1.0  0.59522  0.57117  0.00529  1.0000
  H   H37       1.0  0.90892  0.24779  0.59443  1.0000
  H   H38       1.0  0.40890  0.25222  0.90557  1.0000
  H   H39       1.0  0.09109  0.75221  0.40557  1.0000
  H   H40       1.0  0.59110  0.74778  0.09443  1.0000
  H   H41       1.0  0.19697  0.10069  0.84768  1.0000
  H   H42       1.0  0.69698  0.39931  0.65232  1.0000
  H   H43       1.0  0.80303  0.89931  0.15232  1.0000
  H   H44       1.0  0.30302  0.60069  0.34768  1.0000
  H   H45       1.0  0.15631  0.02491  0.93852  1.0000
  H   H46       1.0  0.65631  0.47509  0.56148  1.0000
  H   H47       1.0  0.84369  0.97509  0.06148  1.0000
  H   H48       1.0  0.34369  0.52491  0.43852  1.0000
  C   C1        1.0  0.63840  0.12602  0.03182  1.0000
  C   C2        1.0  0.13839  0.37397  0.46818  1.0000
  C   C3        1.0  0.36160  0.87397  0.96819  1.0000
  C   C4        1.0  0.86161  0.62603  0.53181  1.0000
  C   C5        1.0  0.50117  0.04095  0.04312  1.0000
  C   C6        1.0  0.00117  0.45905  0.45688  1.0000
  C   C7        1.0  0.49883  0.95905  0.95688  1.0000
  C   C8        1.0  0.99883  0.54095  0.54312  1.0000
  C   C9        1.0  0.84406  0.78687  0.84868  1.0000
  C   C10       1.0  0.34406  0.71314  0.65132  1.0000
  C   C11       1.0  0.15593  0.21313  0.15132  1.0000
  C   C12       1.0  0.65593  0.28686  0.34869  1.0000
  C   C13       1.0  0.75411  0.73742  0.77240  1.0000
  C   C14       1.0  0.25411  0.76258  0.72760  1.0000
  C   C15       1.0  0.24589  0.26258  0.22760  1.0000
  C   C16       1.0  0.74589  0.23742  0.27241  1.0000
  C   C17       1.0  0.74184  0.62661  0.76389  1.0000
  C   C18       1.0  0.24183  0.87339  0.73611  1.0000
  C   C19       1.0  0.25817  0.37339  0.23611  1.0000
  C   C20       1.0  0.75817  0.12661  0.26389  1.0000
  C   C21       1.0  0.82402  0.56737  0.83146  1.0000
  C   C22       1.0  0.32402  0.93263  0.66854  1.0000
  C   C23       1.0  0.17598  0.43263  0.16854  1.0000
  C   C24       1.0  0.67598  0.06736  0.33146  1.0000
  C   C25       1.0  0.91140  0.62342  0.90664  1.0000
  C   C26       1.0  0.41139  0.87659  0.59336  1.0000
  C   C27       1.0  0.08860  0.37658  0.09336  1.0000
  C   C28       1.0  0.58861  0.12341  0.40664  1.0000
  C   C29       1.0  0.82808  0.45107  0.82823  1.0000
  C   C30       1.0  0.32807  0.04893  0.67177  1.0000
  C   C31       1.0  0.17193  0.54893  0.17177  1.0000
  C   C32       1.0  0.67194  0.95106  0.32823  1.0000
  C   C33       1.0  0.82690  0.28550  0.78275  1.0000
  C   C34       1.0  0.32688  0.21450  0.71725  1.0000
  C   C35       1.0  0.17311  0.71450  0.21725  1.0000
  C   C36       1.0  0.67311  0.78550  0.28276  1.0000
  C   C37       1.0  0.81922  0.18436  0.72536  1.0000
  C   C38       1.0  0.31921  0.31565  0.77464  1.0000
  C   C39       1.0  0.18078  0.81564  0.27464  1.0000
  C   C40       1.0  0.68078  0.68435  0.22536  1.0000
  C   C41       1.0  0.76957  0.08960  0.76506  1.0000
  C   C42       1.0  0.26956  0.41041  0.73493  1.0000
  C   C43       1.0  0.23044  0.91040  0.23493  1.0000
  C   C44       1.0  0.73044  0.58959  0.26507  1.0000
  C   C45       1.0  0.82113  0.98831  0.62638  1.0000
  C   C46       1.0  0.32113  0.51170  0.87361  1.0000
  C   C47       1.0  0.17887  0.01169  0.37361  1.0000
  C   C48       1.0  0.67888  0.48830  0.12639  1.0000
  C   C49       1.0  0.86721  0.07837  0.57963  1.0000
  C   C50       1.0  0.36720  0.42165  0.92037  1.0000
  C   C51       1.0  0.13279  0.92164  0.42037  1.0000
  C   C52       1.0  0.63280  0.57836  0.07964  1.0000
  C   C53       1.0  0.86752  0.17763  0.62947  1.0000
  C   C54       1.0  0.36751  0.32238  0.87053  1.0000
  C   C55       1.0  0.13248  0.82238  0.37053  1.0000
  C   C56       1.0  0.63249  0.67762  0.12948  1.0000
  N   N1        1.0  0.91962  0.73031  0.91552  1.0000
  N   N2        1.0  0.41962  0.76969  0.58448  1.0000
  N   N3        1.0  0.08038  0.26969  0.08449  1.0000
  N   N4        1.0  0.58038  0.23031  0.41552  1.0000
  N   N5        1.0  0.79545  0.38258  0.75099  1.0000
  N   N6        1.0  0.29544  0.11743  0.74901  1.0000
  N   N7        1.0  0.20456  0.61742  0.24901  1.0000
  N   N8        1.0  0.70456  0.88257  0.25099  1.0000
  N   N9        1.0  0.87594  0.29509  0.87514  1.0000
  N   N10       1.0  0.37593  0.20491  0.62486  1.0000
  N   N11       1.0  0.12407  0.70491  0.12486  1.0000
  N   N12       1.0  0.62406  0.79509  0.37514  1.0000
  N   N13       1.0  0.87659  0.40034  0.90416  1.0000
  N   N14       1.0  0.37659  0.09967  0.59584  1.0000
  N   N15       1.0  0.12341  0.59967  0.09584  1.0000
  N   N16       1.0  0.62341  0.90033  0.40416  1.0000
  N   N17       1.0  0.77140  0.99358  0.71788  1.0000
  N   N18       1.0  0.27139  0.50643  0.78211  1.0000
  N   N19       1.0  0.22861  0.00642  0.28212  1.0000
  N   N20       1.0  0.72861  0.49357  0.21789  1.0000
  O   O1        1.0  0.79912  0.08891  0.01829  1.0000
  O   O2        1.0  0.29912  0.41109  0.48171  1.0000
  O   O3        1.0  0.20088  0.91109  0.98172  1.0000
  O   O4        1.0  0.70088  0.58891  0.51829  1.0000
  O   O5        1.0  0.60211  0.22207  0.03248  1.0000
  O   O6        1.0  0.10210  0.27793  0.46751  1.0000
  O   O7        1.0  0.39789  0.77793  0.96752  1.0000
  O   O8        1.0  0.89790  0.72207  0.53248  1.0000
  O   O9        1.0  0.12902  0.09370  0.90977  1.0000
  O   O10       1.0  0.62902  0.40630  0.59023  1.0000
  O   O11       1.0  0.87098  0.90630  0.09024  1.0000
  O   O12       1.0  0.37098  0.59370  0.40977  1.0000
