data_image0
_chemical_formula_structural       Zn2Si2H44C52S4N8F12
_chemical_formula_sum              "Zn2 Si2 H44 C52 S4 N8 F12"
_cell_length_a       10.2833
_cell_length_b       13.1515
_cell_length_c       13.1516
_cell_angle_alpha    71.7066
_cell_angle_beta     66.9718
_cell_angle_gamma    66.9719

_space_group_name_H-M_alt    "P 1"
_space_group_IT_number       1

loop_
  _space_group_symop_operation_xyz
  'x, y, z'

loop_
  _atom_site_type_symbol
  _atom_site_label
  _atom_site_symmetry_multiplicity
  _atom_site_fract_x
  _atom_site_fract_y
  _atom_site_fract_z
  _atom_site_occupancy
  Zn  Zn1       1.0  0.50000  0.75001  0.24998  1.0000
  Zn  Zn2       1.0  0.50000  0.24998  0.75002  1.0000
  Si  Si1       1.0  0.50000  0.00000  0.00000  1.0000
  Si  Si2       1.0  0.50000  0.50000  0.50000  1.0000
  H   H1        1.0  0.03672  0.75644  0.02601  1.0000
  H   H2        1.0  0.96328  0.97399  0.24356  1.0000
  H   H3        1.0  0.81890  0.74380  0.47417  1.0000
  H   H4        1.0  0.18109  0.52583  0.25621  1.0000
  H   H5        1.0  0.96328  0.24356  0.97399  1.0000
  H   H6        1.0  0.03672  0.02601  0.75644  1.0000
  H   H7        1.0  0.18110  0.25621  0.52583  1.0000
  H   H8        1.0  0.81891  0.47417  0.74379  1.0000
  H   H9        1.0  0.98931  0.42178  0.15554  1.0000
  H   H10       1.0  0.01069  0.84446  0.57822  1.0000
  H   H11       1.0  0.56646  0.07846  0.34443  1.0000
  H   H12       1.0  0.43354  0.65557  0.92154  1.0000
  H   H13       1.0  0.01069  0.57822  0.84446  1.0000
  H   H14       1.0  0.98931  0.15555  0.42179  1.0000
  H   H15       1.0  0.43354  0.92154  0.65557  1.0000
  H   H16       1.0  0.56646  0.34443  0.07846  1.0000
  H   H17       1.0  0.71598  0.51352  0.23115  1.0000
  H   H18       1.0  0.28402  0.76885  0.48647  1.0000
  H   H19       1.0  0.46060  0.98667  0.26883  1.0000
  H   H20       1.0  0.53940  0.73117  0.01333  1.0000
  H   H21       1.0  0.28402  0.48648  0.76885  1.0000
  H   H22       1.0  0.71598  0.23115  0.51353  1.0000
  H   H23       1.0  0.53940  0.01333  0.73117  1.0000
  H   H24       1.0  0.46059  0.26883  0.98667  1.0000
  H   H25       1.0  0.76165  0.83285  0.10277  1.0000
  H   H26       1.0  0.23835  0.89722  0.16715  1.0000
  H   H27       1.0  0.69725  0.66736  0.39729  1.0000
  H   H28       1.0  0.30275  0.60271  0.33264  1.0000
  H   H29       1.0  0.23835  0.16715  0.89723  1.0000
  H   H30       1.0  0.76165  0.10277  0.83286  1.0000
  H   H31       1.0  0.30276  0.33264  0.60271  1.0000
  H   H32       1.0  0.69725  0.39729  0.66736  1.0000
  H   H33       1.0  0.18046  0.97909  0.97910  1.0000
  H   H34       1.0  0.81954  0.02090  0.02091  1.0000
  H   H35       1.0  0.13840  0.52105  0.52105  1.0000
  H   H36       1.0  0.86160  0.47895  0.47895  1.0000
  H   H37       1.0  0.35153  0.21203  0.21203  1.0000
  H   H38       1.0  0.64847  0.78796  0.78797  1.0000
  H   H39       1.0  0.77518  0.28835  0.28834  1.0000
  H   H40       1.0  0.22482  0.71165  0.71165  1.0000
  H   H41       1.0  0.44444  0.34338  0.34337  1.0000
  H   H42       1.0  0.55556  0.65662  0.65662  1.0000
  H   H43       1.0  0.13081  0.15689  0.15689  1.0000
  H   H44       1.0  0.86920  0.84311  0.84311  1.0000
  C   C1        1.0  0.03491  0.58223  0.08445  1.0000
  C   C2        1.0  0.96509  0.91555  0.41777  1.0000
  C   C3        1.0  0.70145  0.91799  0.41557  1.0000
  C   C4        1.0  0.29855  0.58443  0.08201  1.0000
  C   C5        1.0  0.96509  0.41777  0.91555  1.0000
  C   C6        1.0  0.03491  0.08445  0.58223  1.0000
  C   C7        1.0  0.29855  0.08201  0.58443  1.0000
  C   C8        1.0  0.70145  0.41557  0.91798  1.0000
  C   C9        1.0  0.97027  0.69934  0.07086  1.0000
  C   C10       1.0  0.02973  0.92914  0.30066  1.0000
  C   C11       1.0  0.74030  0.80087  0.42922  1.0000
  C   C12       1.0  0.25970  0.57078  0.19913  1.0000
  C   C13       1.0  0.02973  0.30066  0.92914  1.0000
  C   C14       1.0  0.97027  0.07086  0.69934  1.0000
  C   C15       1.0  0.25970  0.19913  0.57078  1.0000
  C   C16       1.0  0.74030  0.42922  0.80087  1.0000
  C   C17       1.0  0.94381  0.51317  0.14172  1.0000
  C   C18       1.0  0.05619  0.85828  0.48683  1.0000
  C   C19       1.0  0.59854  0.98705  0.35829  1.0000
  C   C20       1.0  0.40146  0.64170  0.01295  1.0000
  C   C21       1.0  0.05619  0.48683  0.85828  1.0000
  C   C22       1.0  0.94381  0.14172  0.51317  1.0000
  C   C23       1.0  0.40146  0.01295  0.64171  1.0000
  C   C24       1.0  0.59854  0.35830  0.98705  1.0000
  C   C25       1.0  0.79130  0.56368  0.18308  1.0000
  C   C26       1.0  0.20870  0.81692  0.43632  1.0000
  C   C27       1.0  0.53797  0.93652  0.31693  1.0000
  C   C28       1.0  0.46203  0.68307  0.06348  1.0000
  C   C29       1.0  0.20870  0.43632  0.81692  1.0000
  C   C30       1.0  0.79130  0.18308  0.56368  1.0000
  C   C31       1.0  0.46203  0.06348  0.68307  1.0000
  C   C32       1.0  0.53797  0.31693  0.93652  1.0000
  C   C33       1.0  0.81731  0.74237  0.11362  1.0000
  C   C34       1.0  0.18269  0.88638  0.25762  1.0000
  C   C35       1.0  0.67322  0.75784  0.38644  1.0000
  C   C36       1.0  0.32678  0.61356  0.24216  1.0000
  C   C37       1.0  0.18269  0.25763  0.88638  1.0000
  C   C38       1.0  0.81731  0.11362  0.74238  1.0000
  C   C39       1.0  0.32678  0.24216  0.61356  1.0000
  C   C40       1.0  0.67322  0.38644  0.75784  1.0000
  C   C41       1.0  0.06511  0.99201  0.99202  1.0000
  C   C42       1.0  0.93489  0.00798  0.00799  1.0000
  C   C43       1.0  0.04903  0.50805  0.50805  1.0000
  C   C44       1.0  0.95097  0.49195  0.49195  1.0000
  C   C45       1.0  0.41398  0.30144  0.30143  1.0000
  C   C46       1.0  0.58603  0.69856  0.69857  1.0000
  C   C47       1.0  0.01644  0.19886  0.19886  1.0000
  C   C48       1.0  0.98356  0.80114  0.80114  1.0000
  C   C49       1.0  0.37947  0.25455  0.25455  1.0000
  C   C50       1.0  0.62053  0.74545  0.74545  1.0000
  C   C51       1.0  0.88817  0.24581  0.24581  1.0000
  C   C52       1.0  0.11184  0.75418  0.75418  1.0000
  S   S1        1.0  0.22753  0.52249  0.02237  1.0000
  S   S2        1.0  0.77247  0.97763  0.47751  1.0000
  S   S3        1.0  0.77247  0.47751  0.97763  1.0000
  S   S4        1.0  0.22753  0.02237  0.52249  1.0000
  N   N1        1.0  0.72906  0.67592  0.16863  1.0000
  N   N2        1.0  0.27094  0.83137  0.32408  1.0000
  N   N3        1.0  0.57355  0.82428  0.33141  1.0000
  N   N4        1.0  0.42645  0.66859  0.17572  1.0000
  N   N5        1.0  0.27094  0.32408  0.83137  1.0000
  N   N6        1.0  0.72906  0.16863  0.67593  1.0000
  N   N7        1.0  0.42645  0.17572  0.66859  1.0000
  N   N8        1.0  0.57355  0.33141  0.82428  1.0000
  F   F1        1.0  0.50000  0.88768  0.11232  1.0000
  F   F2        1.0  0.50000  0.61233  0.38767  1.0000
  F   F3        1.0  0.50000  0.11232  0.88768  1.0000
  F   F4        1.0  0.50000  0.38767  0.61233  1.0000
  F   F5        1.0  0.37596  0.96835  0.96836  1.0000
  F   F6        1.0  0.62404  0.03165  0.03165  1.0000
  F   F7        1.0  0.31263  0.53166  0.53166  1.0000
  F   F8        1.0  0.68737  0.46835  0.46834  1.0000
  F   F9        1.0  0.35671  0.08655  0.08655  1.0000
  F   F10       1.0  0.64329  0.91345  0.91345  1.0000
  F   F11       1.0  0.52989  0.41345  0.41345  1.0000
  F   F12       1.0  0.47011  0.58655  0.58655  1.0000
