data_image0
_chemical_formula_structural       Zn2Si2H32C40S4N8F12
_chemical_formula_sum              "Zn2 Si2 H32 C40 S4 N8 F12"
_cell_length_a       7.70207
_cell_length_b       10.2184
_cell_length_c       16.3582
_cell_angle_alpha    103.311
_cell_angle_beta     89.9996
_cell_angle_gamma    89.9996

_space_group_name_H-M_alt    "P 1"
_space_group_IT_number       1

loop_
  _space_group_symop_operation_xyz
  'x, y, z'

loop_
  _atom_site_type_symbol
  _atom_site_label
  _atom_site_symmetry_multiplicity
  _atom_site_fract_x
  _atom_site_fract_y
  _atom_site_fract_z
  _atom_site_occupancy
  Zn  Zn1       1.0  0.69746  0.75000  0.75000  1.0000
  Zn  Zn2       1.0  0.30254  0.25000  0.25000  1.0000
  Si  Si1       1.0  0.19983  0.75000  0.75000  1.0000
  Si  Si2       1.0  0.80018  0.25000  0.25000  1.0000
  H   H1        1.0  0.98222  0.30386  0.58970  1.0000
  H   H2        1.0  0.98222  0.19613  0.91030  1.0000
  H   H3        1.0  0.01777  0.69614  0.41030  1.0000
  H   H4        1.0  0.01778  0.80387  0.08970  1.0000
  H   H5        1.0  0.44822  0.34908  0.52070  1.0000
  H   H6        1.0  0.44822  0.15093  0.97930  1.0000
  H   H7        1.0  0.55178  0.65092  0.47930  1.0000
  H   H8        1.0  0.55178  0.84908  0.02070  1.0000
  H   H9        1.0  0.45018  0.57701  0.61960  1.0000
  H   H10       1.0  0.45018  0.92300  0.88040  1.0000
  H   H11       1.0  0.54981  0.42299  0.38040  1.0000
  H   H12       1.0  0.54982  0.07700  0.11959  1.0000
  H   H13       1.0  0.96487  0.53173  0.68489  1.0000
  H   H14       1.0  0.96487  0.96826  0.81511  1.0000
  H   H15       1.0  0.03512  0.46827  0.31511  1.0000
  H   H16       1.0  0.03513  0.03173  0.18489  1.0000
  H   H17       1.0  0.52082  0.16348  0.63459  1.0000
  H   H18       1.0  0.52082  0.33652  0.86541  1.0000
  H   H19       1.0  0.47919  0.83652  0.36541  1.0000
  H   H20       1.0  0.47919  0.66348  0.13459  1.0000
  H   H21       1.0  0.89894  0.90219  0.48292  1.0000
  H   H22       1.0  0.89894  0.59781  0.01708  1.0000
  H   H23       1.0  0.10106  0.09781  0.51708  1.0000
  H   H24       1.0  0.10106  0.40219  0.98293  1.0000
  H   H25       1.0  0.88176  0.75614  0.58563  1.0000
  H   H26       1.0  0.88177  0.74386  0.91437  1.0000
  H   H27       1.0  0.11824  0.24385  0.41437  1.0000
  H   H28       1.0  0.11823  0.25615  0.08563  1.0000
  H   H29       1.0  0.50145  0.99727  0.72374  1.0000
  H   H30       1.0  0.50145  0.50273  0.77626  1.0000
  H   H31       1.0  0.49856  0.00273  0.27626  1.0000
  H   H32       1.0  0.49855  0.49727  0.22374  1.0000
  C   C1        1.0  0.71575  0.30867  0.54726  1.0000
  C   C2        1.0  0.71576  0.19133  0.95274  1.0000
  C   C3        1.0  0.28424  0.69133  0.45274  1.0000
  C   C4        1.0  0.28424  0.80867  0.04726  1.0000
  C   C5        1.0  0.86202  0.36111  0.59416  1.0000
  C   C6        1.0  0.86201  0.13890  0.90584  1.0000
  C   C7        1.0  0.13797  0.63889  0.40584  1.0000
  C   C8        1.0  0.13798  0.86110  0.09416  1.0000
  C   C9        1.0  0.56506  0.38656  0.55582  1.0000
  C   C10       1.0  0.56505  0.11344  0.94418  1.0000
  C   C11       1.0  0.43493  0.61344  0.44418  1.0000
  C   C12       1.0  0.43494  0.88656  0.05582  1.0000
  C   C13       1.0  0.56613  0.51370  0.61023  1.0000
  C   C14       1.0  0.56613  0.98631  0.88977  1.0000
  C   C15       1.0  0.43387  0.48630  0.38977  1.0000
  C   C16       1.0  0.43387  0.01369  0.11023  1.0000
  C   C17       1.0  0.85330  0.48833  0.64728  1.0000
  C   C18       1.0  0.85330  0.01167  0.85272  1.0000
  C   C19       1.0  0.14670  0.51167  0.35273  1.0000
  C   C20       1.0  0.14670  0.98833  0.14728  1.0000
  C   C21       1.0  0.71171  0.04601  0.55032  1.0000
  C   C22       1.0  0.71171  0.45398  0.94968  1.0000
  C   C23       1.0  0.28830  0.95399  0.44968  1.0000
  C   C24       1.0  0.28830  0.54602  0.05033  1.0000
  C   C25       1.0  0.60203  0.07378  0.62070  1.0000
  C   C26       1.0  0.60204  0.42623  0.87931  1.0000
  C   C27       1.0  0.39798  0.92622  0.37930  1.0000
  C   C28       1.0  0.39797  0.57377  0.12070  1.0000
  C   C29       1.0  0.80893  0.92674  0.53557  1.0000
  C   C30       1.0  0.80893  0.57327  0.96443  1.0000
  C   C31       1.0  0.19107  0.07326  0.46443  1.0000
  C   C32       1.0  0.19107  0.42674  0.03557  1.0000
  C   C33       1.0  0.79825  0.84424  0.59208  1.0000
  C   C34       1.0  0.79825  0.65576  0.90792  1.0000
  C   C35       1.0  0.20175  0.15576  0.40792  1.0000
  C   C36       1.0  0.20175  0.34424  0.09208  1.0000
  C   C37       1.0  0.59329  0.98272  0.67171  1.0000
  C   C38       1.0  0.59329  0.51728  0.82830  1.0000
  C   C39       1.0  0.40671  0.01728  0.32829  1.0000
  C   C40       1.0  0.40671  0.48272  0.17171  1.0000
  S   S1        1.0  0.72786  0.14780  0.47701  1.0000
  S   S2        1.0  0.72786  0.35220  0.02299  1.0000
  S   S3        1.0  0.27214  0.85220  0.52299  1.0000
  S   S4        1.0  0.27214  0.64780  0.97701  1.0000
  N   N1        1.0  0.70792  0.56379  0.65475  1.0000
  N   N2        1.0  0.70790  0.93621  0.84525  1.0000
  N   N3        1.0  0.29208  0.43621  0.34525  1.0000
  N   N4        1.0  0.29209  0.06379  0.15475  1.0000
  N   N5        1.0  0.69175  0.87072  0.65899  1.0000
  N   N6        1.0  0.69175  0.62928  0.84102  1.0000
  N   N7        1.0  0.30826  0.12928  0.34101  1.0000
  N   N8        1.0  0.30825  0.37072  0.15899  1.0000
  F   F1        1.0  0.42647  0.75000  0.75000  1.0000
  F   F2        1.0  0.57353  0.25000  0.25000  1.0000
  F   F3        1.0  0.97230  0.75000  0.75000  1.0000
  F   F4        1.0  0.02770  0.25000  0.25000  1.0000
  F   F5        1.0  0.19953  0.91045  0.73695  1.0000
  F   F6        1.0  0.19953  0.58955  0.76305  1.0000
  F   F7        1.0  0.80047  0.08955  0.26305  1.0000
  F   F8        1.0  0.80047  0.41045  0.23695  1.0000
  F   F9        1.0  0.19965  0.81156  0.85666  1.0000
  F   F10       1.0  0.19965  0.68844  0.64334  1.0000
  F   F11       1.0  0.80036  0.18844  0.14334  1.0000
  F   F12       1.0  0.80035  0.31156  0.35666  1.0000
