data_image0
_chemical_formula_structural       Cu3P3H45C54S9Cl3
_chemical_formula_sum              "Cu3 P3 H45 C54 S9 Cl3"
_cell_length_a       10.1459
_cell_length_b       12.394
_cell_length_c       12.3947
_cell_angle_alpha    119.998
_cell_angle_beta     89.9968
_cell_angle_gamma    89.9992

_space_group_name_H-M_alt    "P 1"
_space_group_IT_number       1

loop_
  _space_group_symop_operation_xyz
  'x, y, z'

loop_
  _atom_site_type_symbol
  _atom_site_label
  _atom_site_symmetry_multiplicity
  _atom_site_fract_x
  _atom_site_fract_y
  _atom_site_fract_z
  _atom_site_occupancy
  Cu  Cu1       1.0  0.43692  0.07696  0.99771  1.0000
  Cu  Cu2       1.0  0.77022  0.00243  0.07935  1.0000
  Cu  Cu3       1.0  0.10354  0.92073  0.92310  1.0000
  P   P1        1.0  0.51745  0.22368  0.17673  1.0000
  P   P2        1.0  0.85067  0.82346  0.04714  1.0000
  P   P3        1.0  0.18412  0.95303  0.77641  1.0000
  H   H1        1.0  0.17139  0.21619  0.16861  1.0000
  H   H2        1.0  0.50440  0.83171  0.04769  1.0000
  H   H3        1.0  0.83779  0.95238  0.78380  1.0000
  H   H4        1.0  0.01800  0.31747  0.09122  1.0000
  H   H5        1.0  0.35095  0.90905  0.22643  1.0000
  H   H6        1.0  0.68446  0.77362  0.68235  1.0000
  H   H7        1.0  0.04551  0.54258  0.15715  1.0000
  H   H8        1.0  0.37869  0.84301  0.38552  1.0000
  H   H9        1.0  0.71239  0.61442  0.45727  1.0000
  H   H10       1.0  0.22980  0.66410  0.29846  1.0000
  H   H11       1.0  0.56306  0.70178  0.36564  1.0000
  H   H12       1.0  0.89684  0.63426  0.33602  1.0000
  H   H13       1.0  0.38494  0.56151  0.37524  1.0000
  H   H14       1.0  0.71823  0.62518  0.18629  1.0000
  H   H15       1.0  0.05198  0.81366  0.43878  1.0000
  H   H16       1.0  0.81498  0.23639  0.99961  1.0000
  H   H17       1.0  0.14798  0.00013  0.23702  1.0000
  H   H18       1.0  0.48150  0.76314  0.76324  1.0000
  H   H19       1.0  0.84366  0.21413  0.79143  1.0000
  H   H20       1.0  0.17678  0.20835  0.42288  1.0000
  H   H21       1.0  0.51028  0.57725  0.78559  1.0000
  H   H22       1.0  0.68150  0.31264  0.71437  1.0000
  H   H23       1.0  0.01464  0.28557  0.59845  1.0000
  H   H24       1.0  0.34822  0.40163  0.68715  1.0000
  H   H25       1.0  0.48662  0.42480  0.84407  1.0000
  H   H26       1.0  0.81966  0.15602  0.58101  1.0000
  H   H27       1.0  0.15320  0.41906  0.57508  1.0000
  H   H28       1.0  0.45869  0.44691  0.05422  1.0000
  H   H29       1.0  0.79167  0.94583  0.39301  1.0000
  H   H30       1.0  0.12511  0.60716  0.55307  1.0000
  H   H31       1.0  0.58931  0.30419  0.50714  1.0000
  H   H32       1.0  0.92242  0.49295  0.79695  1.0000
  H   H33       1.0  0.25599  0.20298  0.69590  1.0000
  H   H34       1.0  0.70676  0.49100  0.67020  1.0000
  H   H35       1.0  0.03990  0.32975  0.82052  1.0000
  H   H36       1.0  0.37337  0.17945  0.50909  1.0000
  H   H37       1.0  0.92006  0.55502  0.62175  1.0000
  H   H38       1.0  0.25320  0.37815  0.93301  1.0000
  H   H39       1.0  0.58660  0.06677  0.44481  1.0000
  H   H40       1.0  0.01524  0.43313  0.40691  1.0000
  H   H41       1.0  0.34834  0.59301  0.02607  1.0000
  H   H42       1.0  0.68165  0.97351  0.56644  1.0000
  H   H43       1.0  0.89842  0.24723  0.24461  1.0000
  H   H44       1.0  0.23148  0.75541  0.00265  1.0000
  H   H45       1.0  0.56504  0.99709  0.75241  1.0000
  C   C1        1.0  0.28612  0.38373  0.27816  1.0000
  C   C2        1.0  0.61920  0.72224  0.10566  1.0000
  C   C3        1.0  0.95272  0.89444  0.61641  1.0000
  C   C4        1.0  0.18340  0.31444  0.19755  1.0000
  C   C5        1.0  0.51637  0.80278  0.11700  1.0000
  C   C6        1.0  0.84984  0.88308  0.68555  1.0000
  C   C7        1.0  0.09707  0.37227  0.15447  1.0000
  C   C8        1.0  0.43004  0.84582  0.21791  1.0000
  C   C9        1.0  0.76358  0.78212  0.62763  1.0000
  C   C10       1.0  0.11264  0.49806  0.19169  1.0000
  C   C11       1.0  0.44578  0.80856  0.30642  1.0000
  C   C12       1.0  0.77942  0.69356  0.50189  1.0000
  C   C13       1.0  0.21597  0.56651  0.27106  1.0000
  C   C14       1.0  0.54920  0.72922  0.29547  1.0000
  C   C15       1.0  0.88292  0.70450  0.43359  1.0000
  C   C16       1.0  0.30342  0.50955  0.31403  1.0000
  C   C17       1.0  0.63666  0.68632  0.19554  1.0000
  C   C18       1.0  0.97034  0.80446  0.49065  1.0000
  C   C19       1.0  0.63659  0.34556  0.03994  1.0000
  C   C20       1.0  0.96961  0.95996  0.30601  1.0000
  C   C21       1.0  0.30303  0.69423  0.65423  1.0000
  C   C22       1.0  0.74462  0.27941  0.96611  1.0000
  C   C23       1.0  0.07767  0.03370  0.31361  1.0000
  C   C24       1.0  0.41117  0.68659  0.72027  1.0000
  C   C25       1.0  0.76008  0.26737  0.84884  1.0000
  C   C26       1.0  0.09322  0.15099  0.41879  1.0000
  C   C27       1.0  0.42667  0.58139  0.73238  1.0000
  C   C28       1.0  0.66889  0.32144  0.80570  1.0000
  C   C29       1.0  0.00203  0.19420  0.51600  1.0000
  C   C30       1.0  0.33554  0.48413  0.67833  1.0000
  C   C31       1.0  0.55956  0.38470  0.87838  1.0000
  C   C32       1.0  0.89262  0.12163  0.50661  1.0000
  C   C33       1.0  0.22610  0.49351  0.61518  1.0000
  C   C34       1.0  0.54259  0.39667  0.99556  1.0000
  C   C35       1.0  0.87556  0.00446  0.40143  1.0000
  C   C36       1.0  0.20904  0.59874  0.60325  1.0000
  C   C37       1.0  0.73765  0.26427  0.36637  1.0000
  C   C38       1.0  0.07071  0.63371  0.89796  1.0000
  C   C39       1.0  0.40425  0.10188  0.73552  1.0000
  C   C40       1.0  0.68313  0.33231  0.48614  1.0000
  C   C41       1.0  0.01619  0.51393  0.84614  1.0000
  C   C42       1.0  0.34977  0.15380  0.66762  1.0000
  C   C43       1.0  0.74953  0.43669  0.57743  1.0000
  C   C44       1.0  0.08262  0.42256  0.85910  1.0000
  C   C45       1.0  0.41610  0.14078  0.56323  1.0000
  C   C46       1.0  0.86950  0.47281  0.54983  1.0000
  C   C47       1.0  0.20259  0.45010  0.92279  1.0000
  C   C48       1.0  0.53603  0.07702  0.52701  1.0000
  C   C49       1.0  0.92273  0.40505  0.43031  1.0000
  C   C50       1.0  0.25577  0.56966  0.97468  1.0000
  C   C51       1.0  0.58918  0.02505  0.59463  1.0000
  C   C52       1.0  0.85720  0.30074  0.33801  1.0000
  C   C53       1.0  0.19025  0.66202  0.96278  1.0000
  C   C54       1.0  0.52377  0.03701  0.69895  1.0000
  S   S1        1.0  0.39450  0.31228  0.33694  1.0000
  S   S2        1.0  0.72754  0.66337  0.97540  1.0000
  S   S3        1.0  0.06102  0.02473  0.68796  1.0000
  S   S4        1.0  0.62560  0.37854  0.19653  1.0000
  S   S5        1.0  0.95857  0.80342  0.18220  1.0000
  S   S6        1.0  0.29193  0.81791  0.62133  1.0000
  S   S7        1.0  0.65005  0.13360  0.24991  1.0000
  S   S8        1.0  0.98319  0.75030  0.88386  1.0000
  S   S9        1.0  0.31685  0.11619  0.86636  1.0000
  Cl  Cl1       1.0  0.61566  0.94297  0.91977  1.0000
  Cl  Cl2       1.0  0.94898  0.08029  0.02328  1.0000
  Cl  Cl3       1.0  0.28227  0.97686  0.05711  1.0000
