data_image0
_chemical_formula_structural       Ba8H32C64O32
_chemical_formula_sum              "Ba8 H32 C64 O32"
_cell_length_a       7.79717
_cell_length_b       10.3973
_cell_length_c       19.0633
_cell_angle_alpha    90
_cell_angle_beta     90.0001
_cell_angle_gamma    90.0002

_space_group_name_H-M_alt    "P 1"
_space_group_IT_number       1

loop_
  _space_group_symop_operation_xyz
  'x, y, z'

loop_
  _atom_site_type_symbol
  _atom_site_label
  _atom_site_symmetry_multiplicity
  _atom_site_fract_x
  _atom_site_fract_y
  _atom_site_fract_z
  _atom_site_occupancy
  Ba  Ba1       1.0  0.53568  0.20162  0.52437  1.0000
  Ba  Ba2       1.0  0.96432  0.79838  0.02438  1.0000
  Ba  Ba3       1.0  0.46432  0.70162  0.97563  1.0000
  Ba  Ba4       1.0  0.03568  0.29838  0.47562  1.0000
  Ba  Ba5       1.0  0.46432  0.79838  0.47562  1.0000
  Ba  Ba6       1.0  0.03568  0.20162  0.97563  1.0000
  Ba  Ba7       1.0  0.53568  0.29838  0.02438  1.0000
  Ba  Ba8       1.0  0.96432  0.70162  0.52437  1.0000
  H   H1        1.0  0.73694  0.21569  0.35596  1.0000
  H   H2        1.0  0.76307  0.78431  0.85595  1.0000
  H   H3        1.0  0.26307  0.71569  0.14405  1.0000
  H   H4        1.0  0.23694  0.28431  0.64404  1.0000
  H   H5        1.0  0.26307  0.78431  0.64405  1.0000
  H   H6        1.0  0.23693  0.21569  0.14405  1.0000
  H   H7        1.0  0.73693  0.28431  0.85595  1.0000
  H   H8        1.0  0.76307  0.71569  0.35595  1.0000
  H   H9        1.0  0.74585  0.25822  0.22770  1.0000
  H   H10       1.0  0.75415  0.74178  0.72770  1.0000
  H   H11       1.0  0.25415  0.75822  0.27230  1.0000
  H   H12       1.0  0.24585  0.24178  0.77230  1.0000
  H   H13       1.0  0.25415  0.74178  0.77230  1.0000
  H   H14       1.0  0.24585  0.25822  0.27230  1.0000
  H   H15       1.0  0.74585  0.24178  0.72770  1.0000
  H   H16       1.0  0.75415  0.75822  0.22770  1.0000
  H   H17       1.0  0.01136  0.90132  0.19517  1.0000
  H   H18       1.0  0.48864  0.09868  0.69517  1.0000
  H   H19       1.0  0.98863  0.40132  0.30483  1.0000
  H   H20       1.0  0.51136  0.59868  0.80483  1.0000
  H   H21       1.0  0.98864  0.09868  0.80483  1.0000
  H   H22       1.0  0.51136  0.90132  0.30483  1.0000
  H   H23       1.0  0.01136  0.59868  0.69517  1.0000
  H   H24       1.0  0.48863  0.40132  0.19517  1.0000
  H   H25       1.0  0.99183  0.85329  0.32284  1.0000
  H   H26       1.0  0.50817  0.14671  0.82284  1.0000
  H   H27       1.0  0.00817  0.35329  0.17716  1.0000
  H   H28       1.0  0.49183  0.64671  0.67716  1.0000
  H   H29       1.0  0.00817  0.14671  0.67716  1.0000
  H   H30       1.0  0.49183  0.85329  0.17716  1.0000
  H   H31       1.0  0.99183  0.64671  0.82284  1.0000
  H   H32       1.0  0.50817  0.35329  0.32284  1.0000
  C   C1        1.0  0.85858  0.02924  0.34737  1.0000
  C   C2        1.0  0.64142  0.97076  0.84737  1.0000
  C   C3        1.0  0.14142  0.52924  0.15263  1.0000
  C   C4        1.0  0.35858  0.47076  0.65263  1.0000
  C   C5        1.0  0.14142  0.97076  0.65262  1.0000
  C   C6        1.0  0.35858  0.02924  0.15263  1.0000
  C   C7        1.0  0.85858  0.47076  0.84737  1.0000
  C   C8        1.0  0.64142  0.52924  0.34737  1.0000
  C   C9        1.0  0.79581  0.14585  0.32064  1.0000
  C   C10       1.0  0.70419  0.85415  0.82064  1.0000
  C   C11       1.0  0.20418  0.64585  0.17936  1.0000
  C   C12       1.0  0.29581  0.35415  0.67936  1.0000
  C   C13       1.0  0.20419  0.85414  0.67936  1.0000
  C   C14       1.0  0.29581  0.14585  0.17936  1.0000
  C   C15       1.0  0.79581  0.35415  0.82064  1.0000
  C   C16       1.0  0.70419  0.64585  0.32064  1.0000
  C   C17       1.0  0.80065  0.17014  0.24888  1.0000
  C   C18       1.0  0.69936  0.82986  0.74888  1.0000
  C   C19       1.0  0.19935  0.67014  0.25112  1.0000
  C   C20       1.0  0.30065  0.32987  0.75112  1.0000
  C   C21       1.0  0.19936  0.82986  0.75112  1.0000
  C   C22       1.0  0.30065  0.17013  0.25112  1.0000
  C   C23       1.0  0.80065  0.32986  0.74888  1.0000
  C   C24       1.0  0.69935  0.67014  0.24888  1.0000
  C   C25       1.0  0.87382  0.08087  0.20285  1.0000
  C   C26       1.0  0.62618  0.91913  0.70285  1.0000
  C   C27       1.0  0.12618  0.58087  0.29715  1.0000
  C   C28       1.0  0.37382  0.41913  0.79715  1.0000
  C   C29       1.0  0.12618  0.91912  0.79715  1.0000
  C   C30       1.0  0.37382  0.08087  0.29715  1.0000
  C   C31       1.0  0.87382  0.41913  0.70285  1.0000
  C   C32       1.0  0.62617  0.58087  0.20285  1.0000
  C   C33       1.0  0.94663  0.96816  0.23028  1.0000
  C   C34       1.0  0.55337  0.03184  0.73028  1.0000
  C   C35       1.0  0.05336  0.46816  0.26972  1.0000
  C   C36       1.0  0.44664  0.53184  0.76972  1.0000
  C   C37       1.0  0.05337  0.03184  0.76972  1.0000
  C   C38       1.0  0.44664  0.96816  0.26972  1.0000
  C   C39       1.0  0.94664  0.53184  0.73028  1.0000
  C   C40       1.0  0.55336  0.46816  0.23028  1.0000
  C   C41       1.0  0.93711  0.94152  0.30166  1.0000
  C   C42       1.0  0.56289  0.05848  0.80166  1.0000
  C   C43       1.0  0.06288  0.44152  0.19834  1.0000
  C   C44       1.0  0.43711  0.55848  0.69834  1.0000
  C   C45       1.0  0.06289  0.05848  0.69834  1.0000
  C   C46       1.0  0.43711  0.94152  0.19834  1.0000
  C   C47       1.0  0.93711  0.55848  0.80166  1.0000
  C   C48       1.0  0.56289  0.44152  0.30166  1.0000
  C   C49       1.0  0.83045  0.99658  0.42341  1.0000
  C   C50       1.0  0.66955  0.00341  0.92341  1.0000
  C   C51       1.0  0.16955  0.49658  0.07659  1.0000
  C   C52       1.0  0.33045  0.50342  0.57659  1.0000
  C   C53       1.0  0.16956  0.00341  0.57659  1.0000
  C   C54       1.0  0.33045  0.99658  0.07659  1.0000
  C   C55       1.0  0.83045  0.50341  0.92341  1.0000
  C   C56       1.0  0.66955  0.49658  0.42341  1.0000
  C   C57       1.0  0.87740  0.10792  0.12554  1.0000
  C   C58       1.0  0.62259  0.89208  0.62554  1.0000
  C   C59       1.0  0.12260  0.60793  0.37446  1.0000
  C   C60       1.0  0.37741  0.39208  0.87446  1.0000
  C   C61       1.0  0.12259  0.89208  0.87446  1.0000
  C   C62       1.0  0.37741  0.10792  0.37446  1.0000
  C   C63       1.0  0.87741  0.39208  0.62554  1.0000
  C   C64       1.0  0.62259  0.60793  0.12554  1.0000
  O   O1        1.0  0.82729  0.08891  0.46745  1.0000
  O   O2        1.0  0.67271  0.91109  0.96745  1.0000
  O   O3        1.0  0.17271  0.58890  0.03255  1.0000
  O   O4        1.0  0.32729  0.41109  0.53255  1.0000
  O   O5        1.0  0.17271  0.91109  0.53255  1.0000
  O   O6        1.0  0.32729  0.08891  0.03255  1.0000
  O   O7        1.0  0.82729  0.41109  0.96745  1.0000
  O   O8        1.0  0.67271  0.58891  0.46745  1.0000
  O   O9        1.0  0.80504  0.87888  0.43908  1.0000
  O   O10       1.0  0.69497  0.12112  0.93908  1.0000
  O   O11       1.0  0.19496  0.37887  0.06092  1.0000
  O   O12       1.0  0.30503  0.62112  0.56092  1.0000
  O   O13       1.0  0.19497  0.12112  0.56092  1.0000
  O   O14       1.0  0.30504  0.87887  0.06092  1.0000
  O   O15       1.0  0.80503  0.62112  0.93908  1.0000
  O   O16       1.0  0.69496  0.37887  0.43908  1.0000
  O   O17       1.0  0.95720  0.02900  0.08580  1.0000
  O   O18       1.0  0.54280  0.97100  0.58580  1.0000
  O   O19       1.0  0.04279  0.52901  0.41420  1.0000
  O   O20       1.0  0.45720  0.47100  0.91420  1.0000
  O   O21       1.0  0.04279  0.97100  0.91420  1.0000
  O   O22       1.0  0.45721  0.02901  0.41420  1.0000
  O   O23       1.0  0.95720  0.47100  0.58580  1.0000
  O   O24       1.0  0.54279  0.52901  0.08579  1.0000
  O   O25       1.0  0.80661  0.21009  0.10233  1.0000
  O   O26       1.0  0.69339  0.78991  0.60233  1.0000
  O   O27       1.0  0.19339  0.71010  0.39767  1.0000
  O   O28       1.0  0.30660  0.28991  0.89767  1.0000
  O   O29       1.0  0.19339  0.78991  0.89767  1.0000
  O   O30       1.0  0.30661  0.21009  0.39767  1.0000
  O   O31       1.0  0.80661  0.28991  0.60233  1.0000
  O   O32       1.0  0.69339  0.71009  0.10233  1.0000
