data_image0
_chemical_formula_structural       Cu2H30C52N10O8
_chemical_formula_sum              "Cu2 H30 C52 N10 O8"
_cell_length_a       8.14182
_cell_length_b       10.1165
_cell_length_c       13.3779
_cell_angle_alpha    92.082
_cell_angle_beta     103.604
_cell_angle_gamma    101.908

_space_group_name_H-M_alt    "P 1"
_space_group_IT_number       1

loop_
  _space_group_symop_operation_xyz
  'x, y, z'

loop_
  _atom_site_type_symbol
  _atom_site_label
  _atom_site_symmetry_multiplicity
  _atom_site_fract_x
  _atom_site_fract_y
  _atom_site_fract_z
  _atom_site_occupancy
  Cu  Cu1       1.0  0.53830  0.07534  0.76729  1.0000
  Cu  Cu2       1.0  0.46170  0.92466  0.23271  1.0000
  H   H1        1.0  0.12175  0.16303  0.15565  1.0000
  H   H2        1.0  0.87826  0.83696  0.84434  1.0000
  H   H3        1.0  0.20391  0.22086  0.98749  1.0000
  H   H4        1.0  0.79609  0.77913  0.01250  1.0000
  H   H5        1.0  0.96618  0.19300  0.82660  1.0000
  H   H6        1.0  0.03380  0.80699  0.17339  1.0000
  H   H7        1.0  0.59020  0.06576  0.98405  1.0000
  H   H8        1.0  0.40979  0.93424  0.01595  1.0000
  H   H9        1.0  0.63936  0.30642  0.63172  1.0000
  H   H10       1.0  0.36065  0.69358  0.36827  1.0000
  H   H11       1.0  0.75962  0.31857  0.47224  1.0000
  H   H12       1.0  0.24038  0.68143  0.52775  1.0000
  H   H13       1.0  0.82937  0.10976  0.40010  1.0000
  H   H14       1.0  0.17064  0.89024  0.59990  1.0000
  H   H15       1.0  0.48862  0.79654  0.86188  1.0000
  H   H16       1.0  0.51137  0.20347  0.13812  1.0000
  H   H17       1.0  0.54772  0.57101  0.81807  1.0000
  H   H18       1.0  0.45227  0.42900  0.18194  1.0000
  H   H19       1.0  0.65982  0.53666  0.66378  1.0000
  H   H20       1.0  0.34018  0.46335  0.33623  1.0000
  H   H21       1.0  0.67433  0.53870  0.03886  1.0000
  H   H22       1.0  0.32567  0.46130  0.96114  1.0000
  H   H23       1.0  0.86151  0.37278  0.07762  1.0000
  H   H24       1.0  0.13847  0.62722  0.92238  1.0000
  H   H25       1.0  0.97919  0.50665  0.40075  1.0000
  H   H26       1.0  0.02081  0.49334  0.59925  1.0000
  H   H27       1.0  0.00333  0.34803  0.26086  1.0000
  H   H28       1.0  0.99666  0.65196  0.73913  1.0000
  H   H29       1.0  0.71817  0.54057  0.47924  1.0000
  H   H30       1.0  0.28183  0.45943  0.52077  1.0000
  C   C1        1.0  0.79415  0.06977  0.17910  1.0000
  C   C2        1.0  0.20584  0.93022  0.82089  1.0000
  C   C3        1.0  0.85073  0.10763  0.08215  1.0000
  C   C4        1.0  0.14927  0.89237  0.91784  1.0000
  C   C5        1.0  0.02476  0.15429  0.08296  1.0000
  C   C6        1.0  0.97524  0.84570  0.91703  1.0000
  C   C7        1.0  0.06933  0.18682  0.99109  1.0000
  C   C8        1.0  0.93067  0.81318  0.00890  1.0000
  C   C9        1.0  0.93696  0.17110  0.90066  1.0000
  C   C10       1.0  0.06303  0.82889  0.09933  1.0000
  C   C11       1.0  0.72761  0.09747  0.98849  1.0000
  C   C12       1.0  0.27239  0.90253  0.01150  1.0000
  C   C13       1.0  0.67472  0.21977  0.59808  1.0000
  C   C14       1.0  0.32528  0.78023  0.40192  1.0000
  C   C15       1.0  0.74158  0.22493  0.51028  1.0000
  C   C16       1.0  0.25842  0.77507  0.48972  1.0000
  C   C17       1.0  0.78163  0.11068  0.47025  1.0000
  C   C18       1.0  0.21837  0.88933  0.52975  1.0000
  C   C19       1.0  0.75358  0.99080  0.52009  1.0000
  C   C20       1.0  0.24643  0.00920  0.47991  1.0000
  C   C21       1.0  0.68489  0.99295  0.60785  1.0000
  C   C22       1.0  0.31511  0.00705  0.39214  1.0000
  C   C23       1.0  0.64575  0.87269  0.66015  1.0000
  C   C24       1.0  0.35425  0.12732  0.33985  1.0000
  C   C25       1.0  0.54128  0.77987  0.79595  1.0000
  C   C26       1.0  0.45872  0.22015  0.20405  1.0000
  C   C27       1.0  0.57327  0.65344  0.77014  1.0000
  C   C28       1.0  0.42672  0.34657  0.22986  1.0000
  C   C29       1.0  0.63622  0.63528  0.68422  1.0000
  C   C30       1.0  0.36378  0.36473  0.31579  1.0000
  C   C31       1.0  0.67384  0.74601  0.62602  1.0000
  C   C32       1.0  0.32616  0.25400  0.37399  1.0000
  C   C33       1.0  0.73414  0.74582  0.53456  1.0000
  C   C34       1.0  0.26586  0.25417  0.46544  1.0000
  C   C35       1.0  0.77554  0.86238  0.48347  1.0000
  C   C36       1.0  0.22446  0.13762  0.51653  1.0000
  C   C37       1.0  0.79650  0.69664  0.38571  1.0000
  C   C38       1.0  0.20351  0.30336  0.61430  1.0000
  C   C39       1.0  0.80974  0.60971  0.29910  1.0000
  C   C40       1.0  0.19027  0.39029  0.70091  1.0000
  C   C41       1.0  0.72025  0.61745  0.19577  1.0000
  C   C42       1.0  0.27976  0.38255  0.80424  1.0000
  C   C43       1.0  0.58809  0.70426  0.16178  1.0000
  C   C44       1.0  0.41192  0.29575  0.83823  1.0000
  C   C45       1.0  0.74462  0.53252  0.11794  1.0000
  C   C46       1.0  0.25537  0.46748  0.88206  1.0000
  C   C47       1.0  0.84832  0.43864  0.14005  1.0000
  C   C48       1.0  0.15168  0.56136  0.85995  1.0000
  C   C49       1.0  0.91175  0.51279  0.32073  1.0000
  C   C50       1.0  0.08825  0.48721  0.67928  1.0000
  C   C51       1.0  0.93007  0.42650  0.24240  1.0000
  C   C52       1.0  0.06992  0.57349  0.75760  1.0000
  N   N1        1.0  0.76889  0.12754  0.89938  1.0000
  N   N2        1.0  0.23111  0.87245  0.10062  1.0000
  N   N3        1.0  0.57644  0.88569  0.74160  1.0000
  N   N4        1.0  0.42356  0.11433  0.25840  1.0000
  N   N5        1.0  0.64612  0.10646  0.64513  1.0000
  N   N6        1.0  0.35388  0.89354  0.35487  1.0000
  N   N7        1.0  0.75190  0.64125  0.47181  1.0000
  N   N8        1.0  0.24811  0.35875  0.52819  1.0000
  N   N9        1.0  0.81739  0.83022  0.39348  1.0000
  N   N10       1.0  0.18262  0.16978  0.60653  1.0000
  O   O1        1.0  0.89860  0.10506  0.26500  1.0000
  O   O2        1.0  0.10140  0.89491  0.73499  1.0000
  O   O3        1.0  0.63477  0.00329  0.15854  1.0000
  O   O4        1.0  0.36521  0.99672  0.84145  1.0000
  O   O5        1.0  0.52198  0.74475  0.23383  1.0000
  O   O6        1.0  0.47803  0.25525  0.76618  1.0000
  O   O7        1.0  0.54961  0.72530  0.06889  1.0000
  O   O8        1.0  0.45040  0.27470  0.93112  1.0000
