data_image0
_chemical_formula_structural       Zn2H30C52N10O8
_chemical_formula_sum              "Zn2 H30 C52 N10 O8"
_cell_length_a       8.28141
_cell_length_b       10.0554
_cell_length_c       13.3435
_cell_angle_alpha    92.1208
_cell_angle_beta     104.206
_cell_angle_gamma    102.901

_space_group_name_H-M_alt    "P 1"
_space_group_IT_number       1

loop_
  _space_group_symop_operation_xyz
  'x, y, z'

loop_
  _atom_site_type_symbol
  _atom_site_label
  _atom_site_symmetry_multiplicity
  _atom_site_fract_x
  _atom_site_fract_y
  _atom_site_fract_z
  _atom_site_occupancy
  Zn  Zn1       1.0  0.94959  0.41253  0.72331  1.0000
  Zn  Zn2       1.0  0.05040  0.58747  0.27668  1.0000
  H   H1        1.0  0.85867  0.19572  0.86885  1.0000
  H   H2        1.0  0.14133  0.80427  0.13115  1.0000
  H   H3        1.0  0.73911  0.18136  0.02739  1.0000
  H   H4        1.0  0.26089  0.81863  0.97262  1.0000
  H   H5        1.0  0.66998  0.39060  0.09899  1.0000
  H   H6        1.0  0.33002  0.60939  0.90101  1.0000
  H   H7        1.0  0.84040  0.97327  0.84319  1.0000
  H   H8        1.0  0.15960  0.02672  0.15681  1.0000
  H   H9        1.0  0.94480  0.94558  0.68681  1.0000
  H   H10       1.0  0.05520  0.05442  0.31319  1.0000
  H   H11       1.0  0.99674  0.71817  0.63638  1.0000
  H   H12       1.0  0.00326  0.28182  0.36362  1.0000
  H   H13       1.0  0.51899  0.99293  0.10092  1.0000
  H   H14       1.0  0.48102  0.00706  0.89908  1.0000
  H   H15       1.0  0.48885  0.14637  0.24208  1.0000
  H   H16       1.0  0.51116  0.85363  0.75792  1.0000
  H   H17       1.0  0.62799  0.12142  0.42677  1.0000
  H   H18       1.0  0.37201  0.87859  0.57323  1.0000
  H   H19       1.0  0.81740  0.96003  0.46608  1.0000
  H   H20       1.0  0.18260  0.03997  0.53392  1.0000
  H   H21       1.0  0.91087  0.42759  0.50765  1.0000
  H   H22       1.0  0.08913  0.57241  0.49235  1.0000
  H   H23       1.0  0.37955  0.33859  0.34290  1.0000
  H   H24       1.0  0.62045  0.66141  0.65710  1.0000
  H   H25       1.0  0.30627  0.28217  0.51381  1.0000
  H   H26       1.0  0.69373  0.71783  0.48619  1.0000
  H   H27       1.0  0.54852  0.30930  0.67298  1.0000
  H   H28       1.0  0.45149  0.69069  0.32701  1.0000
  H   H29       1.0  0.78300  0.96536  0.02556  1.0000
  H   H30       1.0  0.21700  0.03463  0.97444  1.0000
  C   C1        1.0  0.82423  0.28264  0.90238  1.0000
  C   C2        1.0  0.17576  0.71736  0.09762  1.0000
  C   C3        1.0  0.75806  0.27609  0.98978  1.0000
  C   C4        1.0  0.24194  0.72390  0.01022  1.0000
  C   C5        1.0  0.71932  0.39084  0.02965  1.0000
  C   C6        1.0  0.28068  0.60916  0.97035  1.0000
  C   C7        1.0  0.74897  0.51235  0.98064  1.0000
  C   C8        1.0  0.25103  0.48765  0.01936  1.0000
  C   C9        1.0  0.72783  0.64076  0.01876  1.0000
  C   C10       1.0  0.27217  0.35924  0.98124  1.0000
  C   C11       1.0  0.76887  0.75942  0.96899  1.0000
  C   C12       1.0  0.23113  0.24058  0.03102  1.0000
  C   C13       1.0  0.82647  0.76122  0.87709  1.0000
  C   C14       1.0  0.17353  0.23878  0.12291  1.0000
  C   C15       1.0  0.86210  0.87483  0.82034  1.0000
  C   C16       1.0  0.13790  0.12516  0.17966  1.0000
  C   C17       1.0  0.92073  0.86008  0.73291  1.0000
  C   C18       1.0  0.07927  0.13992  0.26709  1.0000
  C   C19       1.0  0.94823  0.73292  0.70391  1.0000
  C   C20       1.0  0.05177  0.26707  0.29609  1.0000
  C   C21       1.0  0.85171  0.63459  0.83974  1.0000
  C   C22       1.0  0.14829  0.36541  0.16026  1.0000
  C   C23       1.0  0.81536  0.51138  0.89215  1.0000
  C   C24       1.0  0.18463  0.48861  0.10785  1.0000
  C   C25       1.0  0.70406  0.80581  0.11701  1.0000
  C   C26       1.0  0.29595  0.19419  0.88299  1.0000
  C   C27       1.0  0.68731  0.89144  0.20352  1.0000
  C   C28       1.0  0.31270  0.10856  0.79648  1.0000
  C   C29       1.0  0.58486  0.98633  0.18158  1.0000
  C   C30       1.0  0.41514  0.01367  0.81842  1.0000
  C   C31       1.0  0.56382  0.07007  0.26071  1.0000
  C   C32       1.0  0.43619  0.92993  0.73929  1.0000
  C   C33       1.0  0.64393  0.05779  0.36383  1.0000
  C   C34       1.0  0.35607  0.94222  0.63617  1.0000
  C   C35       1.0  0.74857  0.96624  0.38626  1.0000
  C   C36       1.0  0.25143  0.03376  0.61374  1.0000
  C   C37       1.0  0.77441  0.88340  0.30773  1.0000
  C   C38       1.0  0.22559  0.11661  0.69227  1.0000
  C   C39       1.0  0.90499  0.79786  0.34064  1.0000
  C   C40       1.0  0.09502  0.20215  0.65936  1.0000
  C   C41       1.0  0.77548  0.39959  0.50520  1.0000
  C   C42       1.0  0.22452  0.60041  0.49479  1.0000
  C   C43       1.0  0.64943  0.39045  0.41271  1.0000
  C   C44       1.0  0.35057  0.60956  0.58728  1.0000
  C   C45       1.0  0.47832  0.34649  0.41500  1.0000
  C   C46       1.0  0.52168  0.65352  0.58500  1.0000
  C   C47       1.0  0.43848  0.31501  0.50825  1.0000
  C   C48       1.0  0.56152  0.68499  0.49174  1.0000
  C   C49       1.0  0.57279  0.32998  0.59763  1.0000
  C   C50       1.0  0.42721  0.67002  0.40237  1.0000
  C   C51       1.0  0.69865  0.42503  0.31316  1.0000
  C   C52       1.0  0.30134  0.57497  0.68683  1.0000
  N   N1        1.0  0.85213  0.39710  0.85514  1.0000
  N   N2        1.0  0.14787  0.60290  0.14486  1.0000
  N   N3        1.0  0.91350  0.62418  0.75613  1.0000
  N   N4        1.0  0.08650  0.37582  0.24386  1.0000
  N   N5        1.0  0.68542  0.67122  0.10874  1.0000
  N   N6        1.0  0.31458  0.32877  0.89126  1.0000
  N   N7        1.0  0.74922  0.86337  0.03185  1.0000
  N   N8        1.0  0.25078  0.13663  0.96815  1.0000
  N   N9        1.0  0.73832  0.37129  0.59582  1.0000
  N   N10       1.0  0.26168  0.62871  0.40417  1.0000
  O   O1        1.0  0.98376  0.77152  0.27213  1.0000
  O   O2        1.0  0.01625  0.22848  0.72788  1.0000
  O   O3        1.0  0.93116  0.76390  0.43129  1.0000
  O   O4        1.0  0.06884  0.23610  0.56871  1.0000
  O   O5        1.0  0.85882  0.48217  0.32776  1.0000
  O   O6        1.0  0.14117  0.51783  0.67224  1.0000
  O   O7        1.0  0.58528  0.39395  0.22921  1.0000
  O   O8        1.0  0.41471  0.60604  0.77079  1.0000
