data_image0
_chemical_formula_structural       Sn4H48C32O12
_chemical_formula_sum              "Sn4 H48 C32 O12"
_cell_length_a       9.76473
_cell_length_b       10.1739
_cell_length_c       10.6903
_cell_angle_alpha    90
_cell_angle_beta     108.093
_cell_angle_gamma    90

_space_group_name_H-M_alt    "P 1"
_space_group_IT_number       1

loop_
  _space_group_symop_operation_xyz
  'x, y, z'

loop_
  _atom_site_type_symbol
  _atom_site_label
  _atom_site_symmetry_multiplicity
  _atom_site_fract_x
  _atom_site_fract_y
  _atom_site_fract_z
  _atom_site_occupancy
  Sn  Sn1       1.0  0.27578  0.09733  0.19555  1.0000
  Sn  Sn2       1.0  0.22422  0.59734  0.30445  1.0000
  Sn  Sn3       1.0  0.72422  0.90266  0.80445  1.0000
  Sn  Sn4       1.0  0.77578  0.40267  0.69555  1.0000
  H   H1        1.0  0.31533  0.76835  0.90462  1.0000
  H   H2        1.0  0.18467  0.26835  0.59538  1.0000
  H   H3        1.0  0.68467  0.23165  0.09538  1.0000
  H   H4        1.0  0.81533  0.73165  0.40462  1.0000
  H   H5        1.0  0.33825  0.60046  0.70958  1.0000
  H   H6        1.0  0.16175  0.10047  0.79043  1.0000
  H   H7        1.0  0.66175  0.39954  0.29043  1.0000
  H   H8        1.0  0.83825  0.89953  0.20957  1.0000
  H   H9        1.0  0.33260  0.35267  0.81489  1.0000
  H   H10       1.0  0.16740  0.85267  0.68511  1.0000
  H   H11       1.0  0.66740  0.64733  0.18511  1.0000
  H   H12       1.0  0.83260  0.14733  0.31489  1.0000
  H   H13       1.0  0.31970  0.85404  0.11262  1.0000
  H   H14       1.0  0.18030  0.35404  0.38737  1.0000
  H   H15       1.0  0.68030  0.14596  0.88738  1.0000
  H   H16       1.0  0.81970  0.64596  0.61262  1.0000
  H   H17       1.0  0.44013  0.96716  0.07190  1.0000
  H   H18       1.0  0.05987  0.46716  0.42809  1.0000
  H   H19       1.0  0.55987  0.03284  0.92809  1.0000
  H   H20       1.0  0.94013  0.53284  0.57190  1.0000
  H   H21       1.0  0.25516  0.96086  0.97297  1.0000
  H   H22       1.0  0.24484  0.46086  0.52704  1.0000
  H   H23       1.0  0.74484  0.03914  0.02704  1.0000
  H   H24       1.0  0.75516  0.53914  0.47296  1.0000
  H   H25       1.0  0.46574  0.10624  0.44321  1.0000
  H   H26       1.0  0.03426  0.60624  0.05679  1.0000
  H   H27       1.0  0.53426  0.89376  0.55679  1.0000
  H   H28       1.0  0.96574  0.39376  0.94321  1.0000
  H   H29       1.0  0.42712  0.26902  0.37764  1.0000
  H   H30       1.0  0.07288  0.76902  0.12236  1.0000
  H   H31       1.0  0.57288  0.73098  0.62235  1.0000
  H   H32       1.0  0.92712  0.23098  0.87765  1.0000
  H   H33       1.0  0.54881  0.16659  0.32702  1.0000
  H   H34       1.0  0.95119  0.66659  0.17298  1.0000
  H   H35       1.0  0.45119  0.83341  0.67298  1.0000
  H   H36       1.0  0.04881  0.33341  0.82702  1.0000
  H   H37       1.0  0.01516  0.08275  0.23028  1.0000
  H   H38       1.0  0.48484  0.58274  0.26972  1.0000
  H   H39       1.0  0.98484  0.91726  0.76972  1.0000
  H   H40       1.0  0.51516  0.41726  0.73028  1.0000
  H   H41       1.0  0.99202  0.11663  0.06028  1.0000
  H   H42       1.0  0.50799  0.61662  0.43972  1.0000
  H   H43       1.0  0.00799  0.88337  0.93972  1.0000
  H   H44       1.0  0.49201  0.38338  0.56028  1.0000
  H   H45       1.0  0.04058  0.24641  0.17845  1.0000
  H   H46       1.0  0.45943  0.74640  0.32156  1.0000
  H   H47       1.0  0.95943  0.75359  0.82155  1.0000
  H   H48       1.0  0.54058  0.25359  0.67845  1.0000
  C   C1        1.0  0.28919  0.37122  0.07885  1.0000
  C   C2        1.0  0.21082  0.87122  0.42115  1.0000
  C   C3        1.0  0.71081  0.62879  0.92114  1.0000
  C   C4        1.0  0.78919  0.12879  0.57886  1.0000
  C   C5        1.0  0.30673  0.46473  0.98044  1.0000
  C   C6        1.0  0.19327  0.96473  0.51956  1.0000
  C   C7        1.0  0.69327  0.53527  0.01956  1.0000
  C   C8        1.0  0.80673  0.03527  0.48044  1.0000
  C   C9        1.0  0.31422  0.66215  0.89776  1.0000
  C   C10       1.0  0.18578  0.16215  0.60224  1.0000
  C   C11       1.0  0.68578  0.33785  0.10224  1.0000
  C   C12       1.0  0.81422  0.83785  0.39776  1.0000
  C   C13       1.0  0.32727  0.57480  0.80456  1.0000
  C   C14       1.0  0.17274  0.07480  0.69544  1.0000
  C   C15       1.0  0.67273  0.42520  0.19543  1.0000
  C   C16       1.0  0.82727  0.92520  0.30457  1.0000
  C   C17       1.0  0.32332  0.44717  0.85843  1.0000
  C   C18       1.0  0.17667  0.94717  0.64157  1.0000
  C   C19       1.0  0.67668  0.55284  0.14158  1.0000
  C   C20       1.0  0.82333  0.05283  0.35843  1.0000
  C   C21       1.0  0.32947  0.95164  0.07323  1.0000
  C   C22       1.0  0.17053  0.45164  0.42677  1.0000
  C   C23       1.0  0.67053  0.04836  0.92677  1.0000
  C   C24       1.0  0.82947  0.54836  0.57323  1.0000
  C   C25       1.0  0.45091  0.16809  0.35632  1.0000
  C   C26       1.0  0.04909  0.66809  0.14368  1.0000
  C   C27       1.0  0.54909  0.83192  0.64368  1.0000
  C   C28       1.0  0.95091  0.33191  0.85632  1.0000
  C   C29       1.0  0.05276  0.14150  0.16201  1.0000
  C   C30       1.0  0.44724  0.64150  0.33799  1.0000
  C   C31       1.0  0.94724  0.85850  0.83799  1.0000
  C   C32       1.0  0.55276  0.35850  0.66201  1.0000
  O   O1        1.0  0.30437  0.24933  0.05288  1.0000
  O   O2        1.0  0.19563  0.74933  0.44712  1.0000
  O   O3        1.0  0.69563  0.75066  0.94712  1.0000
  O   O4        1.0  0.80437  0.25066  0.55288  1.0000
  O   O5        1.0  0.24067  0.90942  0.31980  1.0000
  O   O6        1.0  0.25933  0.40942  0.18021  1.0000
  O   O7        1.0  0.75933  0.09058  0.68020  1.0000
  O   O8        1.0  0.74067  0.59058  0.81980  1.0000
  O   O9        1.0  0.30073  0.59737  0.00503  1.0000
  O   O10       1.0  0.19927  0.09737  0.49497  1.0000
  O   O11       1.0  0.69927  0.40264  0.99497  1.0000
  O   O12       1.0  0.80073  0.90264  0.50503  1.0000
