data_image0
_chemical_formula_structural       Cu2H36C46N20O8
_chemical_formula_sum              "Cu2 H36 C46 N20 O8"
_cell_length_a       8.73624
_cell_length_b       10.2636
_cell_length_c       13.6229
_cell_angle_alpha    72.6166
_cell_angle_beta     78.426
_cell_angle_gamma    81.8269

_space_group_name_H-M_alt    "P 1"
_space_group_IT_number       1

loop_
  _space_group_symop_operation_xyz
  'x, y, z'

loop_
  _atom_site_type_symbol
  _atom_site_label
  _atom_site_symmetry_multiplicity
  _atom_site_fract_x
  _atom_site_fract_y
  _atom_site_fract_z
  _atom_site_occupancy
  Cu  Cu1       1.0  0.82128  0.36505  0.55205  1.0000
  Cu  Cu2       1.0  0.17872  0.63495  0.44795  1.0000
  H   H1        1.0  0.71808  0.41355  0.76039  1.0000
  H   H2        1.0  0.28192  0.58646  0.23961  1.0000
  H   H3        1.0  0.80809  0.33406  0.93427  1.0000
  H   H4        1.0  0.19191  0.66594  0.06573  1.0000
  H   H5        1.0  0.17573  0.07531  0.80386  1.0000
  H   H6        1.0  0.82426  0.92468  0.19614  1.0000
  H   H7        1.0  0.06857  0.16411  0.63586  1.0000
  H   H8        1.0  0.93143  0.83590  0.36414  1.0000
  H   H9        1.0  0.05402  0.70878  0.63996  1.0000
  H   H10       1.0  0.94597  0.29122  0.36004  1.0000
  H   H11       1.0  0.10039  0.63737  0.82543  1.0000
  H   H12       1.0  0.89962  0.36263  0.17457  1.0000
  H   H13       1.0  0.44897  0.32570  0.74238  1.0000
  H   H14       1.0  0.55102  0.67429  0.25761  1.0000
  H   H15       1.0  0.38924  0.40884  0.56484  1.0000
  H   H16       1.0  0.61075  0.59116  0.43516  1.0000
  H   H17       1.0  0.38796  0.07528  0.64780  1.0000
  H   H18       1.0  0.61204  0.92471  0.35221  1.0000
  H   H19       1.0  0.28004  0.85187  0.67085  1.0000
  H   H20       1.0  0.71996  0.14812  0.32914  1.0000
  H   H21       1.0  0.46471  0.65469  0.63533  1.0000
  H   H22       1.0  0.53530  0.34530  0.36467  1.0000
  H   H23       1.0  0.85147  0.90440  0.55022  1.0000
  H   H24       1.0  0.14854  0.09560  0.44979  1.0000
  H   H25       1.0  0.34053  0.90471  0.15242  1.0000
  H   H26       1.0  0.65947  0.09530  0.84758  1.0000
  H   H27       1.0  0.28154  0.01623  0.23361  1.0000
  H   H28       1.0  0.71845  0.98377  0.76639  1.0000
  H   H29       1.0  0.56614  0.00927  0.15704  1.0000
  H   H30       1.0  0.43386  0.99074  0.84297  1.0000
  H   H31       1.0  0.52339  0.07225  0.03028  1.0000
  H   H32       1.0  0.47661  0.92775  0.96972  1.0000
  H   H33       1.0  0.60863  0.24610  0.10111  1.0000
  H   H34       1.0  0.39137  0.75390  0.89889  1.0000
  H   H35       1.0  0.43108  0.23573  0.19264  1.0000
  H   H36       1.0  0.56891  0.76427  0.80736  1.0000
  C   C1        1.0  0.81740  0.33736  0.77430  1.0000
  C   C2        1.0  0.18260  0.66265  0.22570  1.0000
  C   C3        1.0  0.86707  0.29250  0.87045  1.0000
  C   C4        1.0  0.13293  0.70750  0.12955  1.0000
  C   C5        1.0  0.99937  0.19820  0.88292  1.0000
  C   C6        1.0  0.00063  0.80180  0.11708  1.0000
  C   C7        1.0  0.07371  0.14987  0.79773  1.0000
  C   C8        1.0  0.92629  0.85013  0.20227  1.0000
  C   C9        1.0  0.01528  0.19808  0.70445  1.0000
  C   C10       1.0  0.98471  0.80192  0.29555  1.0000
  C   C11       1.0  0.05741  0.15701  0.98201  1.0000
  C   C12       1.0  0.94259  0.84299  0.01799  1.0000
  C   C13       1.0  0.13912  0.62396  0.66747  1.0000
  C   C14       1.0  0.86088  0.37605  0.33253  1.0000
  C   C15       1.0  0.16554  0.58382  0.76989  1.0000
  C   C16       1.0  0.83446  0.41618  0.23011  1.0000
  C   C17       1.0  0.27948  0.47542  0.79971  1.0000
  C   C18       1.0  0.72052  0.52458  0.20029  1.0000
  C   C19       1.0  0.35917  0.41015  0.72518  1.0000
  C   C20       1.0  0.64082  0.58985  0.27482  1.0000
  C   C21       1.0  0.32586  0.45643  0.62431  1.0000
  C   C22       1.0  0.67413  0.54357  0.37569  1.0000
  C   C23       1.0  0.67849  0.13996  0.58909  1.0000
  C   C24       1.0  0.32151  0.86004  0.41092  1.0000
  C   C25       1.0  0.62481  0.00232  0.60023  1.0000
  C   C26       1.0  0.37520  0.99768  0.39978  1.0000
  C   C27       1.0  0.46411  0.98663  0.63384  1.0000
  C   C28       1.0  0.53589  0.01336  0.36617  1.0000
  C   C29       1.0  0.40528  0.86262  0.64639  1.0000
  C   C30       1.0  0.59473  0.13737  0.35362  1.0000
  C   C31       1.0  0.50726  0.75272  0.62615  1.0000
  C   C32       1.0  0.49275  0.24727  0.37386  1.0000
  C   C33       1.0  0.66799  0.76669  0.59174  1.0000
  C   C34       1.0  0.33202  0.23331  0.40827  1.0000
  C   C35       1.0  0.72681  0.89233  0.57842  1.0000
  C   C36       1.0  0.27320  0.10767  0.42159  1.0000
  C   C37       1.0  0.32520  0.01244  0.15330  1.0000
  C   C38       1.0  0.67480  0.98756  0.84670  1.0000
  C   C39       1.0  0.48117  0.07598  0.11072  1.0000
  C   C40       1.0  0.51883  0.92402  0.88928  1.0000
  C   C41       1.0  0.48610  0.22122  0.11648  1.0000
  C   C42       1.0  0.51390  0.77879  0.88352  1.0000
  C   C43       1.0  0.77556  0.64873  0.56497  1.0000
  C   C44       1.0  0.22445  0.35126  0.43504  1.0000
  C   C45       1.0  0.31498  0.43260  0.90554  1.0000
  C   C46       1.0  0.68502  0.56741  0.09446  1.0000
  N   N1        1.0  0.89073  0.29201  0.69221  1.0000
  N   N2        1.0  0.10927  0.70800  0.30779  1.0000
  N   N3        1.0  0.21849  0.56197  0.59532  1.0000
  N   N4        1.0  0.78150  0.43803  0.40468  1.0000
  N   N5        1.0  0.19544  0.08500  0.99825  1.0000
  N   N6        1.0  0.80456  0.91500  0.00175  1.0000
  N   N7        1.0  0.19803  0.08062  0.09625  1.0000
  N   N8        1.0  0.80197  0.91938  0.90375  1.0000
  N   N9        1.0  0.06984  0.14387  0.14067  1.0000
  N   N10       1.0  0.93015  0.85613  0.85932  1.0000
  N   N11       1.0  0.97963  0.19244  0.06911  1.0000
  N   N12       1.0  0.02037  0.80756  0.93088  1.0000
  N   N13       1.0  0.40290  0.32350  0.04046  1.0000
  N   N14       1.0  0.59710  0.67650  0.95953  1.0000
  N   N15       1.0  0.30578  0.42583  0.06590  1.0000
  N   N16       1.0  0.69422  0.57418  0.93409  1.0000
  N   N17       1.0  0.41394  0.32349  0.94191  1.0000
  N   N18       1.0  0.58606  0.67651  0.05809  1.0000
  N   N19       1.0  0.24947  0.49600  0.98082  1.0000
  N   N20       1.0  0.75054  0.50401  0.01917  1.0000
  O   O1        1.0  0.82043  0.16431  0.54452  1.0000
  O   O2        1.0  0.17957  0.83568  0.45549  1.0000
  O   O3        1.0  0.58268  0.22513  0.62503  1.0000
  O   O4        1.0  0.41731  0.77488  0.37496  1.0000
  O   O5        1.0  0.91285  0.66996  0.51953  1.0000
  O   O6        1.0  0.08716  0.33003  0.48049  1.0000
  O   O7        1.0  0.71403  0.53343  0.59016  1.0000
  O   O8        1.0  0.28597  0.46657  0.40983  1.0000
