data_image0
_chemical_formula_structural       Cu6H8C16N44O4
_chemical_formula_sum              "Cu6 H8 C16 N44 O4"
_cell_length_a       8.63311
_cell_length_b       8.63619
_cell_length_c       12.7204
_cell_angle_alpha    90.5708
_cell_angle_beta     90.0202
_cell_angle_gamma    90.0291

_space_group_name_H-M_alt    "P 1"
_space_group_IT_number       1

loop_
  _space_group_symop_operation_xyz
  'x, y, z'

loop_
  _atom_site_type_symbol
  _atom_site_label
  _atom_site_symmetry_multiplicity
  _atom_site_fract_x
  _atom_site_fract_y
  _atom_site_fract_z
  _atom_site_occupancy
  Cu  Cu1       1.0  0.99993  0.00026  0.50002  1.0000
  Cu  Cu2       1.0  0.49995  0.99998  0.99998  1.0000
  Cu  Cu3       1.0  0.53928  0.35872  0.87812  1.0000
  Cu  Cu4       1.0  0.03946  0.64102  0.62163  1.0000
  Cu  Cu5       1.0  0.46079  0.64135  0.12188  1.0000
  Cu  Cu6       1.0  0.96056  0.35896  0.37833  1.0000
  H   H1        1.0  0.22611  0.11293  0.39629  1.0000
  H   H2        1.0  0.72589  0.88707  0.10378  1.0000
  H   H3        1.0  0.77416  0.88677  0.60378  1.0000
  H   H4        1.0  0.27415  0.11300  0.89623  1.0000
  H   H5        1.0  0.21988  0.22375  0.50528  1.0000
  H   H6        1.0  0.71949  0.77653  0.99465  1.0000
  H   H7        1.0  0.78043  0.77632  0.49470  1.0000
  H   H8        1.0  0.28050  0.22349  0.00540  1.0000
  C   C1        1.0  0.83527  0.50699  0.77073  1.0000
  C   C2        1.0  0.33521  0.49300  0.72930  1.0000
  C   C3        1.0  0.16473  0.49286  0.22916  1.0000
  C   C4        1.0  0.66463  0.50706  0.27082  1.0000
  C   C5        1.0  0.83027  0.39805  0.68476  1.0000
  C   C6        1.0  0.33030  0.60183  0.81530  1.0000
  C   C7        1.0  0.16968  0.60179  0.31513  1.0000
  C   C8        1.0  0.66966  0.39825  0.18479  1.0000
  C   C9        1.0  0.78495  0.24523  0.66419  1.0000
  C   C10       1.0  0.28519  0.75469  0.83558  1.0000
  C   C11       1.0  0.21504  0.75460  0.33575  1.0000
  C   C12       1.0  0.71490  0.24544  0.16445  1.0000
  C   C13       1.0  0.71087  0.13245  0.73060  1.0000
  C   C14       1.0  0.21121  0.86742  0.76914  1.0000
  C   C15       1.0  0.28901  0.86742  0.26933  1.0000
  C   C16       1.0  0.78898  0.13271  0.23087  1.0000
  N   N1        1.0  0.83004  0.21051  0.56396  1.0000
  N   N2        1.0  0.33004  0.78951  0.93584  1.0000
  N   N3        1.0  0.17001  0.78928  0.43598  1.0000
  N   N4        1.0  0.67004  0.21064  0.06417  1.0000
  N   N5        1.0  0.89887  0.33573  0.52653  1.0000
  N   N6        1.0  0.39846  0.66469  0.97371  1.0000
  N   N7        1.0  0.10113  0.66409  0.47338  1.0000
  N   N8        1.0  0.60154  0.33545  0.02634  1.0000
  N   N9        1.0  0.90126  0.44970  0.59649  1.0000
  N   N10       1.0  0.40113  0.55011  0.90363  1.0000
  N   N11       1.0  0.09864  0.55016  0.40338  1.0000
  N   N12       1.0  0.59881  0.44998  0.09646  1.0000
  N   N13       1.0  0.93649  0.62551  0.76188  1.0000
  N   N14       1.0  0.43622  0.37443  0.73815  1.0000
  N   N15       1.0  0.06356  0.37427  0.23803  1.0000
  N   N16       1.0  0.56361  0.62561  0.26190  1.0000
  N   N17       1.0  0.91757  0.71595  0.84691  1.0000
  N   N18       1.0  0.41730  0.28418  0.65299  1.0000
  N   N19       1.0  0.08247  0.28383  0.15304  1.0000
  N   N20       1.0  0.58245  0.71592  0.34701  1.0000
  N   N21       1.0  0.80863  0.65363  0.90499  1.0000
  N   N22       1.0  0.30856  0.34676  0.59489  1.0000
  N   N23       1.0  0.19139  0.34622  0.09493  1.0000
  N   N24       1.0  0.69118  0.65342  0.40518  1.0000
  N   N25       1.0  0.75370  0.52177  0.85895  1.0000
  N   N26       1.0  0.25375  0.47853  0.64098  1.0000
  N   N27       1.0  0.24628  0.47809  0.14094  1.0000
  N   N28       1.0  0.74604  0.52163  0.35916  1.0000
  N   N29       1.0  0.64533  0.16231  0.82482  1.0000
  N   N30       1.0  0.14533  0.83757  0.67498  1.0000
  N   N31       1.0  0.35465  0.83761  0.17515  1.0000
  N   N32       1.0  0.85495  0.16255  0.32503  1.0000
  N   N33       1.0  0.59457  0.02404  0.85828  1.0000
  N   N34       1.0  0.09449  0.97589  0.64164  1.0000
  N   N35       1.0  0.40530  0.97594  0.14169  1.0000
  N   N36       1.0  0.90567  0.02450  0.35843  1.0000
  N   N37       1.0  0.62592  0.91473  0.78904  1.0000
  N   N38       1.0  0.12609  0.08512  0.71087  1.0000
  N   N39       1.0  0.37377  0.08522  0.21092  1.0000
  N   N40       1.0  0.87401  0.91506  0.28926  1.0000
  N   N41       1.0  0.69904  0.97982  0.70815  1.0000
  N   N42       1.0  0.19950  0.02004  0.79166  1.0000
  N   N43       1.0  0.30065  0.02007  0.29177  1.0000
  N   N44       1.0  0.80062  0.98007  0.20845  1.0000
  O   O1        1.0  0.15739  0.16055  0.45304  1.0000
  O   O2        1.0  0.65695  0.83950  0.04703  1.0000
  O   O3        1.0  0.84307  0.83932  0.54704  1.0000
  O   O4        1.0  0.34310  0.16058  0.95300  1.0000
