data_image0
_chemical_formula_structural       Cu4H32C40S2N8O8
_chemical_formula_sum              "Cu4 H32 C40 S2 N8 O8"
_cell_length_a       9.60727
_cell_length_b       9.61067
_cell_length_c       13.9468
_cell_angle_alpha    99.6025
_cell_angle_beta     99.574
_cell_angle_gamma    112.888

_space_group_name_H-M_alt    "P 1"
_space_group_IT_number       1

loop_
  _space_group_symop_operation_xyz
  'x, y, z'

loop_
  _atom_site_type_symbol
  _atom_site_label
  _atom_site_symmetry_multiplicity
  _atom_site_fract_x
  _atom_site_fract_y
  _atom_site_fract_z
  _atom_site_occupancy
  Cu  Cu1       1.0  0.04714  0.12636  0.68887  1.0000
  Cu  Cu2       1.0  0.87365  0.95283  0.81113  1.0000
  Cu  Cu3       1.0  0.95285  0.87366  0.31113  1.0000
  Cu  Cu4       1.0  0.12637  0.04716  0.18887  1.0000
  H   H1        1.0  0.12826  0.43860  0.79732  1.0000
  H   H2        1.0  0.56135  0.87162  0.70269  1.0000
  H   H3        1.0  0.87174  0.56145  0.20265  1.0000
  H   H4        1.0  0.43867  0.12838  0.29731  1.0000
  H   H5        1.0  0.37085  0.66824  0.89959  1.0000
  H   H6        1.0  0.33169  0.62905  0.60042  1.0000
  H   H7        1.0  0.62917  0.33180  0.10039  1.0000
  H   H8        1.0  0.66833  0.37095  0.39958  1.0000
  H   H9        1.0  0.61800  0.37793  0.85451  1.0000
  H   H10       1.0  0.62209  0.38203  0.64554  1.0000
  H   H11       1.0  0.38198  0.62206  0.14551  1.0000
  H   H12       1.0  0.37791  0.61795  0.35447  1.0000
  H   H13       1.0  0.36931  0.16562  0.75653  1.0000
  H   H14       1.0  0.83443  0.63070  0.74350  1.0000
  H   H15       1.0  0.63066  0.83438  0.24349  1.0000
  H   H16       1.0  0.16558  0.36928  0.25650  1.0000
  H   H17       1.0  0.82825  0.05164  0.09307  1.0000
  H   H18       1.0  0.94828  0.17170  0.40694  1.0000
  H   H19       1.0  0.17176  0.94836  0.90693  1.0000
  H   H20       1.0  0.05172  0.82832  0.59306  1.0000
  H   H21       1.0  0.58061  0.85311  0.97781  1.0000
  H   H22       1.0  0.14677  0.41929  0.52224  1.0000
  H   H23       1.0  0.41940  0.14689  0.02220  1.0000
  H   H24       1.0  0.85325  0.58072  0.47777  1.0000
  H   H25       1.0  0.81144  0.54708  0.93580  1.0000
  H   H26       1.0  0.45295  0.18862  0.56420  1.0000
  H   H27       1.0  0.18855  0.45293  0.06418  1.0000
  H   H28       1.0  0.54703  0.81136  0.43580  1.0000
  H   H29       1.0  0.04659  0.75662  0.05809  1.0000
  H   H30       1.0  0.24341  0.95348  0.44190  1.0000
  H   H31       1.0  0.95340  0.24337  0.94190  1.0000
  H   H32       1.0  0.75657  0.04651  0.55810  1.0000
  C   C1        1.0  0.24080  0.43282  0.81264  1.0000
  C   C2        1.0  0.56715  0.75911  0.68738  1.0000
  C   C3        1.0  0.75920  0.56721  0.18735  1.0000
  C   C4        1.0  0.43287  0.24088  0.31262  1.0000
  C   C5        1.0  0.37767  0.55964  0.86946  1.0000
  C   C6        1.0  0.44032  0.62225  0.63056  1.0000
  C   C7        1.0  0.62235  0.44040  0.13053  1.0000
  C   C8        1.0  0.55969  0.37774  0.36944  1.0000
  C   C9        1.0  0.51954  0.54585  0.88838  1.0000
  C   C10       1.0  0.45412  0.48042  0.61165  1.0000
  C   C11       1.0  0.48046  0.45416  0.11162  1.0000
  C   C12       1.0  0.54589  0.51957  0.38835  1.0000
  C   C13       1.0  0.51344  0.39913  0.84728  1.0000
  C   C14       1.0  0.60089  0.48655  0.65275  1.0000
  C   C15       1.0  0.48654  0.60087  0.15273  1.0000
  C   C16       1.0  0.39912  0.51343  0.34725  1.0000
  C   C17       1.0  0.37292  0.27783  0.79079  1.0000
  C   C18       1.0  0.72219  0.62706  0.70924  1.0000
  C   C19       1.0  0.62706  0.72218  0.20923  1.0000
  C   C20       1.0  0.27782  0.37292  0.29076  1.0000
  C   C21       1.0  0.81808  0.93682  0.05808  1.0000
  C   C22       1.0  0.06312  0.18189  0.44192  1.0000
  C   C23       1.0  0.18193  0.06318  0.94192  1.0000
  C   C24       1.0  0.93688  0.81812  0.55808  1.0000
  C   C25       1.0  0.67952  0.82410  0.99278  1.0000
  C   C26       1.0  0.17584  0.32044  0.50725  1.0000
  C   C27       1.0  0.32049  0.17590  0.00722  1.0000
  C   C28       1.0  0.82417  0.67957  0.49276  1.0000
  C   C29       1.0  0.66807  0.67561  0.94975  1.0000
  C   C30       1.0  0.32436  0.33192  0.55026  1.0000
  C   C31       1.0  0.33193  0.32440  0.05024  1.0000
  C   C32       1.0  0.67565  0.66808  0.44974  1.0000
  C   C33       1.0  0.80632  0.65509  0.97002  1.0000
  C   C34       1.0  0.34493  0.19373  0.52998  1.0000
  C   C35       1.0  0.19369  0.34492  0.02997  1.0000
  C   C36       1.0  0.65506  0.80626  0.47002  1.0000
  C   C37       1.0  0.94046  0.77269  0.03654  1.0000
  C   C38       1.0  0.22733  0.05959  0.46346  1.0000
  C   C39       1.0  0.05954  0.22730  0.96345  1.0000
  C   C40       1.0  0.77266  0.94040  0.53654  1.0000
  S   S1        1.0  0.77257  0.22739  0.75003  1.0000
  S   S2        1.0  0.22741  0.77259  0.24997  1.0000
  N   N1        1.0  0.23705  0.29226  0.77281  1.0000
  N   N2        1.0  0.70773  0.76290  0.72720  1.0000
  N   N3        1.0  0.76294  0.70776  0.22718  1.0000
  N   N4        1.0  0.29229  0.23709  0.27280  1.0000
  N   N5        1.0  0.94652  0.91103  0.08359  1.0000
  N   N6        1.0  0.08896  0.05351  0.41641  1.0000
  N   N7        1.0  0.05347  0.08895  0.91640  1.0000
  N   N8        1.0  0.91104  0.94651  0.58360  1.0000
  O   O1        1.0  0.89899  0.24548  0.69528  1.0000
  O   O2        1.0  0.75448  0.10088  0.80463  1.0000
  O   O3        1.0  0.10099  0.75451  0.30472  1.0000
  O   O4        1.0  0.24551  0.89909  0.19536  1.0000
  O   O5        1.0  0.81980  0.37785  0.82446  1.0000
  O   O6        1.0  0.62201  0.18031  0.67573  1.0000
  O   O7        1.0  0.18017  0.62213  0.17555  1.0000
  O   O8        1.0  0.37796  0.81966  0.32427  1.0000
