data_image0
_chemical_formula_structural       Zn2H40C32N8O8
_chemical_formula_sum              "Zn2 H40 C32 N8 O8"
_cell_length_a       7.78692
_cell_length_b       10.207
_cell_length_c       11.7575
_cell_angle_alpha    116.567
_cell_angle_beta     90.0002
_cell_angle_gamma    89.9996

_space_group_name_H-M_alt    "P 1"
_space_group_IT_number       1

loop_
  _space_group_symop_operation_xyz
  'x, y, z'

loop_
  _atom_site_type_symbol
  _atom_site_label
  _atom_site_symmetry_multiplicity
  _atom_site_fract_x
  _atom_site_fract_y
  _atom_site_fract_z
  _atom_site_occupancy
  Zn  Zn1       1.0  0.75371  0.17014  0.78034  1.0000
  Zn  Zn2       1.0  0.25370  0.82986  0.21966  1.0000
  H   H1        1.0  0.12587  0.21361  0.66975  1.0000
  H   H2        1.0  0.62587  0.78639  0.33025  1.0000
  H   H3        1.0  0.02604  0.18990  0.16969  1.0000
  H   H4        1.0  0.52603  0.81010  0.83032  1.0000
  H   H5        1.0  0.99250  0.73192  0.50090  1.0000
  H   H6        1.0  0.49250  0.26808  0.49911  1.0000
  H   H7        1.0  0.09777  0.47386  0.41045  1.0000
  H   H8        1.0  0.59777  0.52615  0.58955  1.0000
  H   H9        1.0  0.04427  0.32283  0.52386  1.0000
  H   H10       1.0  0.54427  0.67717  0.47613  1.0000
  H   H11       1.0  0.78229  0.68548  0.81870  1.0000
  H   H12       1.0  0.28229  0.31452  0.18129  1.0000
  H   H13       1.0  0.51825  0.43054  0.84119  1.0000
  H   H14       1.0  0.01825  0.56946  0.15881  1.0000
  H   H15       1.0  0.29921  0.42752  0.88323  1.0000
  H   H16       1.0  0.79920  0.57248  0.11677  1.0000
  H   H17       1.0  0.35093  0.44869  0.74524  1.0000
  H   H18       1.0  0.85093  0.55131  0.25477  1.0000
  H   H19       1.0  0.53230  0.94371  0.54566  1.0000
  H   H20       1.0  0.03230  0.05629  0.45434  1.0000
  H   H21       1.0  0.46998  0.92288  0.68161  1.0000
  H   H22       1.0  0.96998  0.07712  0.31839  1.0000
  H   H23       1.0  0.17284  0.95869  0.64395  1.0000
  H   H24       1.0  0.67284  0.04131  0.35605  1.0000
  H   H25       1.0  0.24133  0.95414  0.49798  1.0000
  H   H26       1.0  0.74133  0.04586  0.50202  1.0000
  H   H27       1.0  0.10326  0.16483  0.85242  1.0000
  H   H28       1.0  0.60325  0.83517  0.14758  1.0000
  H   H29       1.0  0.19270  0.12067  0.97157  1.0000
  H   H30       1.0  0.69270  0.87933  0.02843  1.0000
  H   H31       1.0  0.18332  0.30580  0.99903  1.0000
  H   H32       1.0  0.68332  0.69420  0.00097  1.0000
  H   H33       1.0  0.71708  0.32442  0.25644  1.0000
  H   H34       1.0  0.21708  0.67558  0.74356  1.0000
  H   H35       1.0  0.71287  0.13030  0.17453  1.0000
  H   H36       1.0  0.21286  0.86970  0.82547  1.0000
  H   H37       1.0  0.56379  0.14868  0.00328  1.0000
  H   H38       1.0  0.06379  0.85132  0.99672  1.0000
  H   H39       1.0  0.58993  0.34188  0.07795  1.0000
  H   H40       1.0  0.08993  0.65812  0.92204  1.0000
  C   C1        1.0  0.80705  0.87775  0.72270  1.0000
  C   C2        1.0  0.30705  0.12225  0.27730  1.0000
  C   C3        1.0  0.87985  0.72551  0.66585  1.0000
  C   C4        1.0  0.37985  0.27448  0.33414  1.0000
  C   C5        1.0  0.97024  0.66532  0.55058  1.0000
  C   C6        1.0  0.47024  0.33467  0.44942  1.0000
  C   C7        1.0  0.02872  0.52093  0.50042  1.0000
  C   C8        1.0  0.52871  0.47907  0.49958  1.0000
  C   C9        1.0  0.99954  0.43584  0.56434  1.0000
  C   C10       1.0  0.49954  0.56416  0.43566  1.0000
  C   C11       1.0  0.91126  0.49573  0.68058  1.0000
  C   C12       1.0  0.41126  0.50427  0.31942  1.0000
  C   C13       1.0  0.85234  0.64003  0.72946  1.0000
  C   C14       1.0  0.35234  0.35997  0.27054  1.0000
  C   C15       1.0  0.86512  0.40988  0.75203  1.0000
  C   C16       1.0  0.36512  0.59013  0.24798  1.0000
  C   C17       1.0  0.38937  0.39389  0.80311  1.0000
  C   C18       1.0  0.88936  0.60611  0.19688  1.0000
  C   C19       1.0  0.38503  0.23205  0.72508  1.0000
  C   C20       1.0  0.88503  0.76795  0.27492  1.0000
  C   C21       1.0  0.45343  0.99086  0.63202  1.0000
  C   C22       1.0  0.95343  0.00914  0.36797  1.0000
  C   C23       1.0  0.26430  0.00547  0.60079  1.0000
  C   C24       1.0  0.76430  0.99453  0.39921  1.0000
  C   C25       1.0  0.11535  0.20017  0.95454  1.0000
  C   C26       1.0  0.61535  0.79983  0.04546  1.0000
  C   C27       1.0  0.94329  0.21614  0.01412  1.0000
  C   C28       1.0  0.44329  0.78386  0.98588  1.0000
  C   C29       1.0  0.74706  0.22992  0.16548  1.0000
  C   C30       1.0  0.24706  0.77008  0.83452  1.0000
  C   C31       1.0  0.65728  0.23744  0.05043  1.0000
  C   C32       1.0  0.15728  0.76255  0.94957  1.0000
  N   N1        1.0  0.51186  0.14238  0.71582  1.0000
  N   N2        1.0  0.01186  0.85761  0.28418  1.0000
  N   N3        1.0  0.24467  0.16485  0.65662  1.0000
  N   N4        1.0  0.74467  0.83515  0.34338  1.0000
  N   N5        1.0  0.79766  0.22257  0.96105  1.0000
  N   N6        1.0  0.29766  0.77743  0.03895  1.0000
  N   N7        1.0  0.92867  0.22857  0.13289  1.0000
  N   N8        1.0  0.42867  0.77143  0.86711  1.0000
  O   O1        1.0  0.86485  0.96706  0.68163  1.0000
  O   O2        1.0  0.36485  0.03294  0.31838  1.0000
  O   O3        1.0  0.69245  0.91085  0.80709  1.0000
  O   O4        1.0  0.19245  0.08914  0.19291  1.0000
  O   O5        1.0  0.89729  0.26946  0.69566  1.0000
  O   O6        1.0  0.39729  0.73055  0.30434  1.0000
  O   O7        1.0  0.79285  0.47264  0.85792  1.0000
  O   O8        1.0  0.29285  0.52735  0.14209  1.0000
