data_image0
_chemical_formula_structural       Sc4H12C12O24
_chemical_formula_sum              "Sc4 H12 C12 O24"
_cell_length_a       6.58832
_cell_length_b       9.00763
_cell_length_c       10.4087
_cell_angle_alpha    98.4468
_cell_angle_beta     89.9994
_cell_angle_gamma    89.9998

_space_group_name_H-M_alt    "P 1"
_space_group_IT_number       1

loop_
  _space_group_symop_operation_xyz
  'x, y, z'

loop_
  _atom_site_type_symbol
  _atom_site_label
  _atom_site_symmetry_multiplicity
  _atom_site_fract_x
  _atom_site_fract_y
  _atom_site_fract_z
  _atom_site_occupancy
  Sc  Sc1       1.0  0.99998  0.00001  0.00001  1.0000
  Sc  Sc2       1.0  0.49999  0.49999  0.99999  1.0000
  Sc  Sc3       1.0  0.50000  0.99999  0.49999  1.0000
  Sc  Sc4       1.0  0.00001  0.50000  0.50000  1.0000
  H   H1        1.0  0.05122  0.36202  0.12540  1.0000
  H   H2        1.0  0.55121  0.13797  0.87460  1.0000
  H   H3        1.0  0.94878  0.63799  0.87460  1.0000
  H   H4        1.0  0.44877  0.86199  0.12539  1.0000
  H   H5        1.0  0.23981  0.21624  0.31735  1.0000
  H   H6        1.0  0.73983  0.28375  0.68266  1.0000
  H   H7        1.0  0.76019  0.78375  0.68265  1.0000
  H   H8        1.0  0.26022  0.71625  0.31737  1.0000
  H   H9        1.0  0.15566  0.29840  0.74738  1.0000
  H   H10       1.0  0.65564  0.20162  0.25263  1.0000
  H   H11       1.0  0.84438  0.70162  0.25262  1.0000
  H   H12       1.0  0.34435  0.79840  0.74738  1.0000
  C   C1        1.0  0.91524  0.34609  0.06321  1.0000
  C   C2        1.0  0.41524  0.15391  0.93679  1.0000
  C   C3        1.0  0.08475  0.65393  0.93680  1.0000
  C   C4        1.0  0.58474  0.84606  0.06319  1.0000
  C   C5        1.0  0.20536  0.09619  0.28703  1.0000
  C   C6        1.0  0.70537  0.40380  0.71297  1.0000
  C   C7        1.0  0.79463  0.90381  0.71297  1.0000
  C   C8        1.0  0.29465  0.59620  0.28703  1.0000
  C   C9        1.0  0.20523  0.25037  0.64838  1.0000
  C   C10       1.0  0.70521  0.24964  0.35163  1.0000
  C   C11       1.0  0.79480  0.74964  0.35162  1.0000
  C   C12       1.0  0.29479  0.75037  0.64838  1.0000
  O   O1        1.0  0.89082  0.22063  0.99169  1.0000
  O   O2        1.0  0.39082  0.27936  0.00832  1.0000
  O   O3        1.0  0.10917  0.77938  0.00833  1.0000
  O   O4        1.0  0.60915  0.72062  0.99165  1.0000
  O   O5        1.0  0.08875  0.06226  0.19086  1.0000
  O   O6        1.0  0.58875  0.43774  0.80913  1.0000
  O   O7        1.0  0.91123  0.93774  0.80915  1.0000
  O   O8        1.0  0.41123  0.56227  0.19085  1.0000
  O   O9        1.0  0.79332  0.45575  0.06779  1.0000
  O   O10       1.0  0.29329  0.04425  0.93221  1.0000
  O   O11       1.0  0.20668  0.54426  0.93221  1.0000
  O   O12       1.0  0.70666  0.95573  0.06778  1.0000
  O   O13       1.0  0.28238  0.00023  0.35056  1.0000
  O   O14       1.0  0.78239  0.49977  0.64944  1.0000
  O   O15       1.0  0.71761  0.99977  0.64944  1.0000
  O   O16       1.0  0.21762  0.50023  0.35055  1.0000
  O   O17       1.0  0.32210  0.13803  0.63808  1.0000
  O   O18       1.0  0.82210  0.36198  0.36192  1.0000
  O   O19       1.0  0.67792  0.86197  0.36192  1.0000
  O   O20       1.0  0.17790  0.63803  0.63808  1.0000
  O   O21       1.0  0.14289  0.31119  0.55323  1.0000
  O   O22       1.0  0.64289  0.18882  0.44678  1.0000
  O   O23       1.0  0.85714  0.68882  0.44677  1.0000
  O   O24       1.0  0.35714  0.81118  0.55323  1.0000
