data_image0
_chemical_formula_structural       Sc2H6C6O12
_chemical_formula_sum              "Sc2 H6 C6 O12"
_cell_length_a       6.81334
_cell_length_b       6.81263
_cell_length_c       6.81261
_cell_angle_alpha    101.445
_cell_angle_beta     101.457
_cell_angle_gamma    101.447

_space_group_name_H-M_alt    "P 1"
_space_group_IT_number       1

loop_
  _space_group_symop_operation_xyz
  'x, y, z'

loop_
  _atom_site_type_symbol
  _atom_site_label
  _atom_site_symmetry_multiplicity
  _atom_site_fract_x
  _atom_site_fract_y
  _atom_site_fract_z
  _atom_site_occupancy
  Sc  Sc1       1.0  0.00016  0.99994  0.00003  1.0000
  Sc  Sc2       1.0  0.49991  0.50015  0.50006  1.0000
  H   H1        1.0  0.42604  0.74991  0.07382  1.0000
  H   H2        1.0  0.07388  0.42619  0.75005  1.0000
  H   H3        1.0  0.74999  0.07383  0.42615  1.0000
  H   H4        1.0  0.57381  0.24992  0.92610  1.0000
  H   H5        1.0  0.92620  0.57389  0.25004  1.0000
  H   H6        1.0  0.24998  0.92609  0.57383  1.0000
  C   C1        1.0  0.53071  0.75001  0.96929  1.0000
  C   C2        1.0  0.96927  0.53071  0.74999  1.0000
  C   C3        1.0  0.75004  0.96933  0.53074  1.0000
  C   C4        1.0  0.46933  0.25001  0.03071  1.0000
  C   C5        1.0  0.03068  0.46930  0.24999  1.0000
  C   C6        1.0  0.25002  0.03074  0.46928  1.0000
  O   O1        1.0  0.70117  0.88541  0.03049  1.0000
  O   O2        1.0  0.03048  0.70115  0.88540  1.0000
  O   O3        1.0  0.46946  0.61456  0.79881  1.0000
  O   O4        1.0  0.88540  0.03043  0.70120  1.0000
  O   O5        1.0  0.79882  0.46956  0.61458  1.0000
  O   O6        1.0  0.61463  0.79886  0.46955  1.0000
  O   O7        1.0  0.29888  0.11460  0.96950  1.0000
  O   O8        1.0  0.96955  0.29885  0.11463  1.0000
  O   O9        1.0  0.53046  0.38539  0.20113  1.0000
  O   O10       1.0  0.11457  0.96950  0.29880  1.0000
  O   O11       1.0  0.20114  0.53050  0.38538  1.0000
  O   O12       1.0  0.38541  0.20119  0.53044  1.0000
