data_image0
_chemical_formula_structural       Na4Ca4H24C24N4O24
_chemical_formula_sum              "Na4 Ca4 H24 C24 N4 O24"
_cell_length_a       9.65794
_cell_length_b       9.65793
_cell_length_c       9.65792
_cell_angle_alpha    90.0003
_cell_angle_beta     90.0003
_cell_angle_gamma    89.9999

_space_group_name_H-M_alt    "P 1"
_space_group_IT_number       1

loop_
  _space_group_symop_operation_xyz
  'x, y, z'

loop_
  _atom_site_type_symbol
  _atom_site_label
  _atom_site_symmetry_multiplicity
  _atom_site_fract_x
  _atom_site_fract_y
  _atom_site_fract_z
  _atom_site_occupancy
  Na  Na1       1.0  0.17088  0.82913  0.32912  1.0000
  Na  Na2       1.0  0.32912  0.17088  0.82912  1.0000
  Na  Na3       1.0  0.82913  0.32912  0.17088  1.0000
  Na  Na4       1.0  0.67088  0.67088  0.67088  1.0000
  Ca  Ca1       1.0  0.16292  0.16292  0.16292  1.0000
  Ca  Ca2       1.0  0.66292  0.33708  0.83708  1.0000
  Ca  Ca3       1.0  0.83708  0.66292  0.33708  1.0000
  Ca  Ca4       1.0  0.33708  0.83708  0.66292  1.0000
  H   H1        1.0  0.66521  0.99719  0.30474  1.0000
  H   H2        1.0  0.30474  0.66521  0.99718  1.0000
  H   H3        1.0  0.99719  0.30474  0.66521  1.0000
  H   H4        1.0  0.16521  0.50281  0.69526  1.0000
  H   H5        1.0  0.80474  0.83479  0.00282  1.0000
  H   H6        1.0  0.49719  0.19526  0.33479  1.0000
  H   H7        1.0  0.33479  0.49718  0.19526  1.0000
  H   H8        1.0  0.69526  0.16521  0.50281  1.0000
  H   H9        1.0  0.00282  0.80474  0.83479  1.0000
  H   H10       1.0  0.83479  0.00282  0.80474  1.0000
  H   H11       1.0  0.19526  0.33479  0.49718  1.0000
  H   H12       1.0  0.50282  0.69526  0.16521  1.0000
  H   H13       1.0  0.68032  0.04009  0.12686  1.0000
  H   H14       1.0  0.12686  0.68032  0.04009  1.0000
  H   H15       1.0  0.04009  0.12686  0.68032  1.0000
  H   H16       1.0  0.18032  0.45991  0.87314  1.0000
  H   H17       1.0  0.62686  0.81968  0.95991  1.0000
  H   H18       1.0  0.54009  0.37314  0.31968  1.0000
  H   H19       1.0  0.31968  0.54009  0.37314  1.0000
  H   H20       1.0  0.87314  0.18032  0.45991  1.0000
  H   H21       1.0  0.95991  0.62686  0.81968  1.0000
  H   H22       1.0  0.81968  0.95991  0.62686  1.0000
  H   H23       1.0  0.37314  0.31968  0.54009  1.0000
  H   H24       1.0  0.45991  0.87314  0.18032  1.0000
  C   C1        1.0  0.71540  0.96638  0.20699  1.0000
  C   C2        1.0  0.20699  0.71541  0.96638  1.0000
  C   C3        1.0  0.96638  0.20699  0.71540  1.0000
  C   C4        1.0  0.21540  0.53362  0.79301  1.0000
  C   C5        1.0  0.70699  0.78460  0.03362  1.0000
  C   C6        1.0  0.46638  0.29301  0.28459  1.0000
  C   C7        1.0  0.28460  0.46638  0.29301  1.0000
  C   C8        1.0  0.79301  0.21540  0.53362  1.0000
  C   C9        1.0  0.03362  0.70699  0.78460  1.0000
  C   C10       1.0  0.78459  0.03362  0.70699  1.0000
  C   C11       1.0  0.29301  0.28459  0.46638  1.0000
  C   C12       1.0  0.53362  0.79301  0.21540  1.0000
  C   C13       1.0  0.87178  0.98288  0.23097  1.0000
  C   C14       1.0  0.23097  0.87179  0.98288  1.0000
  C   C15       1.0  0.98287  0.23097  0.87178  1.0000
  C   C16       1.0  0.37178  0.51712  0.76903  1.0000
  C   C17       1.0  0.73096  0.62822  0.01713  1.0000
  C   C18       1.0  0.48287  0.26903  0.12822  1.0000
  C   C19       1.0  0.12822  0.48287  0.26903  1.0000
  C   C20       1.0  0.76903  0.37178  0.51713  1.0000
  C   C21       1.0  0.01712  0.73096  0.62822  1.0000
  C   C22       1.0  0.62822  0.01713  0.73097  1.0000
  C   C23       1.0  0.26903  0.12822  0.48287  1.0000
  C   C24       1.0  0.51713  0.76903  0.37178  1.0000
  N   N1        1.0  0.67714  0.82286  0.17714  1.0000
  N   N2        1.0  0.17714  0.67714  0.82286  1.0000
  N   N3        1.0  0.82286  0.17714  0.67714  1.0000
  N   N4        1.0  0.32286  0.32286  0.32286  1.0000
  O   O1        1.0  0.92387  0.10170  0.21012  1.0000
  O   O2        1.0  0.21013  0.92387  0.10171  1.0000
  O   O3        1.0  0.10170  0.21012  0.92387  1.0000
  O   O4        1.0  0.42387  0.39830  0.78987  1.0000
  O   O5        1.0  0.71013  0.57613  0.89830  1.0000
  O   O6        1.0  0.60170  0.28987  0.07613  1.0000
  O   O7        1.0  0.07613  0.60170  0.28987  1.0000
  O   O8        1.0  0.78988  0.42387  0.39830  1.0000
  O   O9        1.0  0.89830  0.71012  0.57613  1.0000
  O   O10       1.0  0.57613  0.89830  0.71013  1.0000
  O   O11       1.0  0.28988  0.07613  0.60170  1.0000
  O   O12       1.0  0.39830  0.78988  0.42387  1.0000
  O   O13       1.0  0.93762  0.87776  0.27379  1.0000
  O   O14       1.0  0.27379  0.93762  0.87776  1.0000
  O   O15       1.0  0.87776  0.27379  0.93762  1.0000
  O   O16       1.0  0.43762  0.62224  0.72621  1.0000
  O   O17       1.0  0.77379  0.56238  0.12224  1.0000
  O   O18       1.0  0.37776  0.22621  0.06238  1.0000
  O   O19       1.0  0.06238  0.37776  0.22621  1.0000
  O   O20       1.0  0.72621  0.43762  0.62224  1.0000
  O   O21       1.0  0.12224  0.77379  0.56238  1.0000
  O   O22       1.0  0.56238  0.12224  0.77379  1.0000
  O   O23       1.0  0.22621  0.06238  0.37776  1.0000
  O   O24       1.0  0.62224  0.72621  0.43762  1.0000
