data_image0
_chemical_formula_structural       Sr4H52C20N4O28
_chemical_formula_sum              "Sr4 H52 C20 N4 O28"
_cell_length_a       7.27065
_cell_length_b       8.25933
_cell_length_c       15.8738
_cell_angle_alpha    89.9996
_cell_angle_beta     90.0005
_cell_angle_gamma    90

_space_group_name_H-M_alt    "P 1"
_space_group_IT_number       1

loop_
  _space_group_symop_operation_xyz
  'x, y, z'

loop_
  _atom_site_type_symbol
  _atom_site_label
  _atom_site_symmetry_multiplicity
  _atom_site_fract_x
  _atom_site_fract_y
  _atom_site_fract_z
  _atom_site_occupancy
  Sr  Sr1       1.0  0.53762  0.24959  0.92775  1.0000
  Sr  Sr2       1.0  0.96237  0.75041  0.42775  1.0000
  Sr  Sr3       1.0  0.46238  0.74960  0.57225  1.0000
  Sr  Sr4       1.0  0.03762  0.25039  0.07225  1.0000
  H   H1        1.0  0.51868  0.98728  0.22637  1.0000
  H   H2        1.0  0.98133  0.01272  0.72637  1.0000
  H   H3        1.0  0.48133  0.48730  0.27364  1.0000
  H   H4        1.0  0.01867  0.51269  0.77363  1.0000
  H   H5        1.0  0.83292  0.03076  0.24243  1.0000
  H   H6        1.0  0.66708  0.96925  0.74244  1.0000
  H   H7        1.0  0.16708  0.53077  0.25756  1.0000
  H   H8        1.0  0.33292  0.46923  0.75756  1.0000
  H   H9        1.0  0.88951  0.93586  0.15321  1.0000
  H   H10       1.0  0.61048  0.06414  0.65321  1.0000
  H   H11       1.0  0.11051  0.43587  0.34679  1.0000
  H   H12       1.0  0.38952  0.56413  0.84679  1.0000
  H   H13       1.0  0.40027  0.82421  0.10649  1.0000
  H   H14       1.0  0.09972  0.17579  0.60649  1.0000
  H   H15       1.0  0.59975  0.32422  0.39351  1.0000
  H   H16       1.0  0.90027  0.67578  0.89351  1.0000
  H   H17       1.0  0.53391  0.70921  0.17763  1.0000
  H   H18       1.0  0.96610  0.29080  0.67763  1.0000
  H   H19       1.0  0.46611  0.20923  0.32238  1.0000
  H   H20       1.0  0.03389  0.79077  0.82237  1.0000
  H   H21       1.0  0.70668  0.86525  0.02150  1.0000
  H   H22       1.0  0.79329  0.13475  0.52150  1.0000
  H   H23       1.0  0.29335  0.36527  0.47851  1.0000
  H   H24       1.0  0.20669  0.63474  0.97850  1.0000
  H   H25       1.0  0.80158  0.71234  0.08527  1.0000
  H   H26       1.0  0.69840  0.28766  0.58528  1.0000
  H   H27       1.0  0.19841  0.21237  0.41473  1.0000
  H   H28       1.0  0.30160  0.78766  0.91471  1.0000
  H   H29       1.0  0.68119  0.22747  0.74936  1.0000
  H   H30       1.0  0.81881  0.77253  0.24936  1.0000
  H   H31       1.0  0.31880  0.72746  0.75064  1.0000
  H   H32       1.0  0.18120  0.27254  0.25065  1.0000
  H   H33       1.0  0.77360  0.35990  0.81354  1.0000
  H   H34       1.0  0.72640  0.64011  0.31355  1.0000
  H   H35       1.0  0.22639  0.85989  0.68646  1.0000
  H   H36       1.0  0.27360  0.14011  0.18646  1.0000
  H   H37       1.0  0.32458  0.99133  0.79949  1.0000
  H   H38       1.0  0.17542  0.00868  0.29948  1.0000
  H   H39       1.0  0.67542  0.49133  0.70051  1.0000
  H   H40       1.0  0.82457  0.50867  0.20051  1.0000
  H   H41       1.0  0.20183  0.05082  0.87759  1.0000
  H   H42       1.0  0.29817  0.94917  0.37758  1.0000
  H   H43       1.0  0.79816  0.55083  0.62241  1.0000
  H   H44       1.0  0.70182  0.44918  0.12241  1.0000
  H   H45       1.0  0.83459  0.98486  0.90933  1.0000
  H   H46       1.0  0.66541  0.01515  0.40933  1.0000
  H   H47       1.0  0.16540  0.48486  0.59067  1.0000
  H   H48       1.0  0.33458  0.51513  0.09066  1.0000
  H   H49       1.0  0.66589  0.86695  0.89443  1.0000
  H   H50       1.0  0.83411  0.13306  0.39443  1.0000
  H   H51       1.0  0.33410  0.36695  0.60558  1.0000
  H   H52       1.0  0.16589  0.63305  0.10557  1.0000
  C   C1        1.0  0.57612  0.09776  0.10575  1.0000
  C   C2        1.0  0.92387  0.90223  0.60575  1.0000
  C   C3        1.0  0.42388  0.59777  0.39426  1.0000
  C   C4        1.0  0.07612  0.40222  0.89425  1.0000
  C   C5        1.0  0.60676  0.96286  0.17144  1.0000
  C   C6        1.0  0.89324  0.03714  0.67143  1.0000
  C   C7        1.0  0.39326  0.46288  0.32856  1.0000
  C   C8        1.0  0.10675  0.53713  0.82856  1.0000
  C   C9        1.0  0.54051  0.80487  0.12969  1.0000
  C   C10       1.0  0.95947  0.19514  0.62969  1.0000
  C   C11       1.0  0.45950  0.30488  0.37032  1.0000
  C   C12       1.0  0.04053  0.69512  0.87031  1.0000
  C   C13       1.0  0.67206  0.75774  0.05838  1.0000
  C   C14       1.0  0.82792  0.24227  0.55839  1.0000
  C   C15       1.0  0.32796  0.25775  0.44162  1.0000
  C   C16       1.0  0.17209  0.74226  0.94161  1.0000
  C   C17       1.0  0.60092  0.62863  0.99971  1.0000
  C   C18       1.0  0.89910  0.37135  0.49971  1.0000
  C   C19       1.0  0.39909  0.12863  0.50029  1.0000
  C   C20       1.0  0.10091  0.87136  0.00029  1.0000
  N   N1        1.0  0.79521  0.94175  0.20136  1.0000
  N   N2        1.0  0.70479  0.05824  0.70137  1.0000
  N   N3        1.0  0.20481  0.44176  0.29864  1.0000
  N   N4        1.0  0.29520  0.55823  0.79863  1.0000
  O   O1        1.0  0.71220  0.14541  0.06188  1.0000
  O   O2        1.0  0.78778  0.85459  0.56188  1.0000
  O   O3        1.0  0.28779  0.64543  0.43812  1.0000
  O   O4        1.0  0.21221  0.35457  0.93812  1.0000
  O   O5        1.0  0.41162  0.14531  0.09192  1.0000
  O   O6        1.0  0.08836  0.85468  0.59191  1.0000
  O   O7        1.0  0.58837  0.64532  0.40809  1.0000
  O   O8        1.0  0.91163  0.35467  0.90809  1.0000
  O   O9        1.0  0.55159  0.49285  0.03311  1.0000
  O   O10       1.0  0.94837  0.50716  0.53312  1.0000
  O   O11       1.0  0.44839  0.99285  0.46688  1.0000
  O   O12       1.0  0.05163  0.00715  0.96687  1.0000
  O   O13       1.0  0.59534  0.65561  0.92119  1.0000
  O   O14       1.0  0.90465  0.34436  0.42120  1.0000
  O   O15       1.0  0.40465  0.15559  0.57881  1.0000
  O   O16       1.0  0.09535  0.84437  0.07880  1.0000
  O   O17       1.0  0.66113  0.33919  0.77975  1.0000
  O   O18       1.0  0.83887  0.66082  0.27975  1.0000
  O   O19       1.0  0.33887  0.83917  0.72025  1.0000
  O   O20       1.0  0.16113  0.16083  0.22025  1.0000
  O   O21       1.0  0.30862  0.07924  0.84164  1.0000
  O   O22       1.0  0.19139  0.92076  0.34164  1.0000
  O   O23       1.0  0.69138  0.57924  0.65835  1.0000
  O   O24       1.0  0.80861  0.42076  0.15835  1.0000
  O   O25       1.0  0.70867  0.98009  0.88562  1.0000
  O   O26       1.0  0.79133  0.01992  0.38562  1.0000
  O   O27       1.0  0.29132  0.48010  0.61438  1.0000
  O   O28       1.0  0.20867  0.51990  0.11438  1.0000
