data_image0
_chemical_formula_structural       Li2H12C8N2O8
_chemical_formula_sum              "Li2 H12 C8 N2 O8"
_cell_length_a       4.96394
_cell_length_b       5.71403
_cell_length_c       10.4051
_cell_angle_alpha    93.2691
_cell_angle_beta     89.9975
_cell_angle_gamma    90.0018

_space_group_name_H-M_alt    "P 1"
_space_group_IT_number       1

loop_
  _space_group_symop_operation_xyz
  'x, y, z'

loop_
  _atom_site_type_symbol
  _atom_site_label
  _atom_site_symmetry_multiplicity
  _atom_site_fract_x
  _atom_site_fract_y
  _atom_site_fract_z
  _atom_site_occupancy
  Li  Li1       1.0  0.72975  0.96059  0.58979  1.0000
  Li  Li2       1.0  0.22977  0.03940  0.41021  1.0000
  H   H1        1.0  0.27149  0.67015  0.94743  1.0000
  H   H2        1.0  0.77154  0.32985  0.05256  1.0000
  H   H3        1.0  0.10342  0.86868  0.86058  1.0000
  H   H4        1.0  0.60346  0.13133  0.13942  1.0000
  H   H5        1.0  0.00872  0.59068  0.85657  1.0000
  H   H6        1.0  0.50874  0.40933  0.14344  1.0000
  H   H7        1.0  0.54354  0.76120  0.76520  1.0000
  H   H8        1.0  0.04357  0.23879  0.23480  1.0000
  H   H9        1.0  0.25339  0.28866  0.72682  1.0000
  H   H10       1.0  0.75347  0.71134  0.27320  1.0000
  H   H11       1.0  0.49426  0.37630  0.61661  1.0000
  H   H12       1.0  0.99435  0.62368  0.38339  1.0000
  C   C1        1.0  0.21896  0.74786  0.62627  1.0000
  C   C2        1.0  0.71895  0.25215  0.37373  1.0000
  C   C3        1.0  0.36106  0.65818  0.74484  1.0000
  C   C4        1.0  0.86110  0.34183  0.25518  1.0000
  C   C5        1.0  0.43315  0.40008  0.71811  1.0000
  C   C6        1.0  0.93318  0.59992  0.28190  1.0000
  C   C7        1.0  0.66079  0.30872  0.80029  1.0000
  C   C8        1.0  0.16087  0.69128  0.19970  1.0000
  N   N1        1.0  0.17983  0.70058  0.85876  1.0000
  N   N2        1.0  0.67989  0.29944  0.14124  1.0000
  O   O1        1.0  0.36434  0.85890  0.54918  1.0000
  O   O2        1.0  0.86434  0.14109  0.45081  1.0000
  O   O3        1.0  0.97118  0.70456  0.61386  1.0000
  O   O4        1.0  0.47119  0.29544  0.38613  1.0000
  O   O5        1.0  0.76355  0.11126  0.76691  1.0000
  O   O6        1.0  0.26360  0.88872  0.23308  1.0000
  O   O7        1.0  0.73697  0.43763  0.89812  1.0000
  O   O8        1.0  0.23701  0.56236  0.10188  1.0000
