data_image0
_chemical_formula_structural       Cd4H20C28I4N16
_chemical_formula_sum              "Cd4 H20 C28 I4 N16"
_cell_length_a       7.7612
_cell_length_b       9.88727
_cell_length_c       11.8575
_cell_angle_alpha    89.9999
_cell_angle_beta     90.4667
_cell_angle_gamma    90.0001

_space_group_name_H-M_alt    "P 1"
_space_group_IT_number       1

loop_
  _space_group_symop_operation_xyz
  'x, y, z'

loop_
  _atom_site_type_symbol
  _atom_site_label
  _atom_site_symmetry_multiplicity
  _atom_site_fract_x
  _atom_site_fract_y
  _atom_site_fract_z
  _atom_site_occupancy
  Cd  Cd1       1.0  0.17522  0.67042  0.31396  1.0000
  Cd  Cd2       1.0  0.32478  0.17042  0.68604  1.0000
  Cd  Cd3       1.0  0.82478  0.32958  0.68604  1.0000
  Cd  Cd4       1.0  0.67522  0.82958  0.31396  1.0000
  H   H1        1.0  0.34687  0.51516  0.58386  1.0000
  H   H2        1.0  0.15314  0.01516  0.41614  1.0000
  H   H3        1.0  0.65313  0.48484  0.41614  1.0000
  H   H4        1.0  0.84687  0.98484  0.58386  1.0000
  H   H5        1.0  0.94331  0.16007  0.30239  1.0000
  H   H6        1.0  0.55669  0.66007  0.69761  1.0000
  H   H7        1.0  0.05669  0.83993  0.69760  1.0000
  H   H8        1.0  0.44331  0.33993  0.30239  1.0000
  H   H9        1.0  0.78896  0.16390  0.11601  1.0000
  H   H10       1.0  0.71105  0.66390  0.88399  1.0000
  H   H11       1.0  0.21104  0.83610  0.88399  1.0000
  H   H12       1.0  0.28895  0.33610  0.11601  1.0000
  H   H13       1.0  0.77335  0.38305  0.00854  1.0000
  H   H14       1.0  0.72665  0.88305  0.99146  1.0000
  H   H15       1.0  0.22664  0.61695  0.99146  1.0000
  H   H16       1.0  0.27335  0.11695  0.00854  1.0000
  H   H17       1.0  0.91729  0.58830  0.09243  1.0000
  H   H18       1.0  0.58271  0.08830  0.90757  1.0000
  H   H19       1.0  0.08271  0.41170  0.90757  1.0000
  H   H20       1.0  0.41729  0.91170  0.09243  1.0000
  C   C1        1.0  0.26754  0.44980  0.53152  1.0000
  C   C2        1.0  0.23247  0.94979  0.46849  1.0000
  C   C3        1.0  0.73246  0.55021  0.46848  1.0000
  C   C4        1.0  0.76754  0.05021  0.53152  1.0000
  C   C5        1.0  0.10801  0.37480  0.39899  1.0000
  C   C6        1.0  0.39199  0.87480  0.60101  1.0000
  C   C7        1.0  0.89199  0.62520  0.60101  1.0000
  C   C8        1.0  0.60801  0.12520  0.39899  1.0000
  C   C9        1.0  0.01112  0.37103  0.29337  1.0000
  C   C10       1.0  0.48888  0.87103  0.70663  1.0000
  C   C11       1.0  0.98888  0.62897  0.70663  1.0000
  C   C12       1.0  0.51112  0.12897  0.29337  1.0000
  C   C13       1.0  0.93354  0.25254  0.25306  1.0000
  C   C14       1.0  0.56646  0.75254  0.74694  1.0000
  C   C15       1.0  0.06646  0.74746  0.74694  1.0000
  C   C16       1.0  0.43354  0.24746  0.25306  1.0000
  C   C17       1.0  0.84813  0.25564  0.14960  1.0000
  C   C18       1.0  0.65188  0.75564  0.85040  1.0000
  C   C19       1.0  0.15187  0.74436  0.85040  1.0000
  C   C20       1.0  0.34812  0.24435  0.14960  1.0000
  C   C21       1.0  0.84059  0.37679  0.08936  1.0000
  C   C22       1.0  0.65942  0.87679  0.91064  1.0000
  C   C23       1.0  0.15941  0.62321  0.91063  1.0000
  C   C24       1.0  0.34059  0.12321  0.08936  1.0000
  C   C25       1.0  0.92020  0.49062  0.13523  1.0000
  C   C26       1.0  0.57980  0.99062  0.86477  1.0000
  C   C27       1.0  0.07980  0.50938  0.86477  1.0000
  C   C28       1.0  0.42019  0.00938  0.13523  1.0000
  I   I1        1.0  0.48246  0.63191  0.17952  1.0000
  I   I2        1.0  0.01754  0.13191  0.82048  1.0000
  I   I3        1.0  0.51754  0.36808  0.82048  1.0000
  I   I4        1.0  0.98247  0.86809  0.17952  1.0000
  N   N1        1.0  0.19207  0.48855  0.43440  1.0000
  N   N2        1.0  0.30793  0.98855  0.56560  1.0000
  N   N3        1.0  0.80792  0.51145  0.56560  1.0000
  N   N4        1.0  0.69207  0.01145  0.43440  1.0000
  N   N5        1.0  0.23146  0.31973  0.55434  1.0000
  N   N6        1.0  0.26855  0.81973  0.44566  1.0000
  N   N7        1.0  0.76854  0.68027  0.44566  1.0000
  N   N8        1.0  0.73146  0.18027  0.55434  1.0000
  N   N9        1.0  0.12917  0.27042  0.46939  1.0000
  N   N10       1.0  0.37083  0.77042  0.53062  1.0000
  N   N11       1.0  0.87083  0.72958  0.53061  1.0000
  N   N12       1.0  0.62917  0.22958  0.46938  1.0000
  N   N13       1.0  0.00448  0.48818  0.23434  1.0000
  N   N14       1.0  0.49552  0.98817  0.76567  1.0000
  N   N15       1.0  0.99552  0.51182  0.76566  1.0000
  N   N16       1.0  0.50448  0.01182  0.23434  1.0000
