data_image0
_chemical_formula_structural       CaPr2H18C20O23
_chemical_formula_sum              "Ca1 Pr2 H18 C20 O23"
_cell_length_a       7.40011
_cell_length_b       10.1237
_cell_length_c       11.2278
_cell_angle_alpha    103.204
_cell_angle_beta     105.843
_cell_angle_gamma    108.394

_space_group_name_H-M_alt    "P 1"
_space_group_IT_number       1

loop_
  _space_group_symop_operation_xyz
  'x, y, z'

loop_
  _atom_site_type_symbol
  _atom_site_label
  _atom_site_symmetry_multiplicity
  _atom_site_fract_x
  _atom_site_fract_y
  _atom_site_fract_z
  _atom_site_occupancy
  Ca  Ca1       1.0  0.74106  0.48622  0.86873  1.0000
  Pr  Pr1       1.0  0.49441  0.89140  0.37297  1.0000
  Pr  Pr2       1.0  0.13371  0.00415  0.54547  1.0000
  H   H1        1.0  0.48486  0.44252  0.46630  1.0000
  H   H2        1.0  0.13405  0.44136  0.42612  1.0000
  H   H3        1.0  0.18243  0.99361  0.01468  1.0000
  H   H4        1.0  0.46939  0.95345  0.92466  1.0000
  H   H5        1.0  0.02282  0.28318  0.85531  1.0000
  H   H6        1.0  0.95660  0.30574  0.97581  1.0000
  H   H7        1.0  0.44228  0.28449  0.93893  1.0000
  H   H8        1.0  0.50773  0.17917  0.85097  1.0000
  H   H9        1.0  0.12406  0.67192  0.71268  1.0000
  H   H10       1.0  0.17601  0.67803  0.86010  1.0000
  H   H11       1.0  0.64124  0.66889  0.09433  1.0000
  H   H12       1.0  0.80944  0.60298  0.13604  1.0000
  H   H13       1.0  0.13537  0.75355  0.06489  1.0000
  H   H14       1.0  0.17493  0.60786  0.02783  1.0000
  H   H15       1.0  0.32631  0.41511  0.67278  1.0000
  H   H16       1.0  0.34855  0.56666  0.76897  1.0000
  H   H17       1.0  0.64398  0.63043  0.71232  1.0000
  H   H18       1.0  0.86810  0.74096  0.73084  1.0000
  C   C1        1.0  0.69430  0.33443  0.48831  1.0000
  C   C2        1.0  0.62716  0.44078  0.45753  1.0000
  C   C3        1.0  0.74332  0.55147  0.42110  1.0000
  C   C4        1.0  0.92915  0.55318  0.41041  1.0000
  C   C5        1.0  0.99345  0.44391  0.43745  1.0000
  C   C6        1.0  0.87977  0.33595  0.47767  1.0000
  C   C7        1.0  0.57373  0.23860  0.54816  1.0000
  C   C8        1.0  0.66607  0.66747  0.40232  1.0000
  C   C9        1.0  0.05971  0.65789  0.36108  1.0000
  C   C10       1.0  0.96027  0.22541  0.50737  1.0000
  C   C11       1.0  0.71116  0.98127  0.85027  1.0000
  C   C12       1.0  0.91368  0.99343  0.87599  1.0000
  C   C13       1.0  0.02513  0.98437  0.99383  1.0000
  C   C14       1.0  0.93706  0.96054  0.08663  1.0000
  C   C15       1.0  0.73636  0.95227  0.06291  1.0000
  C   C16       1.0  0.62691  0.96422  0.94602  1.0000
  C   C17       1.0  0.57932  0.97633  0.71933  1.0000
  C   C18       1.0  0.01158  0.00840  0.77665  1.0000
  C   C19       1.0  0.05867  0.94383  0.20898  1.0000
  C   C20       1.0  0.63035  0.92598  0.15723  1.0000
  O   O1        1.0  0.60256  0.29553  0.66650  1.0000
  O   O2        1.0  0.43549  0.10813  0.47454  1.0000
  O   O3        1.0  0.47652  0.63808  0.37223  1.0000
  O   O4        1.0  0.79410  0.79759  0.41993  1.0000
  O   O5        1.0  0.19457  0.78636  0.44547  1.0000
  O   O6        1.0  0.04296  0.61214  0.24387  1.0000
  O   O7        1.0  0.15241  0.25695  0.54042  1.0000
  O   O8        1.0  0.83863  0.09900  0.50005  1.0000
  O   O9        1.0  0.43264  0.01824  0.71940  1.0000
  O   O10       1.0  0.61835  0.92974  0.61913  1.0000
  O   O11       1.0  0.09284  0.13478  0.76665  1.0000
  O   O12       1.0  0.01654  0.89137  0.70700  1.0000
  O   O13       1.0  0.19626  0.89417  0.20150  1.0000
  O   O14       1.0  0.01776  0.97924  0.31057  1.0000
  O   O15       1.0  0.55459  0.79332  0.15978  1.0000
  O   O16       1.0  0.61097  0.03300  0.22786  1.0000
  O   O17       1.0  0.98865  0.35318  0.91347  1.0000
  O   O18       1.0  0.56117  0.27738  0.92134  1.0000
  O   O19       1.0  0.23070  0.67589  0.78836  1.0000
  O   O20       1.0  0.69724  0.59695  0.06034  1.0000
  O   O21       1.0  0.09851  0.66097  0.99015  1.0000
  O   O22       1.0  0.42548  0.50343  0.75060  1.0000
  O   O23       1.0  0.79059  0.65070  0.74639  1.0000
