data_image0
_chemical_formula_structural       Cd2H16C14S2N8O10
_chemical_formula_sum              "Cd2 H16 C14 S2 N8 O10"
_cell_length_a       5.40424
_cell_length_b       5.58993
_cell_length_c       18.4637
_cell_angle_alpha    89.9995
_cell_angle_beta     89.9986
_cell_angle_gamma    104.093

_space_group_name_H-M_alt    "P 1"
_space_group_IT_number       1

loop_
  _space_group_symop_operation_xyz
  'x, y, z'

loop_
  _atom_site_type_symbol
  _atom_site_label
  _atom_site_symmetry_multiplicity
  _atom_site_fract_x
  _atom_site_fract_y
  _atom_site_fract_z
  _atom_site_occupancy
  Cd  Cd1       1.0  0.30331  0.73765  0.16772  1.0000
  Cd  Cd2       1.0  0.69670  0.26234  0.66772  1.0000
  H   H1        1.0  0.23597  0.18345  0.19370  1.0000
  H   H2        1.0  0.76401  0.81653  0.69370  1.0000
  H   H3        1.0  0.95196  0.02913  0.19798  1.0000
  H   H4        1.0  0.04802  0.97086  0.69798  1.0000
  H   H5        1.0  0.03019  0.04469  0.05441  1.0000
  H   H6        1.0  0.96984  0.95529  0.55441  1.0000
  H   H7        1.0  0.98104  0.09705  0.92092  1.0000
  H   H8        1.0  0.01898  0.90296  0.42090  1.0000
  H   H9        1.0  0.19665  0.87094  0.83523  1.0000
  H   H10       1.0  0.80334  0.12909  0.33524  1.0000
  H   H11       1.0  0.46583  0.53691  0.02199  1.0000
  H   H12       1.0  0.53420  0.46310  0.52199  1.0000
  H   H13       1.0  0.74361  0.44376  0.95296  1.0000
  H   H14       1.0  0.25640  0.55626  0.45296  1.0000
  H   H15       1.0  0.29046  0.54258  0.77227  1.0000
  H   H16       1.0  0.70951  0.45743  0.27227  1.0000
  C   C1        1.0  0.12038  0.94506  0.01596  1.0000
  C   C2        1.0  0.87962  0.05494  0.51596  1.0000
  C   C3        1.0  0.09466  0.97550  0.94160  1.0000
  C   C4        1.0  0.90534  0.02451  0.44158  1.0000
  C   C5        1.0  0.21381  0.84748  0.89348  1.0000
  C   C6        1.0  0.78617  0.15254  0.39347  1.0000
  C   C7        1.0  0.35140  0.68830  0.92240  1.0000
  C   C8        1.0  0.64862  0.31169  0.42240  1.0000
  C   C9        1.0  0.36599  0.66397  0.99743  1.0000
  C   C10       1.0  0.63403  0.33604  0.49744  1.0000
  C   C11       1.0  0.67089  0.44089  0.89792  1.0000
  C   C12       1.0  0.32911  0.55912  0.39793  1.0000
  C   C13       1.0  0.43661  0.49436  0.80581  1.0000
  C   C14       1.0  0.56338  0.50563  0.30581  1.0000
  S   S1        1.0  0.70558  0.31648  0.12874  1.0000
  S   S2        1.0  0.29443  0.68352  0.62875  1.0000
  N   N1        1.0  0.25495  0.79231  0.04300  1.0000
  N   N2        1.0  0.74506  0.20770  0.54300  1.0000
  N   N3        1.0  0.47700  0.54829  0.87771  1.0000
  N   N4        1.0  0.52299  0.45169  0.37771  1.0000
  N   N5        1.0  0.74641  0.33054  0.84229  1.0000
  N   N6        1.0  0.25357  0.66946  0.34229  1.0000
  N   N7        1.0  0.59706  0.36482  0.78411  1.0000
  N   N8        1.0  0.40293  0.63518  0.28411  1.0000
  O   O1        1.0  0.89296  0.48714  0.17597  1.0000
  O   O2        1.0  0.10703  0.51287  0.67597  1.0000
  O   O3        1.0  0.78533  0.33203  0.05278  1.0000
  O   O4        1.0  0.21467  0.66799  0.55278  1.0000
  O   O5        1.0  0.67884  0.05873  0.15781  1.0000
  O   O6        1.0  0.32118  0.94128  0.65782  1.0000
  O   O7        1.0  0.44989  0.37700  0.13646  1.0000
  O   O8        1.0  0.55011  0.62299  0.63645  1.0000
  O   O9        1.0  0.12573  0.03636  0.21749  1.0000
  O   O10       1.0  0.87425  0.96361  0.71749  1.0000
