data_image0
_chemical_formula_structural       Cd2H24C36N28
_chemical_formula_sum              "Cd2 H24 C36 N28"
_cell_length_a       7.56963
_cell_length_b       9.76592
_cell_length_c       13.7461
_cell_angle_alpha    94.6282
_cell_angle_beta     89.9992
_cell_angle_gamma    89.9999

_space_group_name_H-M_alt    "P 1"
_space_group_IT_number       1

loop_
  _space_group_symop_operation_xyz
  'x, y, z'

loop_
  _atom_site_type_symbol
  _atom_site_label
  _atom_site_symmetry_multiplicity
  _atom_site_fract_x
  _atom_site_fract_y
  _atom_site_fract_z
  _atom_site_occupancy
  Cd  Cd1       1.0  0.99998  0.99999  1.00000  1.0000
  Cd  Cd2       1.0  0.50002  0.00000  0.50000  1.0000
  H   H1        1.0  0.99278  0.68093  0.13634  1.0000
  H   H2        1.0  0.49278  0.31907  0.36366  1.0000
  H   H3        1.0  0.00722  0.31906  0.86366  1.0000
  H   H4        1.0  0.50721  0.68093  0.63634  1.0000
  H   H5        1.0  0.01154  0.86064  0.27479  1.0000
  H   H6        1.0  0.51155  0.13937  0.22521  1.0000
  H   H7        1.0  0.98846  0.13936  0.72521  1.0000
  H   H8        1.0  0.48845  0.86064  0.77480  1.0000
  H   H9        1.0  0.93682  0.79674  0.44423  1.0000
  H   H10       1.0  0.43683  0.20326  0.05577  1.0000
  H   H11       1.0  0.06318  0.20326  0.55577  1.0000
  H   H12       1.0  0.56317  0.79674  0.94423  1.0000
  H   H13       1.0  0.82957  0.39439  0.34379  1.0000
  H   H14       1.0  0.32956  0.60561  0.15621  1.0000
  H   H15       1.0  0.17043  0.60560  0.65620  1.0000
  H   H16       1.0  0.67044  0.39439  0.84379  1.0000
  H   H17       1.0  0.01949  0.24371  0.21005  1.0000
  H   H18       1.0  0.51949  0.75629  0.28995  1.0000
  H   H19       1.0  0.98051  0.75628  0.78995  1.0000
  H   H20       1.0  0.48052  0.24371  0.71006  1.0000
  H   H21       1.0  0.75954  0.52475  0.03688  1.0000
  H   H22       1.0  0.25955  0.47526  0.46312  1.0000
  H   H23       1.0  0.24045  0.47525  0.96312  1.0000
  H   H24       1.0  0.74045  0.52475  0.53688  1.0000
  C   C1        1.0  0.95823  0.65736  0.21021  1.0000
  C   C2        1.0  0.45824  0.34264  0.28979  1.0000
  C   C3        1.0  0.04177  0.34263  0.78978  1.0000
  C   C4        1.0  0.54176  0.65736  0.71022  1.0000
  C   C5        1.0  0.97051  0.75700  0.28809  1.0000
  C   C6        1.0  0.47052  0.24300  0.21191  1.0000
  C   C7        1.0  0.02949  0.24299  0.71191  1.0000
  C   C8        1.0  0.52948  0.75700  0.78810  1.0000
  C   C9        1.0  0.93032  0.72084  0.38170  1.0000
  C   C10       1.0  0.43033  0.27916  0.11830  1.0000
  C   C11       1.0  0.06968  0.27915  0.61829  1.0000
  C   C12       1.0  0.56967  0.72084  0.88171  1.0000
  C   C13       1.0  0.86948  0.49704  0.32612  1.0000
  C   C14       1.0  0.36948  0.50296  0.17388  1.0000
  C   C15       1.0  0.13051  0.50295  0.67388  1.0000
  C   C16       1.0  0.63052  0.49704  0.82612  1.0000
  C   C17       1.0  0.90683  0.52517  0.23001  1.0000
  C   C18       1.0  0.40683  0.47484  0.26999  1.0000
  C   C19       1.0  0.09317  0.47483  0.76999  1.0000
  C   C20       1.0  0.59317  0.52516  0.73001  1.0000
  C   C21       1.0  0.95775  0.28886  0.14895  1.0000
  C   C22       1.0  0.45776  0.71115  0.35105  1.0000
  C   C23       1.0  0.04224  0.71114  0.85105  1.0000
  C   C24       1.0  0.54225  0.28886  0.64896  1.0000
  C   C25       1.0  0.82562  0.43384  0.06030  1.0000
  C   C26       1.0  0.32562  0.56617  0.43970  1.0000
  C   C27       1.0  0.17438  0.56616  0.93970  1.0000
  C   C28       1.0  0.67438  0.43384  0.56030  1.0000
  C   C29       1.0  0.67235  0.07543  0.86198  1.0000
  C   C30       1.0  0.17238  0.92456  0.63802  1.0000
  C   C31       1.0  0.32762  0.92456  0.13803  1.0000
  C   C32       1.0  0.82767  0.07546  0.36198  1.0000
  C   C33       1.0  0.37312  0.10254  0.88081  1.0000
  C   C34       1.0  0.87315  0.89746  0.61918  1.0000
  C   C35       1.0  0.62684  0.89745  0.11919  1.0000
  C   C36       1.0  0.12689  0.10255  0.38081  1.0000
  N   N1        1.0  0.88028  0.59385  0.40080  1.0000
  N   N2        1.0  0.38028  0.40615  0.09920  1.0000
  N   N3        1.0  0.11972  0.40614  0.59920  1.0000
  N   N4        1.0  0.61972  0.59385  0.90080  1.0000
  N   N5        1.0  0.89428  0.42048  0.15183  1.0000
  N   N6        1.0  0.39428  0.57952  0.34817  1.0000
  N   N7        1.0  0.10572  0.57951  0.84817  1.0000
  N   N8        1.0  0.60572  0.42048  0.65183  1.0000
  N   N9        1.0  0.84534  0.31825  0.00514  1.0000
  N   N10       1.0  0.34535  0.68176  0.49486  1.0000
  N   N11       1.0  0.15465  0.68174  0.99486  1.0000
  N   N12       1.0  0.65466  0.31825  0.50515  1.0000
  N   N13       1.0  0.92947  0.22726  0.06146  1.0000
  N   N14       1.0  0.42949  0.77274  0.43854  1.0000
  N   N15       1.0  0.07051  0.77273  0.93854  1.0000
  N   N16       1.0  0.57053  0.22726  0.56147  1.0000
  N   N17       1.0  0.81135  0.02145  0.86700  1.0000
  N   N18       1.0  0.31139  0.97854  0.63300  1.0000
  N   N19       1.0  0.18861  0.97854  0.13300  1.0000
  N   N20       1.0  0.68865  0.02147  0.36700  1.0000
  N   N21       1.0  0.52619  0.14095  0.85073  1.0000
  N   N22       1.0  0.02622  0.85905  0.64927  1.0000
  N   N23       1.0  0.47377  0.85905  0.14927  1.0000
  N   N24       1.0  0.97382  0.14096  0.35073  1.0000
  N   N25       1.0  0.22786  0.07900  0.90522  1.0000
  N   N26       1.0  0.72789  0.92099  0.59477  1.0000
  N   N27       1.0  0.77209  0.92099  0.09478  1.0000
  N   N28       1.0  0.27214  0.07900  0.40522  1.0000
