data_image0
_chemical_formula_structural       CdH12C16S2N10
_chemical_formula_sum              "Cd1 H12 C16 S2 N10"
_cell_length_a       5.76091
_cell_length_b       8.31502
_cell_length_c       10.1745
_cell_angle_alpha    86.333
_cell_angle_beta     81.7413
_cell_angle_gamma    88.5772

_space_group_name_H-M_alt    "P 1"
_space_group_IT_number       1

loop_
  _space_group_symop_operation_xyz
  'x, y, z'

loop_
  _atom_site_type_symbol
  _atom_site_label
  _atom_site_symmetry_multiplicity
  _atom_site_fract_x
  _atom_site_fract_y
  _atom_site_fract_z
  _atom_site_occupancy
  Cd  Cd1       1.0  0.50000  1.00000  0.50000  1.0000
  H   H1        1.0  0.28243  0.69400  0.73646  1.0000
  H   H2        1.0  0.71759  0.30600  0.26354  1.0000
  H   H3        1.0  0.88801  0.41021  0.61270  1.0000
  H   H4        1.0  0.11199  0.58978  0.38730  1.0000
  H   H5        1.0  0.84166  0.29186  0.82025  1.0000
  H   H6        1.0  0.15836  0.70813  0.17975  1.0000
  H   H7        1.0  0.71386  0.11267  0.02224  1.0000
  H   H8        1.0  0.28614  0.88733  0.97777  1.0000
  H   H9        1.0  0.29976  0.13997  0.13949  1.0000
  H   H10       1.0  0.70023  0.86004  0.86052  1.0000
  H   H11       1.0  0.03520  0.35114  0.04921  1.0000
  H   H12       1.0  0.96480  0.64887  0.95078  1.0000
  C   C1        1.0  0.44392  0.65157  0.68062  1.0000
  C   C2        1.0  0.55608  0.34842  0.31937  1.0000
  C   C3        1.0  0.75697  0.50695  0.61867  1.0000
  C   C4        1.0  0.24302  0.49303  0.38132  1.0000
  C   C5        1.0  0.49718  0.40701  0.82777  1.0000
  C   C6        1.0  0.50280  0.59300  0.17223  1.0000
  C   C7        1.0  0.66225  0.29782  0.87100  1.0000
  C   C8        1.0  0.33775  0.70218  0.12900  1.0000
  C   C9        1.0  0.59037  0.19923  0.98440  1.0000
  C   C10       1.0  0.40961  0.80077  0.01560  1.0000
  C   C11       1.0  0.36152  0.21490  0.05010  1.0000
  C   C12       1.0  0.63847  0.78510  0.94991  1.0000
  C   C13       1.0  0.21343  0.33077  0.99940  1.0000
  C   C14       1.0  0.78657  0.66924  0.00060  1.0000
  C   C15       1.0  0.03860  0.94927  0.33459  1.0000
  C   C16       1.0  0.96141  0.05072  0.66541  1.0000
  S   S1        1.0  0.80015  0.96298  0.26546  1.0000
  S   S2        1.0  0.19985  0.03702  0.73453  1.0000
  N   N1        1.0  0.56189  0.72518  0.57420  1.0000
  N   N2        1.0  0.43811  0.27482  0.42580  1.0000
  N   N3        1.0  0.76005  0.63357  0.53373  1.0000
  N   N4        1.0  0.23996  0.36644  0.46628  1.0000
  N   N5        1.0  0.56088  0.51300  0.71342  1.0000
  N   N6        1.0  0.43914  0.48701  0.28659  1.0000
  N   N7        1.0  0.27866  0.42583  0.88917  1.0000
  N   N8        1.0  0.72132  0.57418  0.11082  1.0000
  N   N9        1.0  0.21428  0.93341  0.38171  1.0000
  N   N10       1.0  0.78571  0.06659  0.61829  1.0000
