data_image0
_chemical_formula_structural       Cd4H24C44N40
_chemical_formula_sum              "Cd4 H24 C44 N40"
_cell_length_a       7.90261
_cell_length_b       13.6496
_cell_length_c       13.8111
_cell_angle_alpha    110.792
_cell_angle_beta     94.62
_cell_angle_gamma    95.6111

_space_group_name_H-M_alt    "P 1"
_space_group_IT_number       1

loop_
  _space_group_symop_operation_xyz
  'x, y, z'

loop_
  _atom_site_type_symbol
  _atom_site_label
  _atom_site_symmetry_multiplicity
  _atom_site_fract_x
  _atom_site_fract_y
  _atom_site_fract_z
  _atom_site_occupancy
  Cd  Cd1       1.0  1.00000  1.00000  0.00000  1.0000
  Cd  Cd2       1.0  0.14019  0.51801  0.71127  1.0000
  Cd  Cd3       1.0  0.85981  0.48199  0.28873  1.0000
  Cd  Cd4       1.0  0.50000  0.00000  0.50000  1.0000
  H   H1        1.0  0.00874  0.31863  0.77704  1.0000
  H   H2        1.0  0.99126  0.68137  0.22296  1.0000
  H   H3        1.0  0.87366  0.62132  0.86697  1.0000
  H   H4        1.0  0.12634  0.37868  0.13303  1.0000
  H   H5        1.0  0.67239  0.58485  0.98615  1.0000
  H   H6        1.0  0.32762  0.41515  0.01385  1.0000
  H   H7        1.0  0.64589  0.40642  0.00127  1.0000
  H   H8        1.0  0.35411  0.59358  0.99873  1.0000
  H   H9        1.0  0.06726  0.23324  0.94285  1.0000
  H   H10       1.0  0.93274  0.76676  0.05715  1.0000
  H   H11       1.0  0.53484  0.19054  0.84692  1.0000
  H   H12       1.0  0.46516  0.80946  0.15308  1.0000
  H   H13       1.0  0.08817  0.13928  0.24296  1.0000
  H   H14       1.0  0.91183  0.86072  0.75704  1.0000
  H   H15       1.0  0.61685  0.01246  0.06415  1.0000
  H   H16       1.0  0.38316  0.98753  0.93585  1.0000
  H   H17       1.0  0.45851  0.09224  0.21589  1.0000
  H   H18       1.0  0.54150  0.90776  0.78412  1.0000
  H   H19       1.0  0.62732  0.19681  0.39149  1.0000
  H   H20       1.0  0.37269  0.80319  0.60851  1.0000
  H   H21       1.0  0.18653  0.14224  0.42261  1.0000
  H   H22       1.0  0.81347  0.85776  0.57739  1.0000
  H   H23       1.0  0.83071  0.36374  0.49516  1.0000
  H   H24       1.0  0.16929  0.63626  0.50484  1.0000
  C   C1        1.0  0.93352  0.37620  0.82499  1.0000
  C   C2        1.0  0.06647  0.62380  0.17500  1.0000
  C   C3        1.0  0.85646  0.54481  0.87587  1.0000
  C   C4        1.0  0.14354  0.45519  0.12413  1.0000
  C   C5        1.0  0.74500  0.52416  0.94146  1.0000
  C   C6        1.0  0.25500  0.47584  0.05854  1.0000
  C   C7        1.0  0.72806  0.42465  0.94867  1.0000
  C   C8        1.0  0.27194  0.57535  0.05133  1.0000
  C   C9        1.0  0.82231  0.34963  0.88807  1.0000
  C   C10       1.0  0.17769  0.65037  0.11193  1.0000
  C   C11       1.0  0.93397  0.19868  0.92223  1.0000
  C   C12       1.0  0.06603  0.80132  0.07777  1.0000
  C   C13       1.0  0.65915  0.17699  0.87510  1.0000
  C   C14       1.0  0.34084  0.82301  0.12490  1.0000
  C   C15       1.0  0.94895  0.12939  0.24071  1.0000
  C   C16       1.0  0.05106  0.87061  0.75930  1.0000
  C   C17       1.0  0.68531  0.06041  0.14072  1.0000
  C   C18       1.0  0.31469  0.93958  0.85928  1.0000
  C   C19       1.0  0.59778  0.10611  0.22557  1.0000
  C   C20       1.0  0.40223  0.89389  0.77443  1.0000
  C   C21       1.0  0.69111  0.16457  0.32210  1.0000
  C   C22       1.0  0.30890  0.83543  0.67791  1.0000
  C   C23       1.0  0.86947  0.17526  0.32945  1.0000
  C   C24       1.0  0.13053  0.82474  0.67055  1.0000
  C   C25       1.0  0.12463  0.21012  0.46379  1.0000
  C   C26       1.0  0.87538  0.78988  0.53620  1.0000
  C   C27       1.0  0.93797  0.32179  0.50261  1.0000
  C   C28       1.0  0.06204  0.67821  0.49739  1.0000
  C   C29       1.0  0.82915  0.92273  0.35292  1.0000
  C   C30       1.0  0.17084  0.07728  0.64708  1.0000
  C   C31       1.0  0.12075  0.93398  0.34956  1.0000
  C   C32       1.0  0.87924  0.06602  0.65044  1.0000
  C   C33       1.0  0.54904  0.25768  0.60798  1.0000
  C   C34       1.0  0.45096  0.74232  0.39202  1.0000
  C   C35       1.0  0.44198  0.39104  0.73443  1.0000
  C   C36       1.0  0.55803  0.60896  0.26557  1.0000
  C   C37       1.0  0.37647  0.70753  0.88273  1.0000
  C   C38       1.0  0.62353  0.29247  0.11727  1.0000
  C   C39       1.0  0.65274  0.79927  0.92151  1.0000
  C   C40       1.0  0.34726  0.20073  0.07848  1.0000
  C   C41       1.0  0.77438  0.60719  0.64973  1.0000
  C   C42       1.0  0.22560  0.39281  0.35027  1.0000
  C   C43       1.0  0.48046  0.60216  0.63165  1.0000
  C   C44       1.0  0.51953  0.39784  0.36834  1.0000
  N   N1        1.0  0.86745  0.10733  0.92448  1.0000
  N   N2        1.0  0.13255  0.89267  0.07551  1.0000
  N   N3        1.0  0.69316  0.09308  0.89483  1.0000
  N   N4        1.0  0.30684  0.90692  0.10517  1.0000
  N   N5        1.0  0.80677  0.24618  0.89165  1.0000
  N   N6        1.0  0.19323  0.75382  0.10835  1.0000
  N   N7        1.0  0.95005  0.47273  0.82019  1.0000
  N   N8        1.0  0.04995  0.52727  0.17981  1.0000
  N   N9        1.0  0.06345  0.35196  0.58016  1.0000
  N   N10       1.0  0.93656  0.64804  0.41984  1.0000
  N   N11       1.0  0.18161  0.28156  0.55630  1.0000
  N   N12       1.0  0.81839  0.71844  0.44369  1.0000
  N   N13       1.0  0.97063  0.23159  0.42679  1.0000
  N   N14       1.0  0.02938  0.76841  0.57321  1.0000
  N   N15       1.0  0.85733  0.07217  0.14829  1.0000
  N   N16       1.0  0.14267  0.92783  0.85172  1.0000
  N   N17       1.0  0.69663  0.95075  0.37608  1.0000
  N   N18       1.0  0.30337  0.04926  0.62392  1.0000
  N   N19       1.0  0.96656  0.88437  0.31960  1.0000
  N   N20       1.0  0.03344  0.11564  0.68040  1.0000
  N   N21       1.0  0.26586  0.97299  0.36983  1.0000
  N   N22       1.0  0.73414  0.02701  0.63017  1.0000
  N   N23       1.0  0.55734  0.18029  0.53532  1.0000
  N   N24       1.0  0.44266  0.81971  0.46468  1.0000
  N   N25       1.0  0.56283  0.34458  0.68762  1.0000
  N   N26       1.0  0.43716  0.65542  0.31238  1.0000
  N   N27       1.0  0.34751  0.44229  0.78732  1.0000
  N   N28       1.0  0.65250  0.55772  0.21268  1.0000
  N   N29       1.0  0.22902  0.67992  0.85182  1.0000
  N   N30       1.0  0.77098  0.32008  0.14818  1.0000
  N   N31       1.0  0.53480  0.72795  0.92343  1.0000
  N   N32       1.0  0.46521  0.27205  0.07657  1.0000
  N   N33       1.0  0.77299  0.85982  0.92567  1.0000
  N   N34       1.0  0.22701  0.14017  0.07433  1.0000
  N   N35       1.0  0.91091  0.57917  0.64765  1.0000
  N   N36       1.0  0.08908  0.42083  0.35235  1.0000
  N   N37       1.0  0.63517  0.65005  0.65571  1.0000
  N   N38       1.0  0.36482  0.34994  0.34429  1.0000
  N   N39       1.0  0.33275  0.56855  0.61210  1.0000
  N   N40       1.0  0.66723  0.43145  0.38789  1.0000
