data_image0
_chemical_formula_structural       CoH30C32N2O10
_chemical_formula_sum              "Co1 H30 C32 N2 O10"
_cell_length_a       5.41472
_cell_length_b       10.1792
_cell_length_c       13.2378
_cell_angle_alpha    97.0903
_cell_angle_beta     96.3763
_cell_angle_gamma    99.6037

_space_group_name_H-M_alt    "P 1"
_space_group_IT_number       1

loop_
  _space_group_symop_operation_xyz
  'x, y, z'

loop_
  _atom_site_type_symbol
  _atom_site_label
  _atom_site_symmetry_multiplicity
  _atom_site_fract_x
  _atom_site_fract_y
  _atom_site_fract_z
  _atom_site_occupancy
  Co  Co1       1.0  0.50000  0.50000  0.50001  1.0000
  H   H1        1.0  0.88245  0.07259  0.53995  1.0000
  H   H2        1.0  0.11759  0.92742  0.46004  1.0000
  H   H3        1.0  0.03843  0.21654  0.62634  1.0000
  H   H4        1.0  0.96157  0.78347  0.37366  1.0000
  H   H5        1.0  0.58283  0.01451  0.66293  1.0000
  H   H6        1.0  0.41718  0.98548  0.33705  1.0000
  H   H7        1.0  0.24345  0.03528  0.98066  1.0000
  H   H8        1.0  0.75651  0.96472  0.01933  1.0000
  H   H9        1.0  0.44379  0.85098  0.89865  1.0000
  H   H10       1.0  0.55620  0.14903  0.10136  1.0000
  H   H11       1.0  0.34590  0.77371  0.71149  1.0000
  H   H12       1.0  0.65413  0.22630  0.28851  1.0000
  H   H13       1.0  0.03281  0.86762  0.60397  1.0000
  H   H14       1.0  0.96725  0.13239  0.39602  1.0000
  H   H15       1.0  0.91578  0.56105  0.37349  1.0000
  H   H16       1.0  0.08423  0.43894  0.62652  1.0000
  H   H17       1.0  0.95484  0.56034  0.19149  1.0000
  H   H18       1.0  0.04519  0.43964  0.80852  1.0000
  H   H19       1.0  0.17608  0.35915  0.12190  1.0000
  H   H20       1.0  0.82392  0.64088  0.87811  1.0000
  H   H21       1.0  0.15983  0.37973  0.30940  1.0000
  H   H22       1.0  0.84016  0.62030  0.69061  1.0000
  H   H23       1.0  0.78480  0.49761  0.01692  1.0000
  H   H24       1.0  0.21521  0.50238  0.98309  1.0000
  H   H25       1.0  0.54496  0.35392  0.98743  1.0000
  H   H26       1.0  0.45505  0.64607  0.01258  1.0000
  H   H27       1.0  0.04432  0.35626  0.49288  1.0000
  H   H28       1.0  0.95568  0.64374  0.50713  1.0000
  H   H29       1.0  0.28469  0.27430  0.49864  1.0000
  H   H30       1.0  0.71531  0.72569  0.50136  1.0000
  C   C1        1.0  0.66298  0.22710  0.55321  1.0000
  C   C2        1.0  0.33702  0.77289  0.44678  1.0000
  C   C3        1.0  0.85466  0.15080  0.60075  1.0000
  C   C4        1.0  0.14535  0.84920  0.39924  1.0000
  C   C5        1.0  0.76978  0.07836  0.68789  1.0000
  C   C6        1.0  0.23021  0.92163  0.31209  1.0000
  C   C7        1.0  0.96123  0.00282  0.73221  1.0000
  C   C8        1.0  0.03876  0.99717  0.26778  1.0000
  C   C9        1.0  0.02576  0.05057  0.83679  1.0000
  C   C10       1.0  0.97422  0.94943  0.16320  1.0000
  C   C11       1.0  0.19954  0.99822  0.89879  1.0000
  C   C12       1.0  0.80043  0.00178  0.10120  1.0000
  C   C13       1.0  0.31126  0.89661  0.85262  1.0000
  C   C14       1.0  0.68873  0.10340  0.14738  1.0000
  C   C15       1.0  0.25277  0.85123  0.74681  1.0000
  C   C16       1.0  0.74725  0.14878  0.25318  1.0000
  C   C17       1.0  0.07739  0.90402  0.68562  1.0000
  C   C18       1.0  0.92264  0.09598  0.31438  1.0000
  C   C19       1.0  0.88869  0.16076  0.86276  1.0000
  C   C20       1.0  0.11127  0.83923  0.13723  1.0000
  C   C21       1.0  0.75047  0.52193  0.31700  1.0000
  C   C22       1.0  0.24954  0.47808  0.68302  1.0000
  C   C23       1.0  0.77289  0.51877  0.21331  1.0000
  C   C24       1.0  0.22713  0.48123  0.78670  1.0000
  C   C25       1.0  0.56697  0.46239  0.13863  1.0000
  C   C26       1.0  0.43304  0.53761  0.86138  1.0000
  C   C27       1.0  0.34349  0.40919  0.17510  1.0000
  C   C28       1.0  0.65651  0.59083  0.82492  1.0000
  C   C29       1.0  0.33174  0.41984  0.28011  1.0000
  C   C30       1.0  0.66826  0.58018  0.71991  1.0000
  C   C31       1.0  0.58812  0.45874  0.02617  1.0000
  C   C32       1.0  0.41189  0.54126  0.97384  1.0000
  N   N1        1.0  0.53111  0.47725  0.35226  1.0000
  N   N2        1.0  0.46889  0.52276  0.64775  1.0000
  O   O1        1.0  0.75003  0.33922  0.52340  1.0000
  O   O2        1.0  0.24996  0.66078  0.47660  1.0000
  O   O3        1.0  0.43092  0.17519  0.54347  1.0000
  O   O4        1.0  0.56908  0.82480  0.45651  1.0000
  O   O5        1.0  0.74024  0.17596  0.77494  1.0000
  O   O6        1.0  0.25972  0.82402  0.22504  1.0000
  O   O7        1.0  0.89579  0.23311  0.94425  1.0000
  O   O8        1.0  0.10414  0.76688  0.05575  1.0000
  O   O9        1.0  0.21284  0.35167  0.46918  1.0000
  O   O10       1.0  0.78715  0.64833  0.53083  1.0000
