data_image0
_chemical_formula_structural       Li4H28C16N8O20
_chemical_formula_sum              "Li4 H28 C16 N8 O20"
_cell_length_a       6.33402
_cell_length_b       7.13332
_cell_length_c       16.5424
_cell_angle_alpha    89.9997
_cell_angle_beta     89.9996
_cell_angle_gamma    107.261

_space_group_name_H-M_alt    "P 1"
_space_group_IT_number       1

loop_
  _space_group_symop_operation_xyz
  'x, y, z'

loop_
  _atom_site_type_symbol
  _atom_site_label
  _atom_site_symmetry_multiplicity
  _atom_site_fract_x
  _atom_site_fract_y
  _atom_site_fract_z
  _atom_site_occupancy
  Li  Li1       1.0  0.26551  0.48571  0.58035  1.0000
  Li  Li2       1.0  0.73450  0.01428  0.08035  1.0000
  Li  Li3       1.0  0.73449  0.51429  0.41965  1.0000
  Li  Li4       1.0  0.26551  0.98572  0.91965  1.0000
  H   H1        1.0  0.21439  0.97871  0.76199  1.0000
  H   H2        1.0  0.78562  0.52129  0.26199  1.0000
  H   H3        1.0  0.78561  0.02130  0.23801  1.0000
  H   H4        1.0  0.21438  0.47871  0.73801  1.0000
  H   H5        1.0  0.76088  0.75049  0.58257  1.0000
  H   H6        1.0  0.23913  0.74951  0.08257  1.0000
  H   H7        1.0  0.23911  0.24951  0.41743  1.0000
  H   H8        1.0  0.76087  0.25049  0.91743  1.0000
  H   H9        1.0  0.56468  0.65412  0.82849  1.0000
  H   H10       1.0  0.43532  0.84588  0.32850  1.0000
  H   H11       1.0  0.43532  0.34588  0.17151  1.0000
  H   H12       1.0  0.56468  0.15412  0.67150  1.0000
  H   H13       1.0  0.47290  0.26491  0.51397  1.0000
  H   H14       1.0  0.52710  0.23509  0.01397  1.0000
  H   H15       1.0  0.52710  0.73509  0.48603  1.0000
  H   H16       1.0  0.47290  0.76491  0.98603  1.0000
  H   H17       1.0  0.24031  0.14836  0.55278  1.0000
  H   H18       1.0  0.75968  0.35163  0.05278  1.0000
  H   H19       1.0  0.75969  0.85164  0.44722  1.0000
  H   H20       1.0  0.24031  0.64837  0.94722  1.0000
  H   H21       1.0  0.22320  0.79771  0.54046  1.0000
  H   H22       1.0  0.77680  0.70229  0.04046  1.0000
  H   H23       1.0  0.77679  0.20229  0.45954  1.0000
  H   H24       1.0  0.22320  0.29771  0.95954  1.0000
  H   H25       1.0  0.17921  0.68135  0.45485  1.0000
  H   H26       1.0  0.82079  0.81865  0.95485  1.0000
  H   H27       1.0  0.82079  0.31865  0.54515  1.0000
  H   H28       1.0  0.17921  0.18135  0.04515  1.0000
  C   C1        1.0  0.00897  0.87274  0.66358  1.0000
  C   C2        1.0  0.99105  0.62726  0.16359  1.0000
  C   C3        1.0  0.99103  0.12726  0.33642  1.0000
  C   C4        1.0  0.00895  0.37274  0.83641  1.0000
  C   C5        1.0  0.63160  0.68532  0.70051  1.0000
  C   C6        1.0  0.36840  0.81468  0.20052  1.0000
  C   C7        1.0  0.36840  0.31468  0.29949  1.0000
  C   C8        1.0  0.63160  0.18533  0.79948  1.0000
  C   C9        1.0  0.68845  0.71588  0.78259  1.0000
  C   C10       1.0  0.31155  0.78412  0.28259  1.0000
  C   C11       1.0  0.31155  0.28412  0.21741  1.0000
  C   C12       1.0  0.68844  0.21588  0.71741  1.0000
  C   C13       1.0  0.90189  0.82567  0.80519  1.0000
  C   C14       1.0  0.09811  0.67433  0.30518  1.0000
  C   C15       1.0  0.09812  0.17432  0.19481  1.0000
  C   C16       1.0  0.90189  0.32567  0.69482  1.0000
  N   N1        1.0  0.05506  0.89987  0.74373  1.0000
  N   N2        1.0  0.94495  0.60013  0.24372  1.0000
  N   N3        1.0  0.94494  0.10014  0.25627  1.0000
  N   N4        1.0  0.05505  0.39986  0.75628  1.0000
  N   N5        1.0  0.79845  0.76724  0.64408  1.0000
  N   N6        1.0  0.20156  0.73277  0.14408  1.0000
  N   N7        1.0  0.20155  0.23276  0.35592  1.0000
  N   N8        1.0  0.79844  0.26723  0.85592  1.0000
  O   O1        1.0  0.15497  0.94125  0.61058  1.0000
  O   O2        1.0  0.84506  0.55875  0.11058  1.0000
  O   O3        1.0  0.84503  0.05875  0.38942  1.0000
  O   O4        1.0  0.15494  0.44125  0.88942  1.0000
  O   O5        1.0  0.44210  0.59013  0.67350  1.0000
  O   O6        1.0  0.55790  0.90989  0.17350  1.0000
  O   O7        1.0  0.55790  0.40988  0.32650  1.0000
  O   O8        1.0  0.44209  0.09012  0.82650  1.0000
  O   O9        1.0  0.97336  0.86570  0.87743  1.0000
  O   O10       1.0  0.02665  0.63430  0.37743  1.0000
  O   O11       1.0  0.02664  0.13429  0.12257  1.0000
  O   O12       1.0  0.97335  0.36570  0.62257  1.0000
  O   O13       1.0  0.31547  0.26726  0.52089  1.0000
  O   O14       1.0  0.68453  0.23274  0.02089  1.0000
  O   O15       1.0  0.68453  0.73274  0.47911  1.0000
  O   O16       1.0  0.31547  0.76726  0.97911  1.0000
  O   O17       1.0  0.26860  0.70073  0.50666  1.0000
  O   O18       1.0  0.73140  0.79927  0.00666  1.0000
  O   O19       1.0  0.73141  0.29928  0.49334  1.0000
  O   O20       1.0  0.26859  0.20073  0.99334  1.0000
