data_image0
_chemical_formula_structural       Zn2H32C32N8Cl4O4
_chemical_formula_sum              "Zn2 H32 C32 N8 Cl4 O4"
_cell_length_a       6.19053
_cell_length_b       11.9299
_cell_length_c       12.422
_cell_angle_alpha    106.614
_cell_angle_beta     104.449
_cell_angle_gamma    90.025

_space_group_name_H-M_alt    "P 1"
_space_group_IT_number       1

loop_
  _space_group_symop_operation_xyz
  'x, y, z'

loop_
  _atom_site_type_symbol
  _atom_site_label
  _atom_site_symmetry_multiplicity
  _atom_site_fract_x
  _atom_site_fract_y
  _atom_site_fract_z
  _atom_site_occupancy
  Zn  Zn1       1.0  0.12287  0.74970  0.99983  1.0000
  Zn  Zn2       1.0  0.87711  0.25031  0.00017  1.0000
  H   H1        1.0  0.54830  0.63624  0.97429  1.0000
  H   H2        1.0  0.57342  0.86405  0.02583  1.0000
  H   H3        1.0  0.45168  0.36376  0.02570  1.0000
  H   H4        1.0  0.42656  0.13596  0.97418  1.0000
  H   H5        1.0  0.86465  0.56223  0.09504  1.0000
  H   H6        1.0  0.76913  0.93828  0.90527  1.0000
  H   H7        1.0  0.13532  0.43777  0.90495  1.0000
  H   H8        1.0  0.23087  0.06173  0.09475  1.0000
  H   H9        1.0  0.86482  0.57489  0.30028  1.0000
  H   H10       1.0  0.56429  0.92549  0.70001  1.0000
  H   H11       1.0  0.13517  0.42511  0.69972  1.0000
  H   H12       1.0  0.43572  0.07451  0.30000  1.0000
  H   H13       1.0  0.24161  0.73945  0.24546  1.0000
  H   H14       1.0  0.99626  0.75970  0.75405  1.0000
  H   H15       1.0  0.75838  0.26055  0.75454  1.0000
  H   H16       1.0  0.00374  0.24030  0.24595  1.0000
  H   H17       1.0  0.60778  0.70046  0.62301  1.0000
  H   H18       1.0  0.98443  0.79966  0.37673  1.0000
  H   H19       1.0  0.39226  0.29954  0.37699  1.0000
  H   H20       1.0  0.01557  0.20034  0.62327  1.0000
  H   H21       1.0  0.52110  0.45317  0.29846  1.0000
  H   H22       1.0  0.22333  0.04666  0.70146  1.0000
  H   H23       1.0  0.47892  0.54682  0.70154  1.0000
  H   H24       1.0  0.77666  0.95334  0.29854  1.0000
  H   H25       1.0  0.77887  0.57931  0.61699  1.0000
  H   H26       1.0  0.16167  0.92096  0.38296  1.0000
  H   H27       1.0  0.22115  0.42068  0.38300  1.0000
  H   H28       1.0  0.83833  0.07904  0.61705  1.0000
  H   H29       1.0  0.73013  0.42799  0.41663  1.0000
  H   H30       1.0  0.31359  0.07202  0.58326  1.0000
  H   H31       1.0  0.26990  0.57201  0.58337  1.0000
  H   H32       1.0  0.68641  0.92798  0.41675  1.0000
  C   C1        1.0  0.55158  0.64099  0.06357  1.0000
  C   C2        1.0  0.48770  0.85902  0.93642  1.0000
  C   C3        1.0  0.44840  0.35901  0.93642  1.0000
  C   C4        1.0  0.51228  0.14098  0.06358  1.0000
  C   C5        1.0  0.72903  0.60004  0.13144  1.0000
  C   C6        1.0  0.59720  0.90020  0.86867  1.0000
  C   C7        1.0  0.27095  0.39996  0.86856  1.0000
  C   C8        1.0  0.40278  0.09981  0.13134  1.0000
  C   C9        1.0  0.72769  0.60628  0.24486  1.0000
  C   C10       1.0  0.48246  0.89387  0.75522  1.0000
  C   C11       1.0  0.27231  0.39373  0.75514  1.0000
  C   C12       1.0  0.51753  0.10613  0.24479  1.0000
  C   C13       1.0  0.54988  0.65596  0.28812  1.0000
  C   C14       1.0  0.26150  0.84384  0.71172  1.0000
  C   C15       1.0  0.45012  0.34405  0.71187  1.0000
  C   C16       1.0  0.73850  0.15615  0.28828  1.0000
  C   C17       1.0  0.38037  0.69718  0.21511  1.0000
  C   C18       1.0  0.16517  0.80233  0.78458  1.0000
  C   C19       1.0  0.61961  0.30282  0.78488  1.0000
  C   C20       1.0  0.83482  0.19767  0.21542  1.0000
  C   C21       1.0  0.54948  0.67854  0.41353  1.0000
  C   C22       1.0  0.13590  0.82137  0.58629  1.0000
  C   C23       1.0  0.45053  0.32147  0.58647  1.0000
  C   C24       1.0  0.86411  0.17863  0.41372  1.0000
  C   C25       1.0  0.56646  0.46303  0.39179  1.0000
  C   C26       1.0  0.17490  0.03692  0.60817  1.0000
  C   C27       1.0  0.43356  0.53697  0.60821  1.0000
  C   C28       1.0  0.82509  0.96308  0.39183  1.0000
  C   C29       1.0  0.61210  0.60647  0.58255  1.0000
  C   C30       1.0  0.02940  0.89365  0.41734  1.0000
  C   C31       1.0  0.38793  0.39353  0.41745  1.0000
  C   C32       1.0  0.97060  0.10635  0.58266  1.0000
  N   N1        1.0  0.37983  0.68854  0.10452  1.0000
  N   N2        1.0  0.27512  0.81108  0.89523  1.0000
  N   N3        1.0  0.62016  0.31146  0.89548  1.0000
  N   N4        1.0  0.72487  0.18892  0.10477  1.0000
  N   N5        1.0  0.57643  0.58666  0.45797  1.0000
  N   N6        1.0  0.11862  0.91332  0.54193  1.0000
  N   N7        1.0  0.42359  0.41334  0.54202  1.0000
  N   N8        1.0  0.88138  0.08668  0.45807  1.0000
  Cl  Cl1       1.0  0.87346  0.60787  0.87067  1.0000
  Cl  Cl2       1.0  0.00276  0.89134  0.12911  1.0000
  Cl  Cl3       1.0  0.12654  0.39212  0.12933  1.0000
  Cl  Cl4       1.0  0.99722  0.10866  0.87089  1.0000
  O   O1        1.0  0.53306  0.78095  0.47157  1.0000
  O   O2        1.0  0.06138  0.71896  0.52817  1.0000
  O   O3        1.0  0.46695  0.21904  0.52842  1.0000
  O   O4        1.0  0.93864  0.28103  0.47183  1.0000
