data_image0
_chemical_formula_structural       Zn2H30C38N4O8
_chemical_formula_sum              "Zn2 H30 C38 N4 O8"
_cell_length_a       7.43864
_cell_length_b       9.87212
_cell_length_c       12.1005
_cell_angle_alpha    83.0295
_cell_angle_beta     85.7674
_cell_angle_gamma    68.3553

_space_group_name_H-M_alt    "P 1"
_space_group_IT_number       1

loop_
  _space_group_symop_operation_xyz
  'x, y, z'

loop_
  _atom_site_type_symbol
  _atom_site_label
  _atom_site_symmetry_multiplicity
  _atom_site_fract_x
  _atom_site_fract_y
  _atom_site_fract_z
  _atom_site_occupancy
  Zn  Zn1       1.0  0.18921  0.06631  0.02553  1.0000
  Zn  Zn2       1.0  0.81079  0.93369  0.97447  1.0000
  H   H1        1.0  0.95935  0.04644  0.60907  1.0000
  H   H2        1.0  0.04064  0.95356  0.39093  1.0000
  H   H3        1.0  0.10254  0.16883  0.45491  1.0000
  H   H4        1.0  0.89745  0.83117  0.54510  1.0000
  H   H5        1.0  0.40715  0.20867  0.48327  1.0000
  H   H6        1.0  0.59285  0.79133  0.51673  1.0000
  H   H7        1.0  0.57174  0.11762  0.66453  1.0000
  H   H8        1.0  0.42826  0.88238  0.33548  1.0000
  H   H9        1.0  0.42313  0.26531  0.92901  1.0000
  H   H10       1.0  0.57687  0.73469  0.07099  1.0000
  H   H11       1.0  0.23407  0.54566  0.81957  1.0000
  H   H12       1.0  0.76592  0.45434  0.18043  1.0000
  H   H13       1.0  0.77504  0.26272  0.00015  1.0000
  H   H14       1.0  0.22495  0.73728  0.99984  1.0000
  H   H15       1.0  0.73587  0.30630  0.85457  1.0000
  H   H16       1.0  0.26413  0.69369  0.14543  1.0000
  H   H17       1.0  0.65624  0.44803  0.94511  1.0000
  H   H18       1.0  0.34375  0.55197  0.05489  1.0000
  H   H19       1.0  0.89996  0.69468  0.78286  1.0000
  H   H20       1.0  0.10004  0.30532  0.21714  1.0000
  H   H21       1.0  0.72580  0.65836  0.87539  1.0000
  H   H22       1.0  0.27420  0.34164  0.12460  1.0000
  H   H23       1.0  0.00239  0.43771  0.63999  1.0000
  H   H24       1.0  0.99761  0.56229  0.36001  1.0000
  H   H25       1.0  0.84077  0.38586  0.49197  1.0000
  H   H26       1.0  0.15924  0.61413  0.50803  1.0000
  H   H27       1.0  0.28671  0.65837  0.62583  1.0000
  H   H28       1.0  0.71330  0.34163  0.37417  1.0000
  H   H29       1.0  0.44885  0.70781  0.77283  1.0000
  H   H30       1.0  0.55115  0.29219  0.22716  1.0000
  C   C1        1.0  0.08696  0.93838  0.80990  1.0000
  C   C2        1.0  0.91304  0.06161  0.19011  1.0000
  C   C3        1.0  0.18438  0.01324  0.72329  1.0000
  C   C4        1.0  0.81562  0.98676  0.27671  1.0000
  C   C5        1.0  0.09352  0.06309  0.62084  1.0000
  C   C6        1.0  0.90647  0.93691  0.37916  1.0000
  C   C7        1.0  0.17319  0.13267  0.53482  1.0000
  C   C8        1.0  0.82680  0.86734  0.46518  1.0000
  C   C9        1.0  0.34424  0.15471  0.55031  1.0000
  C   C10       1.0  0.65575  0.84530  0.44969  1.0000
  C   C11       1.0  0.43640  0.10401  0.65116  1.0000
  C   C12       1.0  0.56359  0.89600  0.34885  1.0000
  C   C13       1.0  0.35939  0.03215  0.73838  1.0000
  C   C14       1.0  0.64061  0.96786  0.26162  1.0000
  C   C15       1.0  0.47046  0.97368  0.84292  1.0000
  C   C16       1.0  0.52954  0.02632  0.15708  1.0000
  C   C17       1.0  0.27202  0.32477  0.91086  1.0000
  C   C18       1.0  0.72797  0.67523  0.08914  1.0000
  C   C19       1.0  0.18185  0.46121  0.85688  1.0000
  C   C20       1.0  0.81815  0.53879  0.14312  1.0000
  C   C21       1.0  0.96099  0.36177  0.91302  1.0000
  C   C22       1.0  0.03900  0.63822  0.08698  1.0000
  C   C23       1.0  0.77140  0.34369  0.92920  1.0000
  C   C24       1.0  0.22860  0.65631  0.07080  1.0000
  C   C25       1.0  0.83393  0.61277  0.80983  1.0000
  C   C26       1.0  0.16607  0.38723  0.19017  1.0000
  C   C27       1.0  0.73817  0.57930  0.71676  1.0000
  C   C28       1.0  0.26183  0.42070  0.28324  1.0000
  C   C29       1.0  0.84500  0.48796  0.63645  1.0000
  C   C30       1.0  0.15501  0.51204  0.36354  1.0000
  C   C31       1.0  0.75186  0.45770  0.55238  1.0000
  C   C32       1.0  0.24814  0.54230  0.44762  1.0000
  C   C33       1.0  0.54900  0.51668  0.54478  1.0000
  C   C34       1.0  0.45100  0.48332  0.45522  1.0000
  C   C35       1.0  0.44391  0.60837  0.62613  1.0000
  C   C36       1.0  0.55609  0.39163  0.37387  1.0000
  C   C37       1.0  0.53676  0.63830  0.71055  1.0000
  C   C38       1.0  0.46324  0.36171  0.28945  1.0000
  N   N1        1.0  0.13334  0.26448  0.94570  1.0000
  N   N2        1.0  0.86665  0.73552  0.05430  1.0000
  N   N3        1.0  0.98705  0.48285  0.85915  1.0000
  N   N4        1.0  0.01295  0.51715  0.14085  1.0000
  O   O1        1.0  0.39229  0.92575  0.92950  1.0000
  O   O2        1.0  0.60772  0.07425  0.07050  1.0000
  O   O3        1.0  0.64280  0.97130  0.83967  1.0000
  O   O4        1.0  0.35721  0.02870  0.16033  1.0000
  O   O5        1.0  0.98436  0.01904  0.88602  1.0000
  O   O6        1.0  0.01565  0.98095  0.11398  1.0000
  O   O7        1.0  0.09785  0.81099  0.80102  1.0000
  O   O8        1.0  0.90216  0.18900  0.19899  1.0000
