data_image0
_chemical_formula_structural       Zn2H24C44N4O8
_chemical_formula_sum              "Zn2 H24 C44 N4 O8"
_cell_length_a       9.13419
_cell_length_b       10.2262
_cell_length_c       13.219
_cell_angle_alpha    90.1534
_cell_angle_beta     93.117
_cell_angle_gamma    103.345

_space_group_name_H-M_alt    "P 1"
_space_group_IT_number       1

loop_
  _space_group_symop_operation_xyz
  'x, y, z'

loop_
  _atom_site_type_symbol
  _atom_site_label
  _atom_site_symmetry_multiplicity
  _atom_site_fract_x
  _atom_site_fract_y
  _atom_site_fract_z
  _atom_site_occupancy
  Zn  Zn1       1.0  0.85055  0.12109  0.96646  1.0000
  Zn  Zn2       1.0  0.14945  0.87892  0.03353  1.0000
  H   H1        1.0  0.11018  0.41035  0.05107  1.0000
  H   H2        1.0  0.88981  0.58965  0.94893  1.0000
  H   H3        1.0  0.90150  0.28535  0.16170  1.0000
  H   H4        1.0  0.09849  0.71466  0.83829  1.0000
  H   H5        1.0  0.58577  0.94017  0.07013  1.0000
  H   H6        1.0  0.41423  0.05984  0.92987  1.0000
  H   H7        1.0  0.53900  0.66898  0.13874  1.0000
  H   H8        1.0  0.46099  0.33102  0.86126  1.0000
  H   H9        1.0  0.65357  0.46772  0.15641  1.0000
  H   H10       1.0  0.34642  0.53229  0.84359  1.0000
  H   H11       1.0  0.11313  0.31233  0.87734  1.0000
  H   H12       1.0  0.88686  0.68768  0.12265  1.0000
  H   H13       1.0  0.77298  0.30161  0.32337  1.0000
  H   H14       1.0  0.22702  0.69839  0.67663  1.0000
  H   H15       1.0  0.44609  0.93796  0.22462  1.0000
  H   H16       1.0  0.55391  0.06204  0.77538  1.0000
  H   H17       1.0  0.49188  0.23891  0.11861  1.0000
  H   H18       1.0  0.50811  0.76109  0.88139  1.0000
  H   H19       1.0  0.83535  0.95665  0.76763  1.0000
  H   H20       1.0  0.16465  0.04335  0.23235  1.0000
  H   H21       1.0  0.28376  0.32271  0.73305  1.0000
  H   H22       1.0  0.71626  0.67728  0.26696  1.0000
  H   H23       1.0  0.99185  0.95004  0.61934  1.0000
  H   H24       1.0  0.00818  0.04996  0.38066  1.0000
  C   C1        1.0  0.19550  0.17091  0.06473  1.0000
  C   C2        1.0  0.80449  0.82910  0.93527  1.0000
  C   C3        1.0  0.22843  0.42211  0.07592  1.0000
  C   C4        1.0  0.77156  0.57789  0.92408  1.0000
  C   C5        1.0  0.29123  0.30970  0.08571  1.0000
  C   C6        1.0  0.70876  0.69030  0.91428  1.0000
  C   C7        1.0  0.31873  0.55101  0.09510  1.0000
  C   C8        1.0  0.68126  0.44899  0.90490  1.0000
  C   C9        1.0  0.25558  0.67230  0.07792  1.0000
  C   C10       1.0  0.74440  0.32770  0.92208  1.0000
  C   C11       1.0  0.80053  0.21119  0.18023  1.0000
  C   C12       1.0  0.19947  0.78882  0.81977  1.0000
  C   C13       1.0  0.62483  0.01766  0.12843  1.0000
  C   C14       1.0  0.37517  0.98234  0.87157  1.0000
  C   C15       1.0  0.47130  0.56710  0.12581  1.0000
  C   C16       1.0  0.52868  0.43290  0.87420  1.0000
  C   C17       1.0  0.53398  0.45548  0.13539  1.0000
  C   C18       1.0  0.46601  0.54453  0.86461  1.0000
  C   C19       1.0  0.09193  0.23424  0.81847  1.0000
  C   C20       1.0  0.90807  0.76577  0.18152  1.0000
  C   C21       1.0  0.72947  0.21927  0.26950  1.0000
  C   C22       1.0  0.27053  0.78073  0.73049  1.0000
  C   C23       1.0  0.54685  0.01699  0.21580  1.0000
  C   C24       1.0  0.45316  0.98301  0.78421  1.0000
  C   C25       1.0  0.59752  0.12125  0.28800  1.0000
  C   C26       1.0  0.40249  0.87875  0.71201  1.0000
  C   C27       1.0  0.44458  0.32719  0.11441  1.0000
  C   C28       1.0  0.55542  0.67282  0.88559  1.0000
  C   C29       1.0  0.93624  0.03528  0.75723  1.0000
  C   C30       1.0  0.06377  0.96472  0.24277  1.0000
  C   C31       1.0  0.15344  0.13556  0.66486  1.0000
  C   C32       1.0  0.84659  0.86443  0.33516  1.0000
  C   C33       1.0  0.51244  0.12835  0.37287  1.0000
  C   C34       1.0  0.48758  0.87164  0.62714  1.0000
  C   C35       1.0  0.18558  0.23984  0.73857  1.0000
  C   C36       1.0  0.81445  0.76015  0.26145  1.0000
  C   C37       1.0  0.02332  0.03202  0.67479  1.0000
  C   C38       1.0  0.97671  0.96797  0.32521  1.0000
  C   C39       1.0  0.42884  0.13133  0.44197  1.0000
  C   C40       1.0  0.57119  0.86865  0.55805  1.0000
  C   C41       1.0  0.33560  0.13379  0.51704  1.0000
  C   C42       1.0  0.66445  0.86619  0.48298  1.0000
  C   C43       1.0  0.24936  0.13477  0.58492  1.0000
  C   C44       1.0  0.75069  0.86521  0.41510  1.0000
  N   N1        1.0  0.74852  0.11312  0.11017  1.0000
  N   N2        1.0  0.25147  0.88688  0.88983  1.0000
  N   N3        1.0  0.97026  0.13289  0.82880  1.0000
  N   N4        1.0  0.02973  0.86711  0.17119  1.0000
  O   O1        1.0  0.26377  0.07465  0.06271  1.0000
  O   O2        1.0  0.73623  0.92535  0.93728  1.0000
  O   O3        1.0  0.05419  0.15579  0.05367  1.0000
  O   O4        1.0  0.94580  0.84421  0.94632  1.0000
  O   O5        1.0  0.12321  0.65750  0.03631  1.0000
  O   O6        1.0  0.87678  0.34250  0.96368  1.0000
  O   O7        1.0  0.33662  0.78840  0.10263  1.0000
  O   O8        1.0  0.66337  0.21160  0.89736  1.0000
