data_image0
_chemical_formula_structural       Zn2H28C52N4O8
_chemical_formula_sum              "Zn2 H28 C52 N4 O8"
_cell_length_a       9.00278
_cell_length_b       12.733
_cell_length_c       13.266
_cell_angle_alpha    91.587
_cell_angle_beta     93.2291
_cell_angle_gamma    102.279

_space_group_name_H-M_alt    "P 1"
_space_group_IT_number       1

loop_
  _space_group_symop_operation_xyz
  'x, y, z'

loop_
  _atom_site_type_symbol
  _atom_site_label
  _atom_site_symmetry_multiplicity
  _atom_site_fract_x
  _atom_site_fract_y
  _atom_site_fract_z
  _atom_site_occupancy
  Zn  Zn1       1.0  0.15516  0.40335  0.03762  1.0000
  Zn  Zn2       1.0  0.84484  0.59666  0.96237  1.0000
  H   H1        1.0  0.41094  0.54987  0.93288  1.0000
  H   H2        1.0  0.58906  0.45014  0.06711  1.0000
  H   H3        1.0  0.09885  0.82295  0.05139  1.0000
  H   H4        1.0  0.90115  0.17705  0.94861  1.0000
  H   H5        1.0  0.10212  0.26907  0.84156  1.0000
  H   H6        1.0  0.89787  0.73094  0.15844  1.0000
  H   H7        1.0  0.11996  0.02055  0.05347  1.0000
  H   H8        1.0  0.88004  0.97946  0.94653  1.0000
  H   H9        1.0  0.49594  0.69538  0.12064  1.0000
  H   H10       1.0  0.50406  0.30463  0.87936  1.0000
  H   H11       1.0  0.65231  0.88009  0.15730  1.0000
  H   H12       1.0  0.34768  0.11991  0.84269  1.0000
  H   H13       1.0  0.90070  0.24533  0.12538  1.0000
  H   H14       1.0  0.09931  0.75466  0.87462  1.0000
  H   H15       1.0  0.54695  0.23466  0.13824  1.0000
  H   H16       1.0  0.45305  0.76534  0.86176  1.0000
  H   H17       1.0  0.72791  0.23497  0.26914  1.0000
  H   H18       1.0  0.27210  0.76501  0.73086  1.0000
  H   H19       1.0  0.54810  0.55128  0.77690  1.0000
  H   H20       1.0  0.45189  0.44872  0.22309  1.0000
  H   H21       1.0  0.22881  0.25516  0.67891  1.0000
  H   H22       1.0  0.77119  0.74483  0.32110  1.0000
  H   H23       1.0  0.15532  0.54055  0.23233  1.0000
  H   H24       1.0  0.84466  0.45945  0.76766  1.0000
  H   H25       1.0  0.67124  0.07794  0.16364  1.0000
  H   H26       1.0  0.32877  0.92207  0.83636  1.0000
  H   H27       1.0  0.99437  0.54504  0.37912  1.0000
  H   H28       1.0  0.00562  0.45495  0.62088  1.0000
  C   C1        1.0  0.19530  0.63643  0.06605  1.0000
  C   C2        1.0  0.80470  0.36357  0.93395  1.0000
  C   C3        1.0  0.37273  0.48679  0.87426  1.0000
  C   C4        1.0  0.62727  0.51322  0.12573  1.0000
  C   C5        1.0  0.21941  0.83568  0.07578  1.0000
  C   C6        1.0  0.78059  0.16433  0.92423  1.0000
  C   C7        1.0  0.32558  0.13585  0.09554  1.0000
  C   C8        1.0  0.67442  0.86415  0.90446  1.0000
  C   C9        1.0  0.28757  0.74844  0.08607  1.0000
  C   C10       1.0  0.71243  0.25157  0.91393  1.0000
  C   C11       1.0  0.46464  0.95874  0.12518  1.0000
  C   C12       1.0  0.53535  0.04127  0.87482  1.0000
  C   C13       1.0  0.30572  0.94195  0.09384  1.0000
  C   C14       1.0  0.69428  0.05805  0.90616  1.0000
  C   C15       1.0  0.25478  0.22990  0.07527  1.0000
  C   C16       1.0  0.74521  0.77010  0.92472  1.0000
  C   C17       1.0  0.40036  0.40203  0.71395  1.0000
  C   C18       1.0  0.59963  0.59797  0.28606  1.0000
  C   C19       1.0  0.20090  0.32931  0.82263  1.0000
  C   C20       1.0  0.79910  0.67069  0.17737  1.0000
  C   C21       1.0  0.23976  0.03238  0.07929  1.0000
  C   C22       1.0  0.76024  0.96763  0.92071  1.0000
  C   C23       1.0  0.44511  0.76537  0.11548  1.0000
  C   C24       1.0  0.55489  0.23464  0.88452  1.0000
  C   C25       1.0  0.53091  0.86770  0.13549  1.0000
  C   C26       1.0  0.46909  0.13231  0.86451  1.0000
  C   C27       1.0  0.91608  0.30955  0.18360  1.0000
  C   C28       1.0  0.08392  0.69043  0.81640  1.0000
  C   C29       1.0  0.48499  0.39580  0.62850  1.0000
  C   C30       1.0  0.51501  0.60419  0.37150  1.0000
  C   C31       1.0  0.48213  0.15210  0.12776  1.0000
  C   C32       1.0  0.51787  0.84791  0.87224  1.0000
  C   C33       1.0  0.82130  0.30408  0.26316  1.0000
  C   C34       1.0  0.17871  0.69590  0.73685  1.0000
  C   C35       1.0  0.66166  0.39091  0.48335  1.0000
  C   C36       1.0  0.33837  0.60908  0.51666  1.0000
  C   C37       1.0  0.44931  0.48713  0.78626  1.0000
  C   C38       1.0  0.55069  0.51288  0.21373  1.0000
  C   C39       1.0  0.56837  0.39310  0.55888  1.0000
  C   C40       1.0  0.43165  0.60688  0.44113  1.0000
  C   C41       1.0  0.27091  0.32241  0.73281  1.0000
  C   C42       1.0  0.72909  0.67758  0.26720  1.0000
  C   C43       1.0  0.05885  0.47489  0.24314  1.0000
  C   C44       1.0  0.94114  0.52510  0.75685  1.0000
  C   C45       1.0  0.54978  0.06581  0.14179  1.0000
  C   C46       1.0  0.45022  0.93419  0.85821  1.0000
  C   C47       1.0  0.74818  0.38997  0.41523  1.0000
  C   C48       1.0  0.25183  0.61002  0.58477  1.0000
  C   C49       1.0  0.84554  0.39021  0.33560  1.0000
  C   C50       1.0  0.15447  0.60978  0.66440  1.0000
  C   C51       1.0  0.96957  0.47690  0.32484  1.0000
  C   C52       1.0  0.03043  0.52308  0.67517  1.0000
  N   N1        1.0  0.03224  0.39385  0.17277  1.0000
  N   N2        1.0  0.96774  0.60615  0.82723  1.0000
  N   N3        1.0  0.25185  0.40916  0.89302  1.0000
  N   N4        1.0  0.74815  0.59086  0.10698  1.0000
  O   O1        1.0  0.26776  0.55984  0.07047  1.0000
  O   O2        1.0  0.73224  0.44017  0.92953  1.0000
  O   O3        1.0  0.05272  0.62241  0.04942  1.0000
  O   O4        1.0  0.94728  0.37759  0.95058  1.0000
  O   O5        1.0  0.12058  0.21399  0.03381  1.0000
  O   O6        1.0  0.87942  0.78601  0.96619  1.0000
  O   O7        1.0  0.33208  0.32506  0.09881  1.0000
  O   O8        1.0  0.66791  0.67494  0.90118  1.0000
