data_image0
_chemical_formula_structural       MnH12C18N2O6F4
_chemical_formula_sum              "Mn1 H12 C18 N2 O6 F4"
_cell_length_a       6.99999
_cell_length_b       7.81468
_cell_length_c       8.37463
_cell_angle_alpha    92.6537
_cell_angle_beta     108.637
_cell_angle_gamma    89.9496

_space_group_name_H-M_alt    "P 1"
_space_group_IT_number       1

loop_
  _space_group_symop_operation_xyz
  'x, y, z'

loop_
  _atom_site_type_symbol
  _atom_site_label
  _atom_site_symmetry_multiplicity
  _atom_site_fract_x
  _atom_site_fract_y
  _atom_site_fract_z
  _atom_site_occupancy
  Mn  Mn1       1.0  0.00001  0.00001  0.00000  1.0000
  H   H1        1.0  0.12302  0.97866  0.39850  1.0000
  H   H2        1.0  0.87700  0.02133  0.60150  1.0000
  H   H3        1.0  0.13053  0.77633  0.61619  1.0000
  H   H4        1.0  0.86953  0.22366  0.38380  1.0000
  H   H5        1.0  0.87623  0.39305  0.21242  1.0000
  H   H6        1.0  0.12373  0.60697  0.78758  1.0000
  H   H7        1.0  0.87444  0.61388  0.01368  1.0000
  H   H8        1.0  0.12551  0.38614  0.98631  1.0000
  H   H9        1.0  0.61821  0.04942  0.91140  1.0000
  H   H10       1.0  0.38179  0.95058  0.08860  1.0000
  H   H11       1.0  0.65982  0.13122  0.09462  1.0000
  H   H12       1.0  0.34017  0.86878  0.90538  1.0000
  C   C1        1.0  0.06622  0.84800  0.36248  1.0000
  C   C2        1.0  0.93379  0.15200  0.63752  1.0000
  C   C3        1.0  0.07001  0.73232  0.48455  1.0000
  C   C4        1.0  0.93001  0.26767  0.51544  1.0000
  C   C5        1.0  0.99962  0.56338  0.43674  1.0000
  C   C6        1.0  0.00038  0.43662  0.56326  1.0000
  C   C7        1.0  0.92992  0.52121  0.26258  1.0000
  C   C8        1.0  0.07007  0.47880  0.73741  1.0000
  C   C9        1.0  0.92951  0.64507  0.14878  1.0000
  C   C10       1.0  0.07047  0.35494  0.85122  1.0000
  C   C11       1.0  0.63333  0.79423  0.74135  1.0000
  C   C12       1.0  0.36667  0.20577  0.25865  1.0000
  C   C13       1.0  0.54121  0.65580  0.44657  1.0000
  C   C14       1.0  0.45881  0.34418  0.55345  1.0000
  C   C15       1.0  0.56486  0.64180  0.61697  1.0000
  C   C16       1.0  0.43513  0.35819  0.38304  1.0000
  C   C17       1.0  0.52295  0.48332  0.66854  1.0000
  C   C18       1.0  0.47705  0.51667  0.33148  1.0000
  N   N1        1.0  0.99554  0.80727  0.19580  1.0000
  N   N2        1.0  0.00445  0.19273  0.80419  1.0000
  O   O1        1.0  0.49910  0.87825  0.78005  1.0000
  O   O2        1.0  0.50090  0.12174  0.21997  1.0000
  O   O3        1.0  0.82195  0.82476  0.79461  1.0000
  O   O4        1.0  0.17804  0.17527  0.20537  1.0000
  O   O5        1.0  0.71829  0.12112  0.00186  1.0000
  O   O6        1.0  0.28171  0.87887  0.99815  1.0000
  F   F1        1.0  0.58145  0.80790  0.39167  1.0000
  F   F2        1.0  0.41856  0.19209  0.60834  1.0000
  F   F3        1.0  0.54323  0.46453  0.83322  1.0000
  F   F4        1.0  0.45676  0.53545  0.16680  1.0000
