data_image0
_chemical_formula_structural       Mn2H24C36N4Cl8O12
_chemical_formula_sum              "Mn2 H24 C36 N4 Cl8 O12"
_cell_length_a       8.52727
_cell_length_b       8.52067
_cell_length_c       14.5732
_cell_angle_alpha    104.256
_cell_angle_beta     106.78
_cell_angle_gamma    94.8101

_space_group_name_H-M_alt    "P 1"
_space_group_IT_number       1

loop_
  _space_group_symop_operation_xyz
  'x, y, z'

loop_
  _atom_site_type_symbol
  _atom_site_label
  _atom_site_symmetry_multiplicity
  _atom_site_fract_x
  _atom_site_fract_y
  _atom_site_fract_z
  _atom_site_occupancy
  Mn  Mn1       1.0  0.27097  0.02082  0.25003  1.0000
  Mn  Mn2       1.0  0.72903  0.97918  0.74997  1.0000
  H   H1        1.0  0.90249  0.98126  0.24283  1.0000
  H   H2        1.0  0.23824  0.65868  0.25684  1.0000
  H   H3        1.0  0.09751  0.01874  0.75717  1.0000
  H   H4        1.0  0.76175  0.34132  0.74315  1.0000
  H   H5        1.0  0.67754  0.77268  0.24085  1.0000
  H   H6        1.0  0.03111  0.43543  0.25805  1.0000
  H   H7        1.0  0.32245  0.22732  0.75915  1.0000
  H   H8        1.0  0.96888  0.56457  0.74195  1.0000
  H   H9        1.0  0.81811  0.24881  0.19194  1.0000
  H   H10       1.0  0.55710  0.62594  0.30693  1.0000
  H   H11       1.0  0.18189  0.75120  0.80807  1.0000
  H   H12       1.0  0.44290  0.37406  0.69307  1.0000
  H   H13       1.0  0.60014  0.04301  0.19868  1.0000
  H   H14       1.0  0.34499  0.40177  0.30121  1.0000
  H   H15       1.0  0.39986  0.95699  0.80132  1.0000
  H   H16       1.0  0.65501  0.59824  0.69879  1.0000
  H   H17       1.0  0.38852  0.07180  0.43952  1.0000
  H   H18       1.0  0.13219  0.94890  0.06057  1.0000
  H   H19       1.0  0.61148  0.92820  0.56048  1.0000
  H   H20       1.0  0.86782  0.05109  0.93942  1.0000
  H   H21       1.0  0.54977  0.02683  0.41198  1.0000
  H   H22       1.0  0.11519  0.13788  0.08806  1.0000
  H   H23       1.0  0.45023  0.97317  0.58802  1.0000
  H   H24       1.0  0.88482  0.86211  0.91194  1.0000
  C   C1        1.0  0.92471  0.85834  0.24587  1.0000
  C   C2        1.0  0.11238  0.67805  0.25367  1.0000
  C   C3        1.0  0.07529  0.14166  0.75413  1.0000
  C   C4        1.0  0.88761  0.32195  0.74633  1.0000
  C   C5        1.0  0.80074  0.74186  0.24591  1.0000
  C   C6        1.0  0.99557  0.55384  0.25313  1.0000
  C   C7        1.0  0.19925  0.25814  0.75409  1.0000
  C   C8        1.0  0.00442  0.44616  0.74686  1.0000
  C   C9        1.0  0.83504  0.58474  0.24940  1.0000
  C   C10       1.0  0.16495  0.41526  0.75060  1.0000
  C   C11       1.0  0.70731  0.45704  0.24940  1.0000
  C   C12       1.0  0.29268  0.54296  0.75060  1.0000
  C   C13       1.0  0.71811  0.28969  0.21937  1.0000
  C   C14       1.0  0.57037  0.49837  0.27967  1.0000
  C   C15       1.0  0.28188  0.71032  0.78063  1.0000
  C   C16       1.0  0.42963  0.50164  0.72033  1.0000
  C   C17       1.0  0.59591  0.17380  0.22167  1.0000
  C   C18       1.0  0.45243  0.37416  0.27793  1.0000
  C   C19       1.0  0.40409  0.82620  0.77833  1.0000
  C   C20       1.0  0.54756  0.62584  0.72207  1.0000
  C   C21       1.0  0.41410  0.62626  0.03268  1.0000
  C   C22       1.0  0.09350  0.38133  0.46728  1.0000
  C   C23       1.0  0.58592  0.37374  0.96732  1.0000
  C   C24       1.0  0.90649  0.61867  0.53271  1.0000
  C   C25       1.0  0.56015  0.66305  0.01085  1.0000
  C   C26       1.0  0.15226  0.54931  0.48930  1.0000
  C   C27       1.0  0.43987  0.33695  0.98915  1.0000
  C   C28       1.0  0.84774  0.45070  0.51071  1.0000
  C   C29       1.0  0.35438  0.46208  0.02110  1.0000
  C   C30       1.0  0.94088  0.33318  0.47874  1.0000
  C   C31       1.0  0.64563  0.53792  0.97890  1.0000
  C   C32       1.0  0.05912  0.66682  0.52126  1.0000
  C   C33       1.0  0.32378  0.76188  0.07028  1.0000
  C   C34       1.0  0.19154  0.25348  0.42967  1.0000
  C   C35       1.0  0.67622  0.23813  0.92971  1.0000
  C   C36       1.0  0.80845  0.74652  0.57033  1.0000
  N   N1        1.0  0.07860  0.82825  0.24991  1.0000
  N   N2        1.0  0.92140  0.17175  0.75009  1.0000
  N   N3        1.0  0.46408  0.21389  0.24997  1.0000
  N   N4        1.0  0.53592  0.78611  0.75003  1.0000
  Cl  Cl1       1.0  0.63485  0.86365  0.02312  1.0000
  Cl  Cl2       1.0  0.34036  0.61174  0.47688  1.0000
  Cl  Cl3       1.0  0.36516  0.13636  0.97688  1.0000
  Cl  Cl4       1.0  0.65965  0.38826  0.52313  1.0000
  Cl  Cl5       1.0  0.17156  0.41462  0.04438  1.0000
  Cl  Cl6       1.0  0.87009  0.12697  0.45526  1.0000
  Cl  Cl7       1.0  0.82845  0.58538  0.95562  1.0000
  Cl  Cl8       1.0  0.12991  0.87303  0.54474  1.0000
  O   O1        1.0  0.37631  0.82816  0.16461  1.0000
  O   O2        1.0  0.16347  0.21154  0.33532  1.0000
  O   O3        1.0  0.62370  0.17184  0.83540  1.0000
  O   O4        1.0  0.83653  0.78845  0.66467  1.0000
  O   O5        1.0  0.20727  0.79628  0.00645  1.0000
  O   O6        1.0  0.28999  0.20108  0.49357  1.0000
  O   O7        1.0  0.79274  0.20372  0.99355  1.0000
  O   O8        1.0  0.71000  0.79893  0.50642  1.0000
  O   O9        1.0  0.42983  0.99224  0.39100  1.0000
  O   O10       1.0  0.10135  0.03890  0.10911  1.0000
  O   O11       1.0  0.57016  0.00776  0.60900  1.0000
  O   O12       1.0  0.89866  0.96109  0.89089  1.0000
