data_image0
_chemical_formula_structural       MnH12C18N2O6F4
_chemical_formula_sum              "Mn1 H12 C18 N2 O6 F4"
_cell_length_a       6.90331
_cell_length_b       7.67255
_cell_length_c       8.18301
_cell_angle_alpha    90.7435
_cell_angle_beta     108.977
_cell_angle_gamma    93.7524

_space_group_name_H-M_alt    "P 1"
_space_group_IT_number       1

loop_
  _space_group_symop_operation_xyz
  'x, y, z'

loop_
  _atom_site_type_symbol
  _atom_site_label
  _atom_site_symmetry_multiplicity
  _atom_site_fract_x
  _atom_site_fract_y
  _atom_site_fract_z
  _atom_site_occupancy
  Mn  Mn1       1.0  0.00000  0.50000  0.50000  1.0000
  H   H1        1.0  0.89021  0.11738  0.50191  1.0000
  H   H2        1.0  0.10978  0.88262  0.49810  1.0000
  H   H3        1.0  0.88586  0.89094  0.70513  1.0000
  H   H4        1.0  0.11415  0.10906  0.29488  1.0000
  H   H5        1.0  0.12218  0.28806  0.11508  1.0000
  H   H6        1.0  0.87782  0.71195  0.88493  1.0000
  H   H7        1.0  0.11377  0.49921  0.89360  1.0000
  H   H8        1.0  0.88623  0.50080  0.10641  1.0000
  H   H9        1.0  0.30444  0.39003  0.38881  1.0000
  H   H10       1.0  0.69555  0.60997  0.61118  1.0000
  H   H11       1.0  0.36893  0.45747  0.58363  1.0000
  H   H12       1.0  0.63107  0.54252  0.41638  1.0000
  C   C1        1.0  0.93831  0.15136  0.63901  1.0000
  C   C2        1.0  0.06168  0.84864  0.36099  1.0000
  C   C3        1.0  0.93691  0.02350  0.75652  1.0000
  C   C4        1.0  0.06309  0.97649  0.24349  1.0000
  C   C5        1.0  0.00020  0.06536  0.93511  1.0000
  C   C6        1.0  0.99982  0.93465  0.06490  1.0000
  C   C7        1.0  0.06533  0.24231  0.98069  1.0000
  C   C8        1.0  0.93468  0.75770  0.01931  1.0000
  C   C9        1.0  0.06157  0.36349  0.85603  1.0000
  C   C10       1.0  0.93843  0.63651  0.14398  1.0000
  C   C11       1.0  0.47828  0.02299  0.82806  1.0000
  C   C12       1.0  0.52172  0.97701  0.17193  1.0000
  C   C13       1.0  0.43496  0.85620  0.87847  1.0000
  C   C14       1.0  0.56504  0.14381  0.12152  1.0000
  C   C15       1.0  0.45742  0.83655  0.05256  1.0000
  C   C16       1.0  0.54258  0.16345  0.94743  1.0000
  C   C17       1.0  0.36586  0.70295  0.74943  1.0000
  C   C18       1.0  0.63414  0.29705  0.25057  1.0000
  N   N1        1.0  0.99733  0.32275  0.68375  1.0000
  N   N2        1.0  0.00266  0.67725  0.31626  1.0000
  O   O1        1.0  0.17124  0.66870  0.68733  1.0000
  O   O2        1.0  0.82876  0.33129  0.31266  1.0000
  O   O3        1.0  0.49991  0.62048  0.71306  1.0000
  O   O4        1.0  0.50009  0.37952  0.28694  1.0000
  O   O5        1.0  0.25685  0.38723  0.49016  1.0000
  O   O6        1.0  0.74315  0.61277  0.50984  1.0000
  F   F1        1.0  0.45821  0.04966  0.66040  1.0000
  F   F2        1.0  0.54178  0.95035  0.33958  1.0000
  F   F3        1.0  0.41612  0.67728  0.10774  1.0000
  F   F4        1.0  0.58387  0.32272  0.89225  1.0000
