data_image0
_chemical_formula_structural       Cd2Mo8H52C36N8O30
_chemical_formula_sum              "Cd2 Mo8 H52 C36 N8 O30"
_cell_length_a       11.8355
_cell_length_b       13.3062
_cell_length_c       13.2994
_cell_angle_alpha    75.7925
_cell_angle_beta     65.0369
_cell_angle_gamma    67.0961

_space_group_name_H-M_alt    "P 1"
_space_group_IT_number       1

loop_
  _space_group_symop_operation_xyz
  'x, y, z'

loop_
  _atom_site_type_symbol
  _atom_site_label
  _atom_site_symmetry_multiplicity
  _atom_site_fract_x
  _atom_site_fract_y
  _atom_site_fract_z
  _atom_site_occupancy
  Cd  Cd1       1.0  0.50000  0.00000  0.50000  1.0000
  Cd  Cd2       1.0  0.50000  0.50000  0.00000  1.0000
  Mo  Mo1       1.0  0.12389  0.10257  0.62014  1.0000
  Mo  Mo2       1.0  0.87611  0.89743  0.37986  1.0000
  Mo  Mo3       1.0  0.27302  0.06926  0.34138  1.0000
  Mo  Mo4       1.0  0.72699  0.93074  0.65862  1.0000
  Mo  Mo5       1.0  0.85156  0.03343  0.77901  1.0000
  Mo  Mo6       1.0  0.14844  0.96657  0.22099  1.0000
  Mo  Mo7       1.0  0.09800  0.85631  0.53203  1.0000
  Mo  Mo8       1.0  0.90201  0.14368  0.46797  1.0000
  H   H1        1.0  0.30443  0.21384  0.60952  1.0000
  H   H2        1.0  0.69556  0.78617  0.39048  1.0000
  H   H3        1.0  0.28897  0.40815  0.60021  1.0000
  H   H4        1.0  0.71103  0.59185  0.39980  1.0000
  H   H5        1.0  0.64265  0.35124  0.30471  1.0000
  H   H6        1.0  0.35734  0.64877  0.69529  1.0000
  H   H7        1.0  0.64253  0.15933  0.32497  1.0000
  H   H8        1.0  0.35746  0.84067  0.67503  1.0000
  H   H9        1.0  0.53176  0.53396  0.37421  1.0000
  H   H10       1.0  0.46823  0.46604  0.62579  1.0000
  H   H11       1.0  0.37116  0.56614  0.47895  1.0000
  H   H12       1.0  0.62884  0.43387  0.52105  1.0000
  H   H13       1.0  0.37141  0.33470  0.17967  1.0000
  H   H14       1.0  0.62860  0.66530  0.82034  1.0000
  H   H15       1.0  0.21276  0.32325  0.37430  1.0000
  H   H16       1.0  0.78725  0.67675  0.62571  1.0000
  H   H17       1.0  0.15332  0.66407  0.38065  1.0000
  H   H18       1.0  0.84667  0.33594  0.61935  1.0000
  H   H19       1.0  0.31413  0.66206  0.18655  1.0000
  H   H20       1.0  0.68587  0.33794  0.81345  1.0000
  H   H21       1.0  0.09068  0.41268  0.55655  1.0000
  H   H22       1.0  0.90932  0.58732  0.44345  1.0000
  H   H23       1.0  0.04965  0.55709  0.55272  1.0000
  H   H24       1.0  0.95034  0.44291  0.44729  1.0000
  H   H25       1.0  0.59235  0.60135  0.16210  1.0000
  H   H26       1.0  0.40766  0.39864  0.83790  1.0000
  H   H27       1.0  0.62093  0.69636  0.25287  1.0000
  H   H28       1.0  0.37907  0.30364  0.74713  1.0000
  H   H29       1.0  0.52026  0.83706  0.25267  1.0000
  H   H30       1.0  0.47974  0.16294  0.74733  1.0000
  H   H31       1.0  0.69249  0.79968  0.16987  1.0000
  H   H32       1.0  0.30751  0.20032  0.83013  1.0000
  H   H33       1.0  0.53318  0.84001  0.96661  1.0000
  H   H34       1.0  0.46682  0.15998  0.03340  1.0000
  H   H35       1.0  0.63973  0.88675  0.99266  1.0000
  H   H36       1.0  0.36026  0.11325  0.00734  1.0000
  H   H37       1.0  0.46702  0.92505  0.07759  1.0000
  H   H38       1.0  0.53298  0.07495  0.92241  1.0000
  H   H39       1.0  0.41820  0.75445  0.90069  1.0000
  H   H40       1.0  0.58180  0.24555  0.09931  1.0000
  H   H41       1.0  0.17776  0.97420  0.97072  1.0000
  H   H42       1.0  0.82225  0.02580  0.02928  1.0000
  H   H43       1.0  0.18900  0.97521  0.83167  1.0000
  H   H44       1.0  0.81100  0.02479  0.16832  1.0000
  H   H45       1.0  0.33477  0.92630  0.86324  1.0000
  H   H46       1.0  0.66523  0.07370  0.13676  1.0000
  H   H47       1.0  0.06131  0.83145  0.88455  1.0000
  H   H48       1.0  0.93869  0.16855  0.11545  1.0000
  H   H49       1.0  0.02332  0.86089  0.02117  1.0000
  H   H50       1.0  0.97668  0.13911  0.97883  1.0000
  H   H51       1.0  0.10296  0.72215  0.98625  1.0000
  H   H52       1.0  0.89704  0.27785  0.01375  1.0000
  C   C1        1.0  0.37653  0.24807  0.54293  1.0000
  C   C2        1.0  0.62346  0.75193  0.45707  1.0000
  C   C3        1.0  0.36936  0.35551  0.53752  1.0000
  C   C4        1.0  0.63064  0.64449  0.46249  1.0000
  C   C5        1.0  0.46665  0.39498  0.45276  1.0000
  C   C6        1.0  0.53334  0.60502  0.54724  1.0000
  C   C7        1.0  0.56477  0.32465  0.37282  1.0000
  C   C8        1.0  0.43522  0.67535  0.62718  1.0000
  C   C9        1.0  0.56535  0.21809  0.38303  1.0000
  C   C10       1.0  0.43465  0.78191  0.61697  1.0000
  C   C11       1.0  0.47042  0.50490  0.45621  1.0000
  C   C12       1.0  0.52958  0.49510  0.54379  1.0000
  C   C13       1.0  0.32384  0.40489  0.22808  1.0000
  C   C14       1.0  0.67616  0.59511  0.77193  1.0000
  C   C15       1.0  0.23413  0.39953  0.33615  1.0000
  C   C16       1.0  0.76588  0.60047  0.66385  1.0000
  C   C17       1.0  0.17079  0.49281  0.39437  1.0000
  C   C18       1.0  0.82921  0.50719  0.60563  1.0000
  C   C19       1.0  0.20135  0.58839  0.34036  1.0000
  C   C20       1.0  0.79864  0.41162  0.65964  1.0000
  C   C21       1.0  0.29214  0.58762  0.23180  1.0000
  C   C22       1.0  0.70786  0.41238  0.76820  1.0000
  C   C23       1.0  0.06489  0.49154  0.50694  1.0000
  C   C24       1.0  0.93511  0.50846  0.49306  1.0000
  C   C25       1.0  0.57176  0.66795  0.09709  1.0000
  C   C26       1.0  0.42824  0.33205  0.90290  1.0000
  C   C27       1.0  0.60424  0.77464  0.20119  1.0000
  C   C28       1.0  0.39576  0.22536  0.79881  1.0000
  C   C29       1.0  0.55246  0.85983  0.03159  1.0000
  C   C30       1.0  0.44754  0.14017  0.96841  1.0000
  C   C31       1.0  0.32928  0.73308  0.92122  1.0000
  C   C32       1.0  0.67071  0.26692  0.07878  1.0000
  C   C33       1.0  0.23125  0.93036  0.89545  1.0000
  C   C34       1.0  0.76875  0.06964  0.10456  1.0000
  C   C35       1.0  0.09514  0.80774  0.95479  1.0000
  C   C36       1.0  0.90485  0.19226  0.04521  1.0000
  N   N1        1.0  0.47387  0.18011  0.46749  1.0000
  N   N2        1.0  0.52613  0.81989  0.53251  1.0000
  N   N3        1.0  0.35290  0.49737  0.17666  1.0000
  N   N4        1.0  0.64710  0.50263  0.82334  1.0000
  N   N5        1.0  0.57706  0.76267  0.10875  1.0000
  N   N6        1.0  0.42294  0.23733  0.89125  1.0000
  N   N7        1.0  0.22357  0.81987  0.92074  1.0000
  N   N8        1.0  0.77643  0.18013  0.07927  1.0000
  O   O1        1.0  0.42421  0.01087  0.35888  1.0000
  O   O2        1.0  0.57579  0.98912  0.64111  1.0000
  O   O3        1.0  0.28118  0.04025  0.62661  1.0000
  O   O4        1.0  0.71882  0.95975  0.37339  1.0000
  O   O5        1.0  0.29692  0.16877  0.23365  1.0000
  O   O6        1.0  0.70308  0.83123  0.76634  1.0000
  O   O7        1.0  0.17296  0.15614  0.46528  1.0000
  O   O8        1.0  0.82704  0.84386  0.53472  1.0000
  O   O9        1.0  0.06454  0.22167  0.67970  1.0000
  O   O10       1.0  0.93546  0.77833  0.32030  1.0000
  O   O11       1.0  0.18675  0.94644  0.51162  1.0000
  O   O12       1.0  0.81326  0.05355  0.48837  1.0000
  O   O13       1.0  0.03694  0.01008  0.73402  1.0000
  O   O14       1.0  0.96306  0.98991  0.26598  1.0000
  O   O15       1.0  0.77995  0.15293  0.84087  1.0000
  O   O16       1.0  0.22005  0.84707  0.15912  1.0000
  O   O17       1.0  0.83289  0.93316  0.88787  1.0000
  O   O18       1.0  0.16711  0.06685  0.11213  1.0000
  O   O19       1.0  0.28193  0.95386  0.27429  1.0000
  O   O20       1.0  0.71807  0.04614  0.72570  1.0000
  O   O21       1.0  0.93079  0.13380  0.59463  1.0000
  O   O22       1.0  0.06922  0.86619  0.40537  1.0000
  O   O23       1.0  0.18724  0.72306  0.56222  1.0000
  O   O24       1.0  0.81277  0.27694  0.43778  1.0000
  O   O25       1.0  0.05866  0.10118  0.35413  1.0000
  O   O26       1.0  0.94134  0.89882  0.64586  1.0000
  O   O27       1.0  0.54626  0.65267  0.02079  1.0000
  O   O28       1.0  0.45374  0.34732  0.97921  1.0000
  O   O29       1.0  0.33057  0.63526  0.94310  1.0000
  O   O30       1.0  0.66943  0.36474  0.05689  1.0000
