data_image0
_chemical_formula_structural       Cd4H44C56N12O18
_chemical_formula_sum              "Cd4 H44 C56 N12 O18"
_cell_length_a       10.3197
_cell_length_b       10.9281
_cell_length_c       13.9406
_cell_angle_alpha    68.3428
_cell_angle_beta     79.9233
_cell_angle_gamma    83.3269

_space_group_name_H-M_alt    "P 1"
_space_group_IT_number       1

loop_
  _space_group_symop_operation_xyz
  'x, y, z'

loop_
  _atom_site_type_symbol
  _atom_site_label
  _atom_site_symmetry_multiplicity
  _atom_site_fract_x
  _atom_site_fract_y
  _atom_site_fract_z
  _atom_site_occupancy
  Cd  Cd1       1.0  0.45575  0.55627  0.36114  1.0000
  Cd  Cd2       1.0  0.54425  0.44373  0.63886  1.0000
  Cd  Cd3       1.0  0.55880  0.49251  0.13047  1.0000
  Cd  Cd4       1.0  0.44120  0.50749  0.86953  1.0000
  H   H1        1.0  0.38834  0.05358  0.09907  1.0000
  H   H2        1.0  0.61166  0.94642  0.90093  1.0000
  H   H3        1.0  0.39128  0.16340  0.22918  1.0000
  H   H4        1.0  0.60872  0.83660  0.77082  1.0000
  H   H5        1.0  0.45405  0.02565  0.40548  1.0000
  H   H6        1.0  0.54595  0.97435  0.59453  1.0000
  H   H7        1.0  0.15578  0.58964  0.27740  1.0000
  H   H8        1.0  0.84422  0.41036  0.72260  1.0000
  H   H9        1.0  0.92833  0.68875  0.37067  1.0000
  H   H10       1.0  0.07167  0.31124  0.62933  1.0000
  H   H11       1.0  0.22967  0.59731  0.56294  1.0000
  H   H12       1.0  0.77032  0.40270  0.43706  1.0000
  H   H13       1.0  0.99222  0.66314  0.63697  1.0000
  H   H14       1.0  0.00778  0.33686  0.36303  1.0000
  H   H15       1.0  0.86773  0.69927  0.55768  1.0000
  H   H16       1.0  0.13226  0.30073  0.44232  1.0000
  H   H17       1.0  0.83365  0.88186  0.64739  1.0000
  H   H18       1.0  0.16635  0.11814  0.35262  1.0000
  H   H19       1.0  0.14545  0.88009  0.39801  1.0000
  H   H20       1.0  0.85454  0.11991  0.60199  1.0000
  H   H21       1.0  0.00440  0.68182  0.15376  1.0000
  H   H22       1.0  0.99561  0.31818  0.84623  1.0000
  H   H23       1.0  0.11196  0.71754  0.96968  1.0000
  H   H24       1.0  0.88804  0.28246  0.03031  1.0000
  H   H25       1.0  0.97973  0.68404  0.84629  1.0000
  H   H26       1.0  0.02027  0.31596  0.15371  1.0000
  H   H27       1.0  0.73545  0.27778  0.31329  1.0000
  H   H28       1.0  0.26455  0.72222  0.68671  1.0000
  H   H29       1.0  0.82092  0.02185  0.32276  1.0000
  H   H30       1.0  0.17908  0.97815  0.67724  1.0000
  H   H31       1.0  0.62718  0.21305  0.05739  1.0000
  H   H32       1.0  0.37282  0.78695  0.94261  1.0000
  H   H33       1.0  0.67536  0.96436  0.11357  1.0000
  H   H34       1.0  0.32464  0.03564  0.88644  1.0000
  H   H35       1.0  0.76620  0.88197  0.21931  1.0000
  H   H36       1.0  0.23380  0.11803  0.78069  1.0000
  H   H37       1.0  0.01485  0.92909  0.18924  1.0000
  H   H38       1.0  0.98514  0.07091  0.81076  1.0000
  H   H39       1.0  0.78076  0.04283  0.93996  1.0000
  H   H40       1.0  0.21924  0.95717  0.06004  1.0000
  H   H41       1.0  0.33361  0.38544  0.26714  1.0000
  H   H42       1.0  0.66639  0.61456  0.73286  1.0000
  H   H43       1.0  0.43233  0.30728  0.35591  1.0000
  H   H44       1.0  0.56767  0.69272  0.64410  1.0000
  C   C1        1.0  0.43421  0.78765  0.13392  1.0000
  C   C2        1.0  0.56579  0.21235  0.86608  1.0000
  C   C3        1.0  0.43113  0.86032  0.20891  1.0000
  C   C4        1.0  0.56887  0.13968  0.79109  1.0000
  C   C5        1.0  0.40582  0.99694  0.17864  1.0000
  C   C6        1.0  0.59417  0.00306  0.82136  1.0000
  C   C7        1.0  0.41106  0.05723  0.25031  1.0000
  C   C8        1.0  0.58894  0.94277  0.74969  1.0000
  C   C9        1.0  0.44530  0.98148  0.34858  1.0000
  C   C10       1.0  0.55470  0.01852  0.65142  1.0000
  C   C11       1.0  0.46866  0.84552  0.37276  1.0000
  C   C12       1.0  0.53134  0.15448  0.62724  1.0000
  C   C13       1.0  0.50442  0.75460  0.47761  1.0000
  C   C14       1.0  0.49558  0.24540  0.52240  1.0000
  C   C15       1.0  0.13731  0.60834  0.34996  1.0000
  C   C16       1.0  0.86269  0.39166  0.65005  1.0000
  C   C17       1.0  0.02522  0.65929  0.39464  1.0000
  C   C18       1.0  0.97478  0.34070  0.60536  1.0000
  C   C19       1.0  0.18052  0.61006  0.49682  1.0000
  C   C20       1.0  0.81948  0.38994  0.50318  1.0000
  C   C21       1.0  0.97055  0.71719  0.55710  1.0000
  C   C22       1.0  0.02945  0.28281  0.44290  1.0000
  C   C23       1.0  0.98745  0.86360  0.52608  1.0000
  C   C24       1.0  0.01255  0.13640  0.47392  1.0000
  C   C25       1.0  0.90682  0.93345  0.58249  1.0000
  C   C26       1.0  0.09318  0.06655  0.41751  1.0000
  C   C27       1.0  0.08092  0.93186  0.44322  1.0000
  C   C28       1.0  0.91908  0.06814  0.55678  1.0000
  C   C29       1.0  0.75445  0.60048  0.24000  1.0000
  C   C30       1.0  0.24555  0.39952  0.75999  1.0000
  C   C31       1.0  0.82480  0.62246  0.13003  1.0000
  C   C32       1.0  0.17521  0.37755  0.86997  1.0000
  C   C33       1.0  0.95312  0.66520  0.09824  1.0000
  C   C34       1.0  0.04688  0.33480  0.90176  1.0000
  C   C35       1.0  0.01141  0.68624  0.99589  1.0000
  C   C36       1.0  0.98859  0.31377  0.00410  1.0000
  C   C37       1.0  0.93921  0.66728  0.92730  1.0000
  C   C38       1.0  0.06079  0.33273  0.07270  1.0000
  C   C39       1.0  0.81178  0.62371  0.96471  1.0000
  C   C40       1.0  0.18822  0.37630  0.03528  1.0000
  C   C41       1.0  0.72899  0.59815  0.89505  1.0000
  C   C42       1.0  0.27101  0.40185  0.10495  1.0000
  C   C43       1.0  0.72824  0.22721  0.26081  1.0000
  C   C44       1.0  0.27176  0.77279  0.73919  1.0000
  C   C45       1.0  0.77018  0.10088  0.26643  1.0000
  C   C46       1.0  0.22982  0.89912  0.73357  1.0000
  C   C47       1.0  0.66958  0.20064  0.12710  1.0000
  C   C48       1.0  0.33042  0.79936  0.87290  1.0000
  C   C49       1.0  0.75958  0.97076  0.14945  1.0000
  C   C50       1.0  0.24041  0.02924  0.85055  1.0000
  C   C51       1.0  0.88437  0.98393  0.07252  1.0000
  C   C52       1.0  0.11562  0.01607  0.92747  1.0000
  C   C53       1.0  0.00803  0.96086  0.10615  1.0000
  C   C54       1.0  0.99197  0.03914  0.89384  1.0000
  C   C55       1.0  0.87730  0.02325  0.96588  1.0000
  C   C56       1.0  0.12269  0.97674  0.03411  1.0000
  N   N1        1.0  0.45919  0.78773  0.30467  1.0000
  N   N2        1.0  0.54081  0.21227  0.69534  1.0000
  N   N3        1.0  0.75753  0.60090  0.06417  1.0000
  N   N4        1.0  0.24247  0.39910  0.93583  1.0000
  N   N5        1.0  0.23303  0.57800  0.41448  1.0000
  N   N6        1.0  0.76697  0.42200  0.58552  1.0000
  N   N7        1.0  0.05421  0.65905  0.48788  1.0000
  N   N8        1.0  0.94579  0.34096  0.51212  1.0000
  N   N9        1.0  0.66609  0.28803  0.17366  1.0000
  N   N10       1.0  0.33391  0.71197  0.82634  1.0000
  N   N11       1.0  0.73196  0.08583  0.18149  1.0000
  N   N12       1.0  0.26804  0.91417  0.81851  1.0000
  O   O1        1.0  0.49526  0.63122  0.49842  1.0000
  O   O2        1.0  0.50474  0.36877  0.50158  1.0000
  O   O3        1.0  0.53852  0.80577  0.53621  1.0000
  O   O4        1.0  0.46148  0.19422  0.46379  1.0000
  O   O5        1.0  0.43408  0.66101  0.17521  1.0000
  O   O6        1.0  0.56592  0.33899  0.82479  1.0000
  O   O7        1.0  0.43766  0.85502  0.03925  1.0000
  O   O8        1.0  0.56234  0.14498  0.96075  1.0000
  O   O9        1.0  0.66374  0.51669  0.27327  1.0000
  O   O10       1.0  0.33626  0.48331  0.72672  1.0000
  O   O11       1.0  0.78861  0.66398  0.28879  1.0000
  O   O12       1.0  0.21139  0.33602  0.71121  1.0000
  O   O13       1.0  0.61547  0.55356  0.93837  1.0000
  O   O14       1.0  0.38453  0.44644  0.06163  1.0000
  O   O15       1.0  0.77739  0.62335  0.80060  1.0000
  O   O16       1.0  0.22261  0.37665  0.19940  1.0000
  O   O17       1.0  0.41544  0.39094  0.29509  1.0000
  O   O18       1.0  0.58456  0.60906  0.70491  1.0000
