data_image0
_chemical_formula_structural       Cu3H30C48N12O12
_chemical_formula_sum              "Cu3 H30 C48 N12 O12"
_cell_length_a       4.70347
_cell_length_b       19.6783
_cell_length_c       19.6768
_cell_angle_alpha    119.358
_cell_angle_beta     94.576
_cell_angle_gamma    94.5775

_space_group_name_H-M_alt    "P 1"
_space_group_IT_number       1

loop_
  _space_group_symop_operation_xyz
  'x, y, z'

loop_
  _atom_site_type_symbol
  _atom_site_label
  _atom_site_symmetry_multiplicity
  _atom_site_fract_x
  _atom_site_fract_y
  _atom_site_fract_z
  _atom_site_occupancy
  Cu  Cu1       1.0  0.50000  0.00000  0.50000  1.0000
  Cu  Cu2       1.0  0.50000  0.50000  0.00000  1.0000
  Cu  Cu3       1.0  1.00000  0.50000  0.50000  1.0000
  H   H1        1.0  0.61195  0.62092  0.18415  1.0000
  H   H2        1.0  0.99104  0.56309  0.37886  1.0000
  H   H3        1.0  0.42839  0.81582  0.43680  1.0000
  H   H4        1.0  0.38805  0.37908  0.81585  1.0000
  H   H5        1.0  0.00896  0.43691  0.62114  1.0000
  H   H6        1.0  0.57161  0.18418  0.56320  1.0000
  H   H7        1.0  0.97467  0.78228  0.31218  1.0000
  H   H8        1.0  0.19277  0.52976  0.21759  1.0000
  H   H9        1.0  0.66297  0.68785  0.47018  1.0000
  H   H10       1.0  0.02533  0.21772  0.68782  1.0000
  H   H11       1.0  0.80723  0.47024  0.78241  1.0000
  H   H12       1.0  0.33704  0.31215  0.52982  1.0000
  H   H13       1.0  0.59717  0.85960  0.20728  1.0000
  H   H14       1.0  0.73767  0.34752  0.14044  1.0000
  H   H15       1.0  0.39065  0.79276  0.65233  1.0000
  H   H16       1.0  0.40282  0.14041  0.79273  1.0000
  H   H17       1.0  0.26233  0.65248  0.85956  1.0000
  H   H18       1.0  0.60935  0.20724  0.34767  1.0000
  H   H19       1.0  0.43282  0.74082  0.07312  1.0000
  H   H20       1.0  0.69152  0.33210  0.25917  1.0000
  H   H21       1.0  0.36014  0.92694  0.66780  1.0000
  H   H22       1.0  0.56717  0.25918  0.92689  1.0000
  H   H23       1.0  0.30848  0.66790  0.74083  1.0000
  H   H24       1.0  0.63986  0.07306  0.33220  1.0000
  H   H25       1.0  0.04019  0.59946  0.00103  1.0000
  H   H26       1.0  0.44018  0.40147  0.40055  1.0000
  H   H27       1.0  0.03932  0.99903  0.59855  1.0000
  H   H28       1.0  0.95981  0.40054  0.99898  1.0000
  H   H29       1.0  0.55982  0.59853  0.59945  1.0000
  H   H30       1.0  0.96068  0.00097  0.40145  1.0000
  C   C1        1.0  0.76847  0.63768  0.15562  1.0000
  C   C2        1.0  0.13057  0.51778  0.36216  1.0000
  C   C3        1.0  0.61327  0.84441  0.48213  1.0000
  C   C4        1.0  0.23153  0.36233  0.84438  1.0000
  C   C5        1.0  0.86943  0.48222  0.63784  1.0000
  C   C6        1.0  0.38673  0.15559  0.51787  1.0000
  C   C7        1.0  0.07354  0.77177  0.26024  1.0000
  C   C8        1.0  0.30185  0.48829  0.22811  1.0000
  C   C9        1.0  0.81375  0.73980  0.51162  1.0000
  C   C10       1.0  0.92646  0.22824  0.73976  1.0000
  C   C11       1.0  0.69816  0.51171  0.77189  1.0000
  C   C12       1.0  0.18625  0.26020  0.48838  1.0000
  C   C13       1.0  0.11259  0.69503  0.11962  1.0000
  C   C14       1.0  0.41708  0.42437  0.30488  1.0000
  C   C15       1.0  0.99320  0.88045  0.57555  1.0000
  C   C16       1.0  0.88741  0.30497  0.88038  1.0000
  C   C17       1.0  0.58292  0.57563  0.69513  1.0000
  C   C18       1.0  0.00681  0.11955  0.42445  1.0000
  C   C19       1.0  0.42289  0.81494  0.19836  1.0000
  C   C20       1.0  0.60789  0.38325  0.18503  1.0000
  C   C21       1.0  0.22506  0.80167  0.61663  1.0000
  C   C22       1.0  0.57711  0.18506  0.80164  1.0000
  C   C23       1.0  0.39211  0.61675  0.81497  1.0000
  C   C24       1.0  0.77494  0.19833  0.38337  1.0000
  C   C25       1.0  0.98152  0.70453  0.18615  1.0000
  C   C26       1.0  0.27675  0.48141  0.29533  1.0000
  C   C27       1.0  0.79577  0.81390  0.51848  1.0000
  C   C28       1.0  0.01848  0.29547  0.81385  1.0000
  C   C29       1.0  0.72325  0.51859  0.70467  1.0000
  C   C30       1.0  0.20424  0.18610  0.48152  1.0000
  C   C31       1.0  0.41241  0.89782  0.34279  1.0000
  C   C32       1.0  0.51491  0.44488  0.10213  1.0000
  C   C33       1.0  0.06990  0.65721  0.55508  1.0000
  C   C34       1.0  0.58759  0.10218  0.65721  1.0000
  C   C35       1.0  0.48508  0.55512  0.89787  1.0000
  C   C36       1.0  0.93010  0.34279  0.44492  1.0000
  C   C37       1.0  0.29483  0.82625  0.26572  1.0000
  C   C38       1.0  0.46875  0.43930  0.17367  1.0000
  C   C39       1.0  0.02962  0.73431  0.56060  1.0000
  C   C40       1.0  0.70517  0.17375  0.73428  1.0000
  C   C41       1.0  0.53125  0.56070  0.82633  1.0000
  C   C42       1.0  0.97038  0.26569  0.43940  1.0000
  C   C43       1.0  0.33508  0.75009  0.12481  1.0000
  C   C44       1.0  0.58461  0.37451  0.24986  1.0000
  C   C45       1.0  0.21066  0.87524  0.62538  1.0000
  C   C46       1.0  0.66491  0.24991  0.87519  1.0000
  C   C47       1.0  0.41539  0.62549  0.75014  1.0000
  C   C48       1.0  0.78934  0.12476  0.37462  1.0000
  N   N1        1.0  0.97822  0.62715  0.05658  1.0000
  N   N2        1.0  0.35048  0.42927  0.37278  1.0000
  N   N3        1.0  0.92172  0.94348  0.57071  1.0000
  N   N4        1.0  0.02178  0.37285  0.94342  1.0000
  N   N5        1.0  0.64952  0.57073  0.62722  1.0000
  N   N6        1.0  0.07828  0.05652  0.42929  1.0000
  N   N7        1.0  0.77207  0.59239  0.07830  1.0000
  N   N8        1.0  0.17928  0.48579  0.40751  1.0000
  N   N9        1.0  0.69399  0.92174  0.51417  1.0000
  N   N10       1.0  0.22793  0.40761  0.92171  1.0000
  N   N11       1.0  0.82072  0.51421  0.59249  1.0000
  N   N12       1.0  0.30601  0.07826  0.48583  1.0000
  O   O1        1.0  0.27628  0.91141  0.40223  1.0000
  O   O2        1.0  0.36494  0.49067  0.08852  1.0000
  O   O3        1.0  0.87422  0.59781  0.50919  1.0000
  O   O4        1.0  0.72372  0.08859  0.59777  1.0000
  O   O5        1.0  0.63505  0.50933  0.91148  1.0000
  O   O6        1.0  0.12578  0.40219  0.49081  1.0000
  O   O7        1.0  0.63436  0.94051  0.34711  1.0000
  O   O8        1.0  0.69447  0.40664  0.05952  1.0000
  O   O9        1.0  0.28739  0.65283  0.59344  1.0000
  O   O10       1.0  0.36565  0.05949  0.65289  1.0000
  O   O11       1.0  0.30552  0.59336  0.94048  1.0000
  O   O12       1.0  0.71261  0.34717  0.40657  1.0000
