data_image0
_chemical_formula_structural       H16Pb2C20N4Cl4O2
_chemical_formula_sum              "H16 Pb2 C20 N4 Cl4 O2"
_cell_length_a       4.07733
_cell_length_b       8.31389
_cell_length_c       18.1523
_cell_angle_alpha    94.4421
_cell_angle_beta     89.7889
_cell_angle_gamma    103.901

_space_group_name_H-M_alt    "P 1"
_space_group_IT_number       1

loop_
  _space_group_symop_operation_xyz
  'x, y, z'

loop_
  _atom_site_type_symbol
  _atom_site_label
  _atom_site_symmetry_multiplicity
  _atom_site_fract_x
  _atom_site_fract_y
  _atom_site_fract_z
  _atom_site_occupancy
  H   H1        1.0  0.33592  0.53244  0.46266  1.0000
  H   H2        1.0  0.80512  0.46878  0.53778  1.0000
  H   H3        1.0  0.18923  0.42108  0.12322  1.0000
  H   H4        1.0  0.76566  0.57778  0.87750  1.0000
  H   H5        1.0  0.00926  0.28198  0.21076  1.0000
  H   H6        1.0  0.71558  0.71622  0.79025  1.0000
  H   H7        1.0  0.44901  0.59264  0.02271  1.0000
  H   H8        1.0  0.85350  0.40418  0.97717  1.0000
  H   H9        1.0  0.64258  0.66813  0.35806  1.0000
  H   H10       1.0  0.98354  0.33435  0.64153  1.0000
  H   H11       1.0  0.10896  0.92295  0.16857  1.0000
  H   H12       1.0  0.19627  0.07649  0.83035  1.0000
  H   H13       1.0  0.88056  0.77116  0.27523  1.0000
  H   H14       1.0  0.11760  0.22964  0.72405  1.0000
  H   H15       1.0  0.72691  0.16075  0.32320  1.0000
  H   H16       1.0  0.55052  0.83743  0.67821  1.0000
  Pb  Pb1       1.0  0.02681  0.00129  0.00120  1.0000
  Pb  Pb2       1.0  0.74559  0.99852  0.49771  1.0000
  C   C1        1.0  0.50900  0.57960  0.20980  1.0000
  C   C2        1.0  0.93125  0.42017  0.79019  1.0000
  C   C3        1.0  0.35209  0.49073  0.27311  1.0000
  C   C4        1.0  0.86046  0.50940  0.72722  1.0000
  C   C5        1.0  0.27904  0.48220  0.40564  1.0000
  C   C6        1.0  0.79615  0.51877  0.59485  1.0000
  C   C7        1.0  0.39455  0.53032  0.13662  1.0000
  C   C8        1.0  0.86395  0.46857  0.86357  1.0000
  C   C9        1.0  0.09516  0.34302  0.26499  1.0000
  C   C10       1.0  0.74450  0.65615  0.73586  1.0000
  C   C11       1.0  0.53956  0.62549  0.07979  1.0000
  C   C12       1.0  0.91410  0.37243  0.92000  1.0000
  C   C13       1.0  0.44391  0.55567  0.34600  1.0000
  C   C14       1.0  0.89080  0.44554  0.65416  1.0000
  C   C15       1.0  0.90416  0.81058  0.16086  1.0000
  C   C16       1.0  0.10034  0.18857  0.83834  1.0000
  C   C17       1.0  0.77336  0.72358  0.22075  1.0000
  C   C18       1.0  0.05571  0.27637  0.77875  1.0000
  C   C19       1.0  0.93382  0.27183  0.32586  1.0000
  C   C20       1.0  0.65173  0.72725  0.67527  1.0000
  N   N1        1.0  0.02029  0.34419  0.39536  1.0000
  N   N2        1.0  0.66899  0.65569  0.60555  1.0000
  N   N3        1.0  0.78969  0.76387  0.09119  1.0000
  N   N4        1.0  0.02920  0.23419  0.90814  1.0000
  Cl  Cl1       1.0  0.20421  0.92579  0.38627  1.0000
  Cl  Cl2       1.0  0.27733  0.08234  0.60697  1.0000
  Cl  Cl3       1.0  0.63108  0.16736  0.09378  1.0000
  Cl  Cl4       1.0  0.46893  0.83485  0.90950  1.0000
  O   O1        1.0  0.84795  0.28626  0.45317  1.0000
  O   O2        1.0  0.55162  0.71340  0.54823  1.0000
