data_image0
_chemical_formula_structural       Cd2H52C60N8O8
_chemical_formula_sum              "Cd2 H52 C60 N8 O8"
_cell_length_a       10.079
_cell_length_b       11.166
_cell_length_c       11.504
_cell_angle_alpha    88.449
_cell_angle_beta     89.19
_cell_angle_gamma    83.1488

_space_group_name_H-M_alt    "P 1"
_space_group_IT_number       1

loop_
  _space_group_symop_operation_xyz
  'x, y, z'

loop_
  _atom_site_type_symbol
  _atom_site_label
  _atom_site_symmetry_multiplicity
  _atom_site_fract_x
  _atom_site_fract_y
  _atom_site_fract_z
  _atom_site_occupancy
  Cd  Cd1       1.0  0.76951  0.23721  0.29446  1.0000
  Cd  Cd2       1.0  0.23049  0.76279  0.70555  1.0000
  H   H1        1.0  0.58703  0.06145  0.40734  1.0000
  H   H2        1.0  0.41297  0.93855  0.59266  1.0000
  H   H3        1.0  0.66545  0.91872  0.46184  1.0000
  H   H4        1.0  0.33454  0.08128  0.53816  1.0000
  H   H5        1.0  0.52142  0.92615  0.37405  1.0000
  H   H6        1.0  0.47858  0.07385  0.62594  1.0000
  H   H7        1.0  0.90849  0.05111  0.09465  1.0000
  H   H8        1.0  0.09151  0.94889  0.90536  1.0000
  H   H9        1.0  0.84036  0.82011  0.05762  1.0000
  H   H10       1.0  0.15965  0.17989  0.94238  1.0000
  H   H11       1.0  0.65843  0.70452  0.14731  1.0000
  H   H12       1.0  0.34157  0.29548  0.85269  1.0000
  H   H13       1.0  0.56650  0.76320  0.26997  1.0000
  H   H14       1.0  0.43351  0.23680  0.73003  1.0000
  H   H15       1.0  0.64463  0.70416  0.46985  1.0000
  H   H16       1.0  0.35537  0.29584  0.53015  1.0000
  H   H17       1.0  0.80783  0.59180  0.59738  1.0000
  H   H18       1.0  0.19217  0.40820  0.40262  1.0000
  H   H19       1.0  0.05969  0.49104  0.30095  1.0000
  H   H20       1.0  0.94032  0.50895  0.69905  1.0000
  H   H21       1.0  0.89577  0.60375  0.17356  1.0000
  H   H22       1.0  0.10424  0.39624  0.82644  1.0000
  H   H23       1.0  0.99406  0.15153  0.47699  1.0000
  H   H24       1.0  0.00594  0.84847  0.52301  1.0000
  H   H25       1.0  0.94188  0.06203  0.59686  1.0000
  H   H26       1.0  0.05812  0.93797  0.40314  1.0000
  H   H27       1.0  0.03615  0.18311  0.62136  1.0000
  H   H28       1.0  0.96385  0.81688  0.37864  1.0000
  H   H29       1.0  0.57297  0.40139  0.47290  1.0000
  H   H30       1.0  0.42703  0.59861  0.52711  1.0000
  H   H31       1.0  0.60065  0.40773  0.71339  1.0000
  H   H32       1.0  0.39935  0.59226  0.28663  1.0000
  H   H33       1.0  0.82859  0.33748  0.83988  1.0000
  H   H34       1.0  0.17141  0.66251  0.16013  1.0000
  H   H35       1.0  0.92475  0.20649  0.78686  1.0000
  H   H36       1.0  0.07525  0.79350  0.21314  1.0000
  H   H37       1.0  0.75673  0.03199  0.73285  1.0000
  H   H38       1.0  0.24328  0.96800  0.26716  1.0000
  H   H39       1.0  0.59801  0.91298  0.82800  1.0000
  H   H40       1.0  0.40199  0.08702  0.17201  1.0000
  H   H41       1.0  0.52313  0.18143  0.09091  1.0000
  H   H42       1.0  0.47685  0.81858  0.90910  1.0000
  H   H43       1.0  0.68001  0.30216  0.99417  1.0000
  H   H44       1.0  0.31998  0.69784  0.00583  1.0000
  H   H45       1.0  0.44825  0.48363  0.07003  1.0000
  H   H46       1.0  0.55174  0.51638  0.92997  1.0000
  H   H47       1.0  0.23940  0.52030  0.95051  1.0000
  H   H48       1.0  0.76060  0.47970  0.04949  1.0000
  H   H49       1.0  0.04244  0.41297  0.00914  1.0000
  H   H50       1.0  0.95757  0.58703  0.99085  1.0000
  H   H51       1.0  0.26400  0.23488  0.29203  1.0000
  H   H52       1.0  0.73600  0.76513  0.70797  1.0000
  C   C1        1.0  0.61412  0.96638  0.38720  1.0000
  C   C2        1.0  0.38588  0.03362  0.61279  1.0000
  C   C3        1.0  0.69984  0.95845  0.28124  1.0000
  C   C4        1.0  0.30016  0.04155  0.71876  1.0000
  C   C5        1.0  0.84374  0.99762  0.14449  1.0000
  C   C6        1.0  0.15626  0.00238  0.85552  1.0000
  C   C7        1.0  0.81120  0.88408  0.12522  1.0000
  C   C8        1.0  0.18881  0.11593  0.87479  1.0000
  C   C9        1.0  0.66728  0.74483  0.23236  1.0000
  C   C10       1.0  0.33272  0.25517  0.76764  1.0000
  C   C11       1.0  0.75902  0.66443  0.31170  1.0000
  C   C12       1.0  0.24098  0.33556  0.68829  1.0000
  C   C13       1.0  0.73594  0.65803  0.43179  1.0000
  C   C14       1.0  0.26406  0.34196  0.56821  1.0000
  C   C15       1.0  0.82962  0.59359  0.50463  1.0000
  C   C16       1.0  0.17038  0.40640  0.49537  1.0000
  C   C17       1.0  0.94957  0.53308  0.46103  1.0000
  C   C18       1.0  0.05044  0.46692  0.53897  1.0000
  C   C19       1.0  0.96973  0.53776  0.33988  1.0000
  C   C20       1.0  0.03027  0.46223  0.66012  1.0000
  C   C21       1.0  0.87650  0.60187  0.26696  1.0000
  C   C22       1.0  0.12350  0.39813  0.73304  1.0000
  C   C23       1.0  0.95783  0.15379  0.56722  1.0000
  C   C24       1.0  0.04217  0.84621  0.43278  1.0000
  C   C25       1.0  0.83320  0.23883  0.57413  1.0000
  C   C26       1.0  0.16680  0.76117  0.42587  1.0000
  C   C27       1.0  0.64937  0.35589  0.52912  1.0000
  C   C28       1.0  0.35064  0.64411  0.47089  1.0000
  C   C29       1.0  0.66150  0.35951  0.64731  1.0000
  C   C30       1.0  0.33850  0.64049  0.35270  1.0000
  C   C31       1.0  0.82307  0.25387  0.79304  1.0000
  C   C32       1.0  0.17693  0.74613  0.20696  1.0000
  C   C33       1.0  0.72953  0.17719  0.85544  1.0000
  C   C34       1.0  0.27047  0.82281  0.14456  1.0000
  C   C35       1.0  0.70496  0.06607  0.81142  1.0000
  C   C36       1.0  0.29504  0.93392  0.18858  1.0000
  C   C37       1.0  0.61494  0.99765  0.86664  1.0000
  C   C38       1.0  0.38506  0.00235  0.13336  1.0000
  C   C39       1.0  0.54702  0.03654  0.96936  1.0000
  C   C40       1.0  0.45296  0.96346  0.03064  1.0000
  C   C41       1.0  0.57288  0.14775  0.01210  1.0000
  C   C42       1.0  0.42711  0.85225  0.98790  1.0000
  C   C43       1.0  0.66204  0.21709  0.95661  1.0000
  C   C44       1.0  0.33796  0.78291  0.04339  1.0000
  C   C45       1.0  0.49992  0.32063  0.24742  1.0000
  C   C46       1.0  0.50008  0.67937  0.75257  1.0000
  C   C47       1.0  0.37001  0.35504  0.18560  1.0000
  C   C48       1.0  0.62999  0.64496  0.81440  1.0000
  C   C49       1.0  0.36152  0.43734  0.09105  1.0000
  C   C50       1.0  0.63848  0.56267  0.90895  1.0000
  C   C51       1.0  0.24515  0.45796  0.02548  1.0000
  C   C52       1.0  0.75485  0.54205  0.97451  1.0000
  C   C53       1.0  0.13518  0.39876  0.05765  1.0000
  C   C54       1.0  0.86482  0.60124  0.94235  1.0000
  C   C55       1.0  0.13996  0.32080  0.15541  1.0000
  C   C56       1.0  0.86004  0.67920  0.84458  1.0000
  C   C57       1.0  0.25873  0.29749  0.21757  1.0000
  C   C58       1.0  0.74127  0.70252  0.78242  1.0000
  C   C59       1.0  0.01611  0.27168  0.20008  1.0000
  C   C60       1.0  0.98388  0.72833  0.79991  1.0000
  N   N1        1.0  0.77354  0.04306  0.24084  1.0000
  N   N2        1.0  0.22646  0.95694  0.75916  1.0000
  N   N3        1.0  0.71988  0.86082  0.21153  1.0000
  N   N4        1.0  0.28013  0.13918  0.78847  1.0000
  N   N5        1.0  0.75618  0.28122  0.48457  1.0000
  N   N6        1.0  0.24382  0.71878  0.51543  1.0000
  N   N7        1.0  0.77799  0.28562  0.67451  1.0000
  N   N8        1.0  0.22201  0.71437  0.32550  1.0000
  O   O1        1.0  0.60080  0.37409  0.21460  1.0000
  O   O2        1.0  0.39920  0.62591  0.78539  1.0000
  O   O3        1.0  0.50574  0.23615  0.32344  1.0000
  O   O4        1.0  0.49426  0.76385  0.67655  1.0000
  O   O5        1.0  0.02276  0.20826  0.29352  1.0000
  O   O6        1.0  0.97724  0.79174  0.70648  1.0000
  O   O7        1.0  0.90696  0.30240  0.14508  1.0000
  O   O8        1.0  0.09304  0.69762  0.85493  1.0000
