data_image0
_chemical_formula_structural       Cu4H10C10N2Cl4
_chemical_formula_sum              "Cu4 H10 C10 N2 Cl4"
_cell_length_a       6.53406
_cell_length_b       6.999
_cell_length_c       8.72729
_cell_angle_alpha    80.6691
_cell_angle_beta     83.3614
_cell_angle_gamma    75.3688

_space_group_name_H-M_alt    "P 1"
_space_group_IT_number       1

loop_
  _space_group_symop_operation_xyz
  'x, y, z'

loop_
  _atom_site_type_symbol
  _atom_site_label
  _atom_site_symmetry_multiplicity
  _atom_site_fract_x
  _atom_site_fract_y
  _atom_site_fract_z
  _atom_site_occupancy
  Cu  Cu1       1.0  0.99705  0.27885  0.92768  1.0000
  Cu  Cu2       1.0  0.00295  0.72116  0.07230  1.0000
  Cu  Cu3       1.0  0.41685  0.40845  0.17577  1.0000
  Cu  Cu4       1.0  0.58315  0.59152  0.82424  1.0000
  H   H1        1.0  0.37734  0.10948  0.83599  1.0000
  H   H2        1.0  0.62267  0.89052  0.16401  1.0000
  H   H3        1.0  0.27850  0.35069  0.71282  1.0000
  H   H4        1.0  0.72152  0.64929  0.28717  1.0000
  H   H5        1.0  0.08186  0.98045  0.77627  1.0000
  H   H6        1.0  0.91817  0.01954  0.22373  1.0000
  H   H7        1.0  0.94895  0.38670  0.56325  1.0000
  H   H8        1.0  0.05106  0.61330  0.43676  1.0000
  H   H9        1.0  0.76638  0.01143  0.63740  1.0000
  H   H10       1.0  0.23360  0.98859  0.36260  1.0000
  C   C1        1.0  0.25001  0.20846  0.77094  1.0000
  C   C2        1.0  0.75001  0.79154  0.22906  1.0000
  C   C3        1.0  0.08626  0.13487  0.73220  1.0000
  C   C4        1.0  0.91375  0.86511  0.26780  1.0000
  C   C5        1.0  0.93668  0.23859  0.61959  1.0000
  C   C6        1.0  0.06333  0.76141  0.38041  1.0000
  C   C7        1.0  0.78350  0.15839  0.58059  1.0000
  C   C8        1.0  0.21650  0.84162  0.41941  1.0000
  C   C9        1.0  0.64641  0.25503  0.46529  1.0000
  C   C10       1.0  0.35357  0.74499  0.53473  1.0000
  N   N1        1.0  0.53454  0.33166  0.36546  1.0000
  N   N2        1.0  0.46543  0.66837  0.63456  1.0000
  Cl  Cl1       1.0  0.09746  0.32110  0.15919  1.0000
  Cl  Cl2       1.0  0.90253  0.67891  0.84079  1.0000
  Cl  Cl3       1.0  0.64949  0.26257  0.97143  1.0000
  Cl  Cl4       1.0  0.35051  0.73741  0.02858  1.0000
