data_image0
_chemical_formula_structural       Ag8H48C40N24O24
_chemical_formula_sum              "Ag8 H48 C40 N24 O24"
_cell_length_a       6.64686
_cell_length_b       11.2141
_cell_length_c       19.8346
_cell_angle_alpha    89.9999
_cell_angle_beta     90.0002
_cell_angle_gamma    90

_space_group_name_H-M_alt    "P 1"
_space_group_IT_number       1

loop_
  _space_group_symop_operation_xyz
  'x, y, z'

loop_
  _atom_site_type_symbol
  _atom_site_label
  _atom_site_symmetry_multiplicity
  _atom_site_fract_x
  _atom_site_fract_y
  _atom_site_fract_z
  _atom_site_occupancy
  Ag  Ag1       1.0  0.52455  0.20648  0.27331  1.0000
  Ag  Ag2       1.0  0.97545  0.79352  0.77331  1.0000
  Ag  Ag3       1.0  0.47545  0.70648  0.22669  1.0000
  Ag  Ag4       1.0  0.02455  0.29352  0.72669  1.0000
  Ag  Ag5       1.0  0.47545  0.79352  0.72669  1.0000
  Ag  Ag6       1.0  0.02455  0.20648  0.22669  1.0000
  Ag  Ag7       1.0  0.52455  0.29352  0.77331  1.0000
  Ag  Ag8       1.0  0.97545  0.70648  0.27331  1.0000
  H   H1        1.0  0.23639  0.36887  0.30356  1.0000
  H   H2        1.0  0.26361  0.63113  0.80356  1.0000
  H   H3        1.0  0.76362  0.86887  0.19644  1.0000
  H   H4        1.0  0.73638  0.13113  0.69644  1.0000
  H   H5        1.0  0.76361  0.63113  0.69644  1.0000
  H   H6        1.0  0.73639  0.36887  0.19644  1.0000
  H   H7        1.0  0.23639  0.13113  0.80356  1.0000
  H   H8        1.0  0.26362  0.86887  0.30356  1.0000
  H   H9        1.0  0.99141  0.36603  0.32893  1.0000
  H   H10       1.0  0.50859  0.63397  0.82893  1.0000
  H   H11       1.0  0.00860  0.86603  0.17107  1.0000
  H   H12       1.0  0.49140  0.13397  0.67107  1.0000
  H   H13       1.0  0.00859  0.63397  0.67107  1.0000
  H   H14       1.0  0.49141  0.36603  0.17107  1.0000
  H   H15       1.0  0.99141  0.13397  0.82893  1.0000
  H   H16       1.0  0.50860  0.86603  0.32893  1.0000
  H   H17       1.0  0.91213  0.28503  0.43361  1.0000
  H   H18       1.0  0.58788  0.71497  0.93361  1.0000
  H   H19       1.0  0.08788  0.78503  0.06639  1.0000
  H   H20       1.0  0.41212  0.21497  0.56639  1.0000
  H   H21       1.0  0.08787  0.71497  0.56639  1.0000
  H   H22       1.0  0.41213  0.28503  0.06639  1.0000
  H   H23       1.0  0.91213  0.21497  0.93361  1.0000
  H   H24       1.0  0.58788  0.78503  0.43361  1.0000
  H   H25       1.0  0.00293  0.13676  0.52349  1.0000
  H   H26       1.0  0.49707  0.86324  0.02349  1.0000
  H   H27       1.0  0.99706  0.63675  0.97651  1.0000
  H   H28       1.0  0.50294  0.36324  0.47651  1.0000
  H   H29       1.0  0.99706  0.86325  0.47651  1.0000
  H   H30       1.0  0.50294  0.13676  0.97651  1.0000
  H   H31       1.0  0.00293  0.36324  0.02349  1.0000
  H   H32       1.0  0.49706  0.63676  0.52349  1.0000
  H   H33       1.0  0.30926  0.00881  0.50653  1.0000
  H   H34       1.0  0.19074  0.99119  0.00653  1.0000
  H   H35       1.0  0.69074  0.50880  0.99347  1.0000
  H   H36       1.0  0.80926  0.49119  0.49347  1.0000
  H   H37       1.0  0.69074  0.99120  0.49347  1.0000
  H   H38       1.0  0.80926  0.00881  0.99347  1.0000
  H   H39       1.0  0.30926  0.49120  0.00653  1.0000
  H   H40       1.0  0.19074  0.50881  0.50653  1.0000
  H   H41       1.0  0.52576  0.04661  0.40403  1.0000
  H   H42       1.0  0.97424  0.95339  0.90403  1.0000
  H   H43       1.0  0.47424  0.54661  0.09597  1.0000
  H   H44       1.0  0.02577  0.45339  0.59597  1.0000
  H   H45       1.0  0.47423  0.95339  0.59597  1.0000
  H   H46       1.0  0.02576  0.04661  0.09597  1.0000
  H   H47       1.0  0.52576  0.45339  0.90403  1.0000
  H   H48       1.0  0.97424  0.54661  0.40403  1.0000
  C   C1        1.0  0.16965  0.24067  0.37269  1.0000
  C   C2        1.0  0.33035  0.75933  0.87269  1.0000
  C   C3        1.0  0.83035  0.74067  0.12731  1.0000
  C   C4        1.0  0.66965  0.25933  0.62731  1.0000
  C   C5        1.0  0.83035  0.75933  0.62731  1.0000
  C   C6        1.0  0.66965  0.24067  0.12731  1.0000
  C   C7        1.0  0.16965  0.25933  0.87269  1.0000
  C   C8        1.0  0.33035  0.74067  0.37269  1.0000
  C   C9        1.0  0.04598  0.22982  0.42961  1.0000
  C   C10       1.0  0.45402  0.77018  0.92961  1.0000
  C   C11       1.0  0.95402  0.72982  0.07039  1.0000
  C   C12       1.0  0.54598  0.27018  0.57039  1.0000
  C   C13       1.0  0.95402  0.77018  0.57039  1.0000
  C   C14       1.0  0.54598  0.22982  0.07039  1.0000
  C   C15       1.0  0.04598  0.27018  0.92961  1.0000
  C   C16       1.0  0.45402  0.72982  0.42962  1.0000
  C   C17       1.0  0.09583  0.14670  0.47856  1.0000
  C   C18       1.0  0.40417  0.85329  0.97856  1.0000
  C   C19       1.0  0.90417  0.64670  0.02144  1.0000
  C   C20       1.0  0.59583  0.35329  0.52144  1.0000
  C   C21       1.0  0.90417  0.85330  0.52144  1.0000
  C   C22       1.0  0.59583  0.14670  0.02144  1.0000
  C   C23       1.0  0.09583  0.35329  0.97856  1.0000
  C   C24       1.0  0.40417  0.64671  0.47857  1.0000
  C   C25       1.0  0.26775  0.07639  0.46973  1.0000
  C   C26       1.0  0.23225  0.92361  0.96973  1.0000
  C   C27       1.0  0.73224  0.57639  0.03027  1.0000
  C   C28       1.0  0.76776  0.42361  0.53027  1.0000
  C   C29       1.0  0.73224  0.92361  0.53027  1.0000
  C   C30       1.0  0.76776  0.07639  0.03027  1.0000
  C   C31       1.0  0.26774  0.42361  0.96973  1.0000
  C   C32       1.0  0.23224  0.57639  0.46973  1.0000
  C   C33       1.0  0.38644  0.09542  0.41308  1.0000
  C   C34       1.0  0.11356  0.90458  0.91308  1.0000
  C   C35       1.0  0.61356  0.59542  0.08692  1.0000
  C   C36       1.0  0.88645  0.40458  0.58692  1.0000
  C   C37       1.0  0.61356  0.90458  0.58692  1.0000
  C   C38       1.0  0.88644  0.09542  0.08692  1.0000
  C   C39       1.0  0.38644  0.40458  0.91308  1.0000
  C   C40       1.0  0.11356  0.59542  0.41308  1.0000
  N   N1        1.0  0.33865  0.17577  0.36516  1.0000
  N   N2        1.0  0.16135  0.82423  0.86516  1.0000
  N   N3        1.0  0.66135  0.67577  0.13484  1.0000
  N   N4        1.0  0.83865  0.32423  0.63484  1.0000
  N   N5        1.0  0.66134  0.82423  0.63484  1.0000
  N   N6        1.0  0.83866  0.17577  0.13484  1.0000
  N   N7        1.0  0.33865  0.32423  0.86516  1.0000
  N   N8        1.0  0.16135  0.67577  0.36516  1.0000
  N   N9        1.0  0.11776  0.31609  0.31909  1.0000
  N   N10       1.0  0.38224  0.68391  0.81909  1.0000
  N   N11       1.0  0.88224  0.81609  0.18090  1.0000
  N   N12       1.0  0.61776  0.18391  0.68091  1.0000
  N   N13       1.0  0.88223  0.68391  0.68090  1.0000
  N   N14       1.0  0.61776  0.31609  0.18090  1.0000
  N   N15       1.0  0.11776  0.18391  0.81909  1.0000
  N   N16       1.0  0.38224  0.81609  0.31910  1.0000
  N   N17       1.0  0.38017  0.99017  0.17579  1.0000
  N   N18       1.0  0.11984  0.00983  0.67579  1.0000
  N   N19       1.0  0.61984  0.49017  0.32421  1.0000
  N   N20       1.0  0.88017  0.50983  0.82421  1.0000
  N   N21       1.0  0.61983  0.00983  0.82421  1.0000
  N   N22       1.0  0.88017  0.99017  0.32421  1.0000
  N   N23       1.0  0.38017  0.50983  0.67579  1.0000
  N   N24       1.0  0.11984  0.49017  0.17579  1.0000
  O   O1        1.0  0.54149  0.98704  0.21058  1.0000
  O   O2        1.0  0.95851  0.01296  0.71058  1.0000
  O   O3        1.0  0.45851  0.48704  0.28942  1.0000
  O   O4        1.0  0.04149  0.51296  0.78942  1.0000
  O   O5        1.0  0.45851  0.01296  0.78942  1.0000
  O   O6        1.0  0.04149  0.98704  0.28942  1.0000
  O   O7        1.0  0.54149  0.51296  0.71058  1.0000
  O   O8        1.0  0.95851  0.48704  0.21058  1.0000
  O   O9        1.0  0.30299  0.89405  0.15354  1.0000
  O   O10       1.0  0.19701  0.10595  0.65354  1.0000
  O   O11       1.0  0.69701  0.39405  0.34646  1.0000
  O   O12       1.0  0.80299  0.60595  0.84646  1.0000
  O   O13       1.0  0.69701  0.10596  0.84646  1.0000
  O   O14       1.0  0.80299  0.89405  0.34646  1.0000
  O   O15       1.0  0.30299  0.60595  0.65354  1.0000
  O   O16       1.0  0.19701  0.39405  0.15354  1.0000
  O   O17       1.0  0.29714  0.08915  0.16359  1.0000
  O   O18       1.0  0.20286  0.91085  0.66359  1.0000
  O   O19       1.0  0.70286  0.58915  0.33641  1.0000
  O   O20       1.0  0.79714  0.41085  0.83641  1.0000
  O   O21       1.0  0.70286  0.91085  0.83641  1.0000
  O   O22       1.0  0.79714  0.08915  0.33641  1.0000
  O   O23       1.0  0.29714  0.41085  0.66359  1.0000
  O   O24       1.0  0.20286  0.58915  0.16359  1.0000
