data_image0
_chemical_formula_structural       Ag4H48C56N12O24
_chemical_formula_sum              "Ag4 H48 C56 N12 O24"
_cell_length_a       8.11377
_cell_length_b       11.4934
_cell_length_c       15.6431
_cell_angle_alpha    95.2083
_cell_angle_beta     102.112
_cell_angle_gamma    91.3541

_space_group_name_H-M_alt    "P 1"
_space_group_IT_number       1

loop_
  _space_group_symop_operation_xyz
  'x, y, z'

loop_
  _atom_site_type_symbol
  _atom_site_label
  _atom_site_symmetry_multiplicity
  _atom_site_fract_x
  _atom_site_fract_y
  _atom_site_fract_z
  _atom_site_occupancy
  Ag  Ag1       1.0  0.86127  0.22668  0.02186  1.0000
  Ag  Ag2       1.0  0.13873  0.77332  0.97814  1.0000
  Ag  Ag3       1.0  0.50282  0.04906  0.10274  1.0000
  Ag  Ag4       1.0  0.49718  0.95094  0.89726  1.0000
  H   H1        1.0  0.12583  0.23344  0.14785  1.0000
  H   H2        1.0  0.87417  0.76656  0.85215  1.0000
  H   H3        1.0  0.79637  0.08195  0.21089  1.0000
  H   H4        1.0  0.20363  0.91805  0.78911  1.0000
  H   H5        1.0  0.76579  0.47019  0.01475  1.0000
  H   H6        1.0  0.23421  0.52981  0.98525  1.0000
  H   H7        1.0  0.85786  0.67515  0.07887  1.0000
  H   H8        1.0  0.14214  0.32485  0.92113  1.0000
  H   H9        1.0  0.12476  0.70385  0.19767  1.0000
  H   H10       1.0  0.87524  0.29615  0.80233  1.0000
  H   H11       1.0  0.27064  0.53024  0.25314  1.0000
  H   H12       1.0  0.72936  0.46976  0.74686  1.0000
  H   H13       1.0  0.51912  0.22853  0.39463  1.0000
  H   H14       1.0  0.48088  0.77147  0.60537  1.0000
  H   H15       1.0  0.60810  0.02723  0.42705  1.0000
  H   H16       1.0  0.39190  0.97277  0.57295  1.0000
  H   H17       1.0  0.24182  0.88105  0.20167  1.0000
  H   H18       1.0  0.75818  0.11895  0.79832  1.0000
  H   H19       1.0  0.14789  0.07388  0.16995  1.0000
  H   H20       1.0  0.85211  0.92612  0.83005  1.0000
  H   H21       1.0  0.72221  0.72312  0.50532  1.0000
  H   H22       1.0  0.27779  0.27688  0.49468  1.0000
  H   H23       1.0  0.70499  0.66418  0.39342  1.0000
  H   H24       1.0  0.29501  0.33581  0.60658  1.0000
  H   H25       1.0  0.52617  0.65310  0.44328  1.0000
  H   H26       1.0  0.47383  0.34690  0.55673  1.0000
  H   H27       1.0  0.41599  0.29644  0.06852  1.0000
  H   H28       1.0  0.58401  0.70356  0.93148  1.0000
  H   H29       1.0  0.48163  0.50517  0.13273  1.0000
  H   H30       1.0  0.51837  0.49483  0.86727  1.0000
  H   H31       1.0  0.71876  0.54555  0.26496  1.0000
  H   H32       1.0  0.28124  0.45445  0.73504  1.0000
  H   H33       1.0  0.88556  0.38060  0.32411  1.0000
  H   H34       1.0  0.11444  0.61940  0.67589  1.0000
  H   H35       1.0  0.17544  0.07536  0.45941  1.0000
  H   H36       1.0  0.82456  0.92464  0.54059  1.0000
  H   H37       1.0  0.24741  0.87107  0.49292  1.0000
  H   H38       1.0  0.75259  0.12892  0.50708  1.0000
  H   H39       1.0  0.84735  0.73392  0.28004  1.0000
  H   H40       1.0  0.15265  0.26608  0.71996  1.0000
  H   H41       1.0  0.77526  0.93073  0.24530  1.0000
  H   H42       1.0  0.22474  0.06927  0.75470  1.0000
  H   H43       1.0  0.38416  0.56281  0.55228  1.0000
  H   H44       1.0  0.61584  0.43719  0.44772  1.0000
  H   H45       1.0  0.16330  0.52056  0.53244  1.0000
  H   H46       1.0  0.83670  0.47944  0.46756  1.0000
  H   H47       1.0  0.27902  0.48678  0.44780  1.0000
  H   H48       1.0  0.72098  0.51322  0.55220  1.0000
  C   C1        1.0  0.87614  0.48819  0.06801  1.0000
  C   C2        1.0  0.12385  0.51181  0.93199  1.0000
  C   C3        1.0  0.92904  0.60148  0.10310  1.0000
  C   C4        1.0  0.07096  0.39852  0.89691  1.0000
  C   C5        1.0  0.07438  0.61694  0.16960  1.0000
  C   C6        1.0  0.92562  0.38306  0.83040  1.0000
  C   C7        1.0  0.15803  0.52033  0.20118  1.0000
  C   C8        1.0  0.84197  0.47967  0.79882  1.0000
  C   C9        1.0  0.09353  0.40855  0.16417  1.0000
  C   C10       1.0  0.90647  0.59145  0.83583  1.0000
  C   C11       1.0  0.27877  0.29052  0.26840  1.0000
  C   C12       1.0  0.72122  0.70948  0.73160  1.0000
  C   C13       1.0  0.32814  0.16722  0.28076  1.0000
  C   C14       1.0  0.67186  0.83278  0.71924  1.0000
  C   C15       1.0  0.45875  0.15169  0.35295  1.0000
  C   C16       1.0  0.54125  0.84831  0.64705  1.0000
  C   C17       1.0  0.50907  0.04028  0.37077  1.0000
  C   C18       1.0  0.49093  0.95972  0.62923  1.0000
  C   C19       1.0  0.43142  0.94167  0.31683  1.0000
  C   C20       1.0  0.56858  0.05833  0.68317  1.0000
  C   C21       1.0  0.30388  0.95672  0.24380  1.0000
  C   C22       1.0  0.69612  0.04328  0.75620  1.0000
  C   C23       1.0  0.25199  0.06841  0.22601  1.0000
  C   C24       1.0  0.74801  0.93159  0.77399  1.0000
  C   C25       1.0  0.47803  0.82105  0.33694  1.0000
  C   C26       1.0  0.52197  0.17895  0.66306  1.0000
  C   C27       1.0  0.63772  0.70697  0.44065  1.0000
  C   C28       1.0  0.36228  0.29303  0.55936  1.0000
  C   C29       1.0  0.51838  0.31940  0.12524  1.0000
  C   C30       1.0  0.48161  0.68060  0.87476  1.0000
  C   C31       1.0  0.55361  0.43434  0.16135  1.0000
  C   C32       1.0  0.44639  0.56567  0.83865  1.0000
  C   C33       1.0  0.68560  0.45673  0.23472  1.0000
  C   C34       1.0  0.31440  0.54327  0.76528  1.0000
  C   C35       1.0  0.77933  0.36553  0.26866  1.0000
  C   C36       1.0  0.22067  0.63447  0.73134  1.0000
  C   C37       1.0  0.73564  0.25176  0.22833  1.0000
  C   C38       1.0  0.26436  0.74824  0.77167  1.0000
  C   C39       1.0  0.92968  0.14165  0.33502  1.0000
  C   C40       1.0  0.07031  0.85835  0.66498  1.0000
  C   C41       1.0  0.97261  0.01822  0.34985  1.0000
  C   C42       1.0  0.02739  0.98178  0.65015  1.0000
  C   C43       1.0  0.10550  0.00004  0.41996  1.0000
  C   C44       1.0  0.89450  0.99996  0.58004  1.0000
  C   C45       1.0  0.14570  0.88708  0.43871  1.0000
  C   C46       1.0  0.85429  0.11292  0.56129  1.0000
  C   C47       1.0  0.05299  0.79048  0.38921  1.0000
  C   C48       1.0  0.94701  0.20952  0.61079  1.0000
  C   C49       1.0  0.92070  0.80830  0.31893  1.0000
  C   C50       1.0  0.07930  0.19170  0.68107  1.0000
  C   C51       1.0  0.88133  0.92121  0.29940  1.0000
  C   C52       1.0  0.11867  0.07879  0.70059  1.0000
  C   C53       1.0  0.08622  0.66960  0.41280  1.0000
  C   C54       1.0  0.91378  0.33040  0.58720  1.0000
  C   C55       1.0  0.26616  0.54979  0.50280  1.0000
  C   C56       1.0  0.73384  0.45021  0.49720  1.0000
  N   N1        1.0  0.95645  0.39327  0.09704  1.0000
  N   N2        1.0  0.04355  0.60674  0.90296  1.0000
  N   N3        1.0  0.16489  0.30537  0.19142  1.0000
  N   N4        1.0  0.83511  0.69463  0.80858  1.0000
  N   N5        1.0  0.60528  0.22876  0.15811  1.0000
  N   N6        1.0  0.39472  0.77124  0.84189  1.0000
  N   N7        1.0  0.82126  0.15386  0.25580  1.0000
  N   N8        1.0  0.17874  0.84614  0.74420  1.0000
  N   N9        1.0  0.12952  0.07072  0.95529  1.0000
  N   N10       1.0  0.87048  0.92929  0.04471  1.0000
  N   N11       1.0  0.51064  0.22318  0.90722  1.0000
  N   N12       1.0  0.48936  0.77682  0.09278  1.0000
  O   O1        1.0  0.33781  0.37228  0.32414  1.0000
  O   O2        1.0  0.66219  0.62772  0.67587  1.0000
  O   O3        1.0  0.42347  0.73209  0.28907  1.0000
  O   O4        1.0  0.57653  0.26791  0.71093  1.0000
  O   O5        1.0  0.58661  0.82095  0.41541  1.0000
  O   O6        1.0  0.41339  0.17905  0.58459  1.0000
  O   O7        1.0  0.98509  0.22467  0.39038  1.0000
  O   O8        1.0  0.01491  0.77533  0.60962  1.0000
  O   O9        1.0  0.99025  0.58457  0.38292  1.0000
  O   O10       1.0  0.00975  0.41543  0.61708  1.0000
  O   O11       1.0  0.23228  0.66384  0.47187  1.0000
  O   O12       1.0  0.76772  0.33616  0.52813  1.0000
  O   O13       1.0  0.98008  0.10010  0.92480  1.0000
  O   O14       1.0  0.01992  0.89990  0.07520  1.0000
  O   O15       1.0  0.22067  0.12996  0.02112  1.0000
  O   O16       1.0  0.77933  0.87004  0.97888  1.0000
  O   O17       1.0  0.18397  0.98056  0.91881  1.0000
  O   O18       1.0  0.81603  0.01944  0.08119  1.0000
  O   O19       1.0  0.60049  0.13542  0.93755  1.0000
  O   O20       1.0  0.39951  0.86458  0.06245  1.0000
  O   O21       1.0  0.57669  0.32390  0.92923  1.0000
  O   O22       1.0  0.42331  0.67610  0.07077  1.0000
  O   O23       1.0  0.36770  0.20221  0.86015  1.0000
  O   O24       1.0  0.63230  0.79779  0.13985  1.0000
