data_image0
_chemical_formula_structural       Cd2H38C58N16O8
_chemical_formula_sum              "Cd2 H38 C58 N16 O8"
_cell_length_a       10.5583
_cell_length_b       10.5623
_cell_length_c       12.1451
_cell_angle_alpha    96.3563
_cell_angle_beta     100.298
_cell_angle_gamma    89.6795

_space_group_name_H-M_alt    "P 1"
_space_group_IT_number       1

loop_
  _space_group_symop_operation_xyz
  'x, y, z'

loop_
  _atom_site_type_symbol
  _atom_site_label
  _atom_site_symmetry_multiplicity
  _atom_site_fract_x
  _atom_site_fract_y
  _atom_site_fract_z
  _atom_site_occupancy
  Cd  Cd1       1.0  0.35693  0.03385  0.10849  1.0000
  Cd  Cd2       1.0  0.64310  0.96609  0.89153  1.0000
  H   H1        1.0  0.59729  0.92141  0.26620  1.0000
  H   H2        1.0  0.40274  0.07857  0.73385  1.0000
  H   H3        1.0  0.41858  0.32035  0.21310  1.0000
  H   H4        1.0  0.58139  0.67959  0.78689  1.0000
  H   H5        1.0  0.97154  0.41255  0.83307  1.0000
  H   H6        1.0  0.02843  0.58750  0.16697  1.0000
  H   H7        1.0  0.89581  0.42206  0.59999  1.0000
  H   H8        1.0  0.10429  0.57761  0.39996  1.0000
  H   H9        1.0  0.02877  0.34414  0.64093  1.0000
  H   H10       1.0  0.97142  0.65579  0.35930  1.0000
  H   H11       1.0  0.41040  0.36547  0.49856  1.0000
  H   H12       1.0  0.58963  0.63458  0.50140  1.0000
  H   H13       1.0  0.55790  0.44041  0.67536  1.0000
  H   H14       1.0  0.44212  0.55964  0.32462  1.0000
  H   H15       1.0  0.83336  0.15459  0.59228  1.0000
  H   H16       1.0  0.16664  0.84541  0.40776  1.0000
  H   H17       1.0  0.59347  0.22197  0.79185  1.0000
  H   H18       1.0  0.40657  0.77801  0.20816  1.0000
  H   H19       1.0  0.87161  0.51793  0.94796  1.0000
  H   H20       1.0  0.12825  0.48222  0.05202  1.0000
  H   H21       1.0  0.76375  0.54432  0.11422  1.0000
  H   H22       1.0  0.23610  0.45577  0.88576  1.0000
  H   H23       1.0  0.35980  0.90994  0.84587  1.0000
  H   H24       1.0  0.64024  0.09002  0.15414  1.0000
  H   H25       1.0  0.23364  0.75340  0.69731  1.0000
  H   H26       1.0  0.76638  0.24659  0.30268  1.0000
  H   H27       1.0  0.02083  0.67186  0.72896  1.0000
  H   H28       1.0  0.97917  0.32818  0.27101  1.0000
  H   H29       1.0  0.85071  0.68628  0.84959  1.0000
  H   H30       1.0  0.14927  0.31378  0.15036  1.0000
  H   H31       1.0  0.78861  0.74789  0.03496  1.0000
  H   H32       1.0  0.21139  0.25214  0.96501  1.0000
  H   H33       1.0  0.83981  0.86562  0.23072  1.0000
  H   H34       1.0  0.16018  0.13437  0.76925  1.0000
  H   H35       1.0  0.98846  0.01005  0.37026  1.0000
  H   H36       1.0  0.01154  0.98994  0.62972  1.0000
  H   H37       1.0  0.19701  0.08101  0.31905  1.0000
  H   H38       1.0  0.80299  0.91898  0.68093  1.0000
  C   C1        1.0  0.50250  0.31949  0.52139  1.0000
  C   C2        1.0  0.49754  0.68054  0.47859  1.0000
  C   C3        1.0  0.58702  0.36273  0.61862  1.0000
  C   C4        1.0  0.41300  0.63731  0.38137  1.0000
  C   C5        1.0  0.70904  0.30580  0.64576  1.0000
  C   C6        1.0  0.29095  0.69423  0.35424  1.0000
  C   C7        1.0  0.74183  0.20254  0.57360  1.0000
  C   C8        1.0  0.25817  0.79746  0.42642  1.0000
  C   C9        1.0  0.65258  0.15292  0.47945  1.0000
  C   C10       1.0  0.34744  0.84710  0.52058  1.0000
  C   C11       1.0  0.53338  0.21369  0.45089  1.0000
  C   C12       1.0  0.46665  0.78632  0.54911  1.0000
  C   C13       1.0  0.44525  0.16909  0.34657  1.0000
  C   C14       1.0  0.55477  0.83091  0.65344  1.0000
  C   C15       1.0  0.68095  0.03491  0.41150  1.0000
  C   C16       1.0  0.31908  0.96509  0.58853  1.0000
  C   C17       1.0  0.62964  0.29532  0.86023  1.0000
  C   C18       1.0  0.37034  0.70468  0.13978  1.0000
  C   C19       1.0  0.73699  0.37174  0.85300  1.0000
  C   C20       1.0  0.26297  0.62831  0.14703  1.0000
  C   C21       1.0  0.78785  0.45866  0.94933  1.0000
  C   C22       1.0  0.21204  0.54144  0.05066  1.0000
  C   C23       1.0  0.72852  0.47458  0.04215  1.0000
  C   C24       1.0  0.27138  0.52549  0.95783  1.0000
  C   C25       1.0  0.61942  0.40024  0.04713  1.0000
  C   C26       1.0  0.38051  0.59978  0.95284  1.0000
  C   C27       1.0  0.57468  0.30597  0.95624  1.0000
  C   C28       1.0  0.42529  0.69401  0.04375  1.0000
  C   C29       1.0  0.48236  0.20941  0.97182  1.0000
  C   C30       1.0  0.51765  0.79054  0.02819  1.0000
  C   C31       1.0  0.55968  0.41249  0.14720  1.0000
  C   C32       1.0  0.44024  0.58750  0.85280  1.0000
  C   C33       1.0  0.79137  0.35412  0.75256  1.0000
  C   C34       1.0  0.20862  0.64592  0.24746  1.0000
  C   C35       1.0  0.27013  0.86856  0.85809  1.0000
  C   C36       1.0  0.72990  0.13142  0.14192  1.0000
  C   C37       1.0  0.19741  0.78274  0.77456  1.0000
  C   C38       1.0  0.80260  0.21725  0.22543  1.0000
  C   C39       1.0  0.08051  0.73843  0.79205  1.0000
  C   C40       1.0  0.91949  0.26159  0.20793  1.0000
  C   C41       1.0  0.03857  0.77891  0.89432  1.0000
  C   C42       1.0  0.96143  0.22110  0.10566  1.0000
  C   C43       1.0  0.91704  0.74108  0.91703  1.0000
  C   C44       1.0  0.08296  0.25895  0.08293  1.0000
  C   C45       1.0  0.88227  0.77635  0.01930  1.0000
  C   C46       1.0  0.11773  0.22367  0.98067  1.0000
  C   C47       1.0  0.96488  0.85503  0.10559  1.0000
  C   C48       1.0  0.03512  0.14497  0.89439  1.0000
  C   C49       1.0  0.93124  0.89594  0.21124  1.0000
  C   C50       1.0  0.06876  0.10406  0.78874  1.0000
  C   C51       1.0  0.01349  0.97669  0.28886  1.0000
  C   C52       1.0  0.98652  0.02331  0.71112  1.0000
  C   C53       1.0  0.13007  0.01567  0.26102  1.0000
  C   C54       1.0  0.86993  0.98432  0.73896  1.0000
  C   C55       1.0  0.12164  0.86066  0.97699  1.0000
  C   C56       1.0  0.87836  0.13934  0.02299  1.0000
  C   C57       1.0  0.08441  0.89891  0.08441  1.0000
  C   C58       1.0  0.91559  0.10108  0.91557  1.0000
  N   N1        1.0  0.47293  0.06078  0.28775  1.0000
  N   N2        1.0  0.52709  0.93921  0.71226  1.0000
  N   N3        1.0  0.58373  0.99646  0.32385  1.0000
  N   N4        1.0  0.41630  0.00353  0.67618  1.0000
  N   N5        1.0  0.43081  0.22140  0.06450  1.0000
  N   N6        1.0  0.56919  0.77855  0.93550  1.0000
  N   N7        1.0  0.46149  0.32583  0.14347  1.0000
  N   N8        1.0  0.53847  0.67412  0.85652  1.0000
  N   N9        1.0  0.91798  0.38075  0.75705  1.0000
  N   N10       1.0  0.08200  0.61933  0.24300  1.0000
  N   N11       1.0  0.97053  0.41583  0.66560  1.0000
  N   N12       1.0  0.02952  0.58408  0.33444  1.0000
  N   N13       1.0  0.23477  0.90505  0.95684  1.0000
  N   N14       1.0  0.76525  0.09493  0.04316  1.0000
  N   N15       1.0  0.16421  0.97760  0.16237  1.0000
  N   N16       1.0  0.83580  0.02239  0.83762  1.0000
  O   O1        1.0  0.34640  0.23256  0.30784  1.0000
  O   O2        1.0  0.65362  0.76743  0.69216  1.0000
  O   O3        1.0  0.78216  0.97255  0.43056  1.0000
  O   O4        1.0  0.21787  0.02747  0.56948  1.0000
  O   O5        1.0  0.45797  0.10669  0.90231  1.0000
  O   O6        1.0  0.54209  0.89326  0.09770  1.0000
  O   O7        1.0  0.59127  0.49368  0.23064  1.0000
  O   O8        1.0  0.40865  0.50630  0.76934  1.0000
