data_image0
_chemical_formula_structural       Zn2H36C40N6O10
_chemical_formula_sum              "Zn2 H36 C40 N6 O10"
_cell_length_a       7.61198
_cell_length_b       11.2811
_cell_length_c       13.4039
_cell_angle_alpha    63.0168
_cell_angle_beta     72.5116
_cell_angle_gamma    82.5253

_space_group_name_H-M_alt    "P 1"
_space_group_IT_number       1

loop_
  _space_group_symop_operation_xyz
  'x, y, z'

loop_
  _atom_site_type_symbol
  _atom_site_label
  _atom_site_symmetry_multiplicity
  _atom_site_fract_x
  _atom_site_fract_y
  _atom_site_fract_z
  _atom_site_occupancy
  Zn  Zn1       1.0  0.32545  0.39708  0.76693  1.0000
  Zn  Zn2       1.0  0.67455  0.60292  0.23307  1.0000
  H   H1        1.0  0.16371  0.64623  0.03100  1.0000
  H   H2        1.0  0.83629  0.35378  0.96900  1.0000
  H   H3        1.0  0.17968  0.49035  0.23267  1.0000
  H   H4        1.0  0.82032  0.50965  0.76733  1.0000
  H   H5        1.0  0.31753  0.26267  0.26768  1.0000
  H   H6        1.0  0.68247  0.73734  0.73232  1.0000
  H   H7        1.0  0.46900  0.12318  0.20225  1.0000
  H   H8        1.0  0.53100  0.87682  0.79775  1.0000
  H   H9        1.0  0.54686  0.16429  0.05249  1.0000
  H   H10       1.0  0.45314  0.83571  0.94750  1.0000
  H   H11       1.0  0.47860  0.91696  0.12394  1.0000
  H   H12       1.0  0.52140  0.08304  0.87606  1.0000
  H   H13       1.0  0.24521  0.75912  0.15776  1.0000
  H   H14       1.0  0.75480  0.24088  0.84224  1.0000
  H   H15       1.0  0.81840  0.04296  0.18354  1.0000
  H   H16       1.0  0.18160  0.95703  0.81646  1.0000
  H   H17       1.0  0.04607  0.19947  0.15049  1.0000
  H   H18       1.0  0.95393  0.80053  0.84951  1.0000
  H   H19       1.0  0.61830  0.63083  0.56566  1.0000
  H   H20       1.0  0.38168  0.36917  0.43435  1.0000
  H   H21       1.0  0.90777  0.56849  0.41031  1.0000
  H   H22       1.0  0.09222  0.43151  0.58969  1.0000
  H   H23       1.0  0.57678  0.22640  0.64938  1.0000
  H   H24       1.0  0.42322  0.77360  0.35062  1.0000
  H   H25       1.0  0.04460  0.32801  0.44134  1.0000
  H   H26       1.0  0.95539  0.67200  0.55866  1.0000
  H   H27       1.0  0.87610  0.33171  0.37158  1.0000
  H   H28       1.0  0.12390  0.66828  0.62842  1.0000
  H   H29       1.0  0.73570  0.12206  0.53918  1.0000
  H   H30       1.0  0.26431  0.87794  0.46083  1.0000
  H   H31       1.0  0.89296  0.11854  0.61489  1.0000
  H   H32       1.0  0.10704  0.88146  0.38511  1.0000
  H   H33       1.0  0.99875  0.10888  0.37828  1.0000
  H   H34       1.0  0.00126  0.89112  0.62173  1.0000
  H   H35       1.0  0.15501  0.10024  0.45631  1.0000
  H   H36       1.0  0.84499  0.89975  0.54370  1.0000
  C   C1        1.0  0.27585  0.61405  0.83799  1.0000
  C   C2        1.0  0.72415  0.38595  0.16201  1.0000
  C   C3        1.0  0.27788  0.50933  0.95954  1.0000
  C   C4        1.0  0.72212  0.49067  0.04046  1.0000
  C   C5        1.0  0.21761  0.54623  0.04987  1.0000
  C   C6        1.0  0.78239  0.45377  0.95013  1.0000
  C   C7        1.0  0.22687  0.45934  0.16320  1.0000
  C   C8        1.0  0.77313  0.54067  0.83679  1.0000
  C   C9        1.0  0.29989  0.33528  0.18365  1.0000
  C   C10       1.0  0.70011  0.66472  0.81635  1.0000
  C   C11       1.0  0.34701  0.37714  0.98388  1.0000
  C   C12       1.0  0.65298  0.62286  0.01612  1.0000
  C   C13       1.0  0.42419  0.15946  0.12280  1.0000
  C   C14       1.0  0.57581  0.84054  0.87720  1.0000
  C   C15       1.0  0.27999  0.06892  0.13604  1.0000
  C   C16       1.0  0.72001  0.93108  0.86396  1.0000
  C   C17       1.0  0.33381  0.94501  0.13635  1.0000
  C   C18       1.0  0.66620  0.05499  0.86365  1.0000
  C   C19       1.0  0.20244  0.85596  0.15587  1.0000
  C   C20       1.0  0.79758  0.14404  0.84413  1.0000
  C   C21       1.0  0.01521  0.88986  0.17413  1.0000
  C   C22       1.0  0.98480  0.11014  0.82587  1.0000
  C   C23       1.0  0.96286  0.01512  0.17051  1.0000
  C   C24       1.0  0.03714  0.98488  0.82949  1.0000
  C   C25       1.0  0.09382  0.10358  0.15185  1.0000
  C   C26       1.0  0.90618  0.89642  0.84815  1.0000
  C   C27       1.0  0.86923  0.79651  0.19892  1.0000
  C   C28       1.0  0.13078  0.20349  0.80107  1.0000
  C   C29       1.0  0.65603  0.53727  0.56065  1.0000
  C   C30       1.0  0.34396  0.46273  0.43935  1.0000
  C   C31       1.0  0.79945  0.50785  0.48447  1.0000
  C   C32       1.0  0.20053  0.49215  0.51553  1.0000
  C   C33       1.0  0.62916  0.32720  0.60606  1.0000
  C   C34       1.0  0.37084  0.67280  0.39394  1.0000
  C   C35       1.0  0.90283  0.29936  0.45649  1.0000
  C   C36       1.0  0.09717  0.70064  0.54352  1.0000
  C   C37       1.0  0.87671  0.14959  0.52750  1.0000
  C   C38       1.0  0.12329  0.85041  0.47250  1.0000
  C   C39       1.0  0.01310  0.07535  0.46652  1.0000
  C   C40       1.0  0.98690  0.92465  0.53348  1.0000
  N   N1        1.0  0.35724  0.29563  0.09734  1.0000
  N   N2        1.0  0.64276  0.70437  0.90266  1.0000
  N   N3        1.0  0.55078  0.42374  0.63564  1.0000
  N   N4        1.0  0.44921  0.57625  0.36436  1.0000
  N   N5        1.0  0.78065  0.37438  0.51501  1.0000
  N   N6        1.0  0.21934  0.62562  0.48499  1.0000
  O   O1        1.0  0.27248  0.73284  0.81981  1.0000
  O   O2        1.0  0.72752  0.26716  0.18019  1.0000
  O   O3        1.0  0.27734  0.57719  0.75913  1.0000
  O   O4        1.0  0.72266  0.42282  0.24086  1.0000
  O   O5        1.0  0.40386  0.32548  0.91296  1.0000
  O   O6        1.0  0.59613  0.67452  0.08705  1.0000
  O   O7        1.0  0.70258  0.83047  0.21529  1.0000
  O   O8        1.0  0.29742  0.16953  0.78471  1.0000
  O   O9        1.0  0.91861  0.67878  0.20511  1.0000
  O   O10       1.0  0.08141  0.32121  0.79489  1.0000
