data_image0
_chemical_formula_structural       Zn2H32C38N6O10
_chemical_formula_sum              "Zn2 H32 C38 N6 O10"
_cell_length_a       7.72525
_cell_length_b       10.8386
_cell_length_c       12.4355
_cell_angle_alpha    67.4036
_cell_angle_beta     73.657
_cell_angle_gamma    80.4231

_space_group_name_H-M_alt    "P 1"
_space_group_IT_number       1

loop_
  _space_group_symop_operation_xyz
  'x, y, z'

loop_
  _atom_site_type_symbol
  _atom_site_label
  _atom_site_symmetry_multiplicity
  _atom_site_fract_x
  _atom_site_fract_y
  _atom_site_fract_z
  _atom_site_occupancy
  Zn  Zn1       1.0  0.14877  0.11839  0.27076  1.0000
  Zn  Zn2       1.0  0.85123  0.88161  0.72924  1.0000
  H   H1        1.0  0.71770  0.24757  0.19141  1.0000
  H   H2        1.0  0.28231  0.75243  0.80859  1.0000
  H   H3        1.0  0.95454  0.40096  0.14545  1.0000
  H   H4        1.0  0.04546  0.59904  0.85455  1.0000
  H   H5        1.0  0.54959  0.73101  0.11582  1.0000
  H   H6        1.0  0.45041  0.26899  0.88418  1.0000
  H   H7        1.0  0.31528  0.57766  0.16332  1.0000
  H   H8        1.0  0.68471  0.42234  0.83668  1.0000
  H   H9        1.0  0.03168  0.65343  0.03974  1.0000
  H   H10       1.0  0.96832  0.34657  0.96026  1.0000
  H   H11       1.0  0.96581  0.63475  0.19265  1.0000
  H   H12       1.0  0.03419  0.36525  0.80734  1.0000
  H   H13       1.0  0.78989  0.78863  0.25763  1.0000
  H   H14       1.0  0.21011  0.21137  0.74238  1.0000
  H   H15       1.0  0.65141  0.02784  0.21346  1.0000
  H   H16       1.0  0.34859  0.97216  0.78654  1.0000
  H   H17       1.0  0.67735  0.17434  0.99883  1.0000
  H   H18       1.0  0.32265  0.82566  0.00117  1.0000
  H   H19       1.0  0.93863  0.32892  0.39280  1.0000
  H   H20       1.0  0.06137  0.67108  0.60720  1.0000
  H   H21       1.0  0.52153  0.05933  0.57395  1.0000
  H   H22       1.0  0.47847  0.94067  0.42605  1.0000
  H   H23       1.0  0.80710  0.94747  0.43820  1.0000
  H   H24       1.0  0.19290  0.05253  0.56180  1.0000
  H   H25       1.0  0.66492  0.31660  0.62136  1.0000
  H   H26       1.0  0.33508  0.68340  0.37864  1.0000
  H   H27       1.0  0.46415  0.27055  0.60880  1.0000
  H   H28       1.0  0.53585  0.72945  0.39120  1.0000
  H   H29       1.0  0.49973  0.44824  0.40042  1.0000
  H   H30       1.0  0.50027  0.55176  0.59959  1.0000
  H   H31       1.0  0.69106  0.49979  0.41864  1.0000
  H   H32       1.0  0.30894  0.50021  0.58136  1.0000
  C   C1        1.0  0.35008  0.31260  0.21815  1.0000
  C   C2        1.0  0.64993  0.68739  0.78185  1.0000
  C   C3        1.0  0.49974  0.40222  0.18148  1.0000
  C   C4        1.0  0.50026  0.59778  0.81851  1.0000
  C   C5        1.0  0.68114  0.35375  0.17421  1.0000
  C   C6        1.0  0.31886  0.64625  0.82579  1.0000
  C   C7        1.0  0.81454  0.44007  0.14800  1.0000
  C   C8        1.0  0.18546  0.55993  0.85200  1.0000
  C   C9        1.0  0.76897  0.57639  0.12889  1.0000
  C   C10       1.0  0.23103  0.42361  0.87111  1.0000
  C   C11       1.0  0.58904  0.62538  0.13164  1.0000
  C   C12       1.0  0.41096  0.37462  0.86835  1.0000
  C   C13       1.0  0.45564  0.53927  0.15780  1.0000
  C   C14       1.0  0.54436  0.46074  0.84220  1.0000
  C   C15       1.0  0.91585  0.66365  0.11135  1.0000
  C   C16       1.0  0.08415  0.33635  0.88865  1.0000
  C   C17       1.0  0.78315  0.85741  0.16801  1.0000
  C   C18       1.0  0.21685  0.14259  0.83199  1.0000
  C   C19       1.0  0.71282  0.98749  0.14274  1.0000
  C   C20       1.0  0.28718  0.01251  0.85727  1.0000
  C   C21       1.0  0.72462  0.06893  0.02200  1.0000
  C   C22       1.0  0.27537  0.93107  0.97800  1.0000
  C   C23       1.0  0.79879  0.01979  0.92998  1.0000
  C   C24       1.0  0.20122  0.98021  0.07001  1.0000
  C   C25       1.0  0.86095  0.88089  0.95927  1.0000
  C   C26       1.0  0.13904  0.11911  0.04073  1.0000
  C   C27       1.0  0.81961  0.11605  0.80131  1.0000
  C   C28       1.0  0.18040  0.88395  0.19868  1.0000
  C   C29       1.0  0.86364  0.24073  0.42376  1.0000
  C   C30       1.0  0.13636  0.75927  0.57624  1.0000
  C   C31       1.0  0.64759  0.09911  0.51445  1.0000
  C   C32       1.0  0.35241  0.90089  0.48555  1.0000
  C   C33       1.0  0.78938  0.04416  0.44811  1.0000
  C   C34       1.0  0.21062  0.95584  0.55189  1.0000
  C   C35       1.0  0.59333  0.31497  0.55688  1.0000
  C   C36       1.0  0.40667  0.68503  0.44313  1.0000
  C   C37       1.0  0.56052  0.45500  0.46794  1.0000
  C   C38       1.0  0.43948  0.54500  0.53206  1.0000
  N   N1        1.0  0.85441  0.80600  0.07984  1.0000
  N   N2        1.0  0.14559  0.19400  0.92016  1.0000
  N   N3        1.0  0.92306  0.13391  0.39188  1.0000
  N   N4        1.0  0.07694  0.86609  0.60812  1.0000
  N   N5        1.0  0.69664  0.22318  0.49755  1.0000
  N   N6        1.0  0.30335  0.77682  0.50246  1.0000
  O   O1        1.0  0.39153  0.18583  0.23536  1.0000
  O   O2        1.0  0.60848  0.81417  0.76464  1.0000
  O   O3        1.0  0.18839  0.35951  0.23341  1.0000
  O   O4        1.0  0.81162  0.64049  0.76658  1.0000
  O   O5        1.0  0.92514  0.81934  0.88648  1.0000
  O   O6        1.0  0.07485  0.18066  0.11352  1.0000
  O   O7        1.0  0.82993  0.07039  0.71762  1.0000
  O   O8        1.0  0.17007  0.92961  0.28238  1.0000
  O   O9        1.0  0.82566  0.23752  0.78187  1.0000
  O   O10       1.0  0.17434  0.76248  0.21813  1.0000
