data_image0
_chemical_formula_structural       Ni2H36C38N6O12
_chemical_formula_sum              "Ni2 H36 C38 N6 O12"
_cell_length_a       9.67461
_cell_length_b       10.1022
_cell_length_c       10.6904
_cell_angle_alpha    66.8494
_cell_angle_beta     87.5375
_cell_angle_gamma    87.4099

_space_group_name_H-M_alt    "P 1"
_space_group_IT_number       1

loop_
  _space_group_symop_operation_xyz
  'x, y, z'

loop_
  _atom_site_type_symbol
  _atom_site_label
  _atom_site_symmetry_multiplicity
  _atom_site_fract_x
  _atom_site_fract_y
  _atom_site_fract_z
  _atom_site_occupancy
  Ni  Ni1       1.0  1.00000  1.00000  0.50000  1.0000
  Ni  Ni2       1.0  0.00000  0.50000  0.50000  1.0000
  H   H1        1.0  0.06963  0.58869  0.07195  1.0000
  H   H2        1.0  0.93038  0.41130  0.92806  1.0000
  H   H3        1.0  0.14865  0.64895  0.82909  1.0000
  H   H4        1.0  0.85136  0.35105  0.17092  1.0000
  H   H5        1.0  0.56026  0.70598  0.93281  1.0000
  H   H6        1.0  0.43974  0.29402  0.06719  1.0000
  H   H7        1.0  0.47877  0.65263  0.17253  1.0000
  H   H8        1.0  0.52124  0.34737  0.82746  1.0000
  H   H9        1.0  0.51104  0.70246  0.70434  1.0000
  H   H10       1.0  0.48896  0.29754  0.29565  1.0000
  H   H11       1.0  0.33457  0.70832  0.65657  1.0000
  H   H12       1.0  0.66543  0.29168  0.34343  1.0000
  H   H13       1.0  0.61411  0.89659  0.70029  1.0000
  H   H14       1.0  0.38589  0.10341  0.29971  1.0000
  H   H15       1.0  0.61381  0.16447  0.64641  1.0000
  H   H16       1.0  0.38618  0.83553  0.35359  1.0000
  H   H17       1.0  0.38831  0.30343  0.58892  1.0000
  H   H18       1.0  0.61168  0.69657  0.41108  1.0000
  H   H19       1.0  0.11036  0.30812  0.27164  1.0000
  H   H20       1.0  0.88965  0.69188  0.72837  1.0000
  H   H21       1.0  0.19267  0.31636  0.01612  1.0000
  H   H22       1.0  0.80734  0.68365  0.98389  1.0000
  H   H23       1.0  0.14623  0.88267  0.28906  1.0000
  H   H24       1.0  0.85375  0.11734  0.71093  1.0000
  H   H25       1.0  0.24002  0.92443  0.05301  1.0000
  H   H26       1.0  0.75998  0.07557  0.94699  1.0000
  H   H27       1.0  0.27069  0.10248  0.93414  1.0000
  H   H28       1.0  0.72931  0.89752  0.06586  1.0000
  H   H29       1.0  0.02262  0.15438  0.89354  1.0000
  H   H30       1.0  0.97737  0.84563  0.10645  1.0000
  H   H31       1.0  0.07334  0.99475  0.87088  1.0000
  H   H32       1.0  0.92665  0.00526  0.12912  1.0000
  H   H33       1.0  0.09670  0.69974  0.54007  1.0000
  H   H34       1.0  0.90329  0.30026  0.45993  1.0000
  H   H35       1.0  0.21651  0.61752  0.49019  1.0000
  H   H36       1.0  0.78348  0.38249  0.50981  1.0000
  C   C1        1.0  0.21875  0.59708  0.27763  1.0000
  C   C2        1.0  0.78126  0.40293  0.72237  1.0000
  C   C3        1.0  0.26892  0.61932  0.13565  1.0000
  C   C4        1.0  0.73108  0.38068  0.86435  1.0000
  C   C5        1.0  0.17699  0.61465  0.03968  1.0000
  C   C6        1.0  0.82302  0.38534  0.96033  1.0000
  C   C7        1.0  0.22106  0.64726  0.90510  1.0000
  C   C8        1.0  0.77894  0.35273  0.09490  1.0000
  C   C9        1.0  0.35888  0.68340  0.86542  1.0000
  C   C10       1.0  0.64113  0.31660  0.13458  1.0000
  C   C11       1.0  0.45210  0.68157  0.96295  1.0000
  C   C12       1.0  0.54790  0.31843  0.03704  1.0000
  C   C13       1.0  0.40775  0.65112  0.09665  1.0000
  C   C14       1.0  0.59226  0.34888  0.90335  1.0000
  C   C15       1.0  0.40502  0.73919  0.71734  1.0000
  C   C16       1.0  0.59498  0.26080  0.28266  1.0000
  C   C17       1.0  0.52134  0.96565  0.67119  1.0000
  C   C18       1.0  0.47866  0.03435  0.32881  1.0000
  C   C19       1.0  0.52033  0.11100  0.64179  1.0000
  C   C20       1.0  0.47966  0.88900  0.35821  1.0000
  C   C21       1.0  0.39413  0.18889  0.60860  1.0000
  C   C22       1.0  0.60587  0.81111  0.39141  1.0000
  C   C23       1.0  0.27354  0.12369  0.60020  1.0000
  C   C24       1.0  0.72646  0.87631  0.39980  1.0000
  C   C25       1.0  0.27630  0.97213  0.62662  1.0000
  C   C26       1.0  0.72370  0.02787  0.37338  1.0000
  C   C27       1.0  0.14271  0.21386  0.56994  1.0000
  C   C28       1.0  0.85728  0.78614  0.43006  1.0000
  C   C29       1.0  0.13087  0.22034  0.23828  1.0000
  C   C30       1.0  0.86912  0.77966  0.76172  1.0000
  C   C31       1.0  0.17238  0.22620  0.11140  1.0000
  C   C32       1.0  0.82762  0.77380  0.88860  1.0000
  C   C33       1.0  0.14869  0.99898  0.25251  1.0000
  C   C34       1.0  0.85130  0.00102  0.74748  1.0000
  C   C35       1.0  0.19667  0.03521  0.01116  1.0000
  C   C36       1.0  0.80333  0.96479  0.98884  1.0000
  C   C37       1.0  0.05608  0.04096  0.94810  1.0000
  C   C38       1.0  0.94392  0.95905  0.05189  1.0000
  N   N1        1.0  0.40492  0.89877  0.66509  1.0000
  N   N2        1.0  0.59508  0.10123  0.33491  1.0000
  N   N3        1.0  0.11544  0.07750  0.32502  1.0000
  N   N4        1.0  0.88455  0.92250  0.67498  1.0000
  N   N5        1.0  0.18417  0.08500  0.12244  1.0000
  N   N6        1.0  0.81583  0.91500  0.87755  1.0000
  O   O1        1.0  0.09897  0.54416  0.31302  1.0000
  O   O2        1.0  0.90104  0.45582  0.68698  1.0000
  O   O3        1.0  0.29716  0.63572  0.34886  1.0000
  O   O4        1.0  0.70284  0.36429  0.65114  1.0000
  O   O5        1.0  0.17641  0.89878  0.62252  1.0000
  O   O6        1.0  0.82359  0.10122  0.37748  1.0000
  O   O7        1.0  0.03404  0.17219  0.53192  1.0000
  O   O8        1.0  0.96596  0.82781  0.46808  1.0000
  O   O9        1.0  0.14737  0.60579  0.56741  1.0000
  O   O10       1.0  0.85263  0.39422  0.43260  1.0000
  O   O11       1.0  0.14429  0.33239  0.58326  1.0000
  O   O12       1.0  0.85571  0.66761  0.41674  1.0000
