data_image0
_chemical_formula_structural       Zn2H44C38N4Cl4O8
_chemical_formula_sum              "Zn2 H44 C38 N4 Cl4 O8"
_cell_length_a       9.11981
_cell_length_b       8.41652
_cell_length_c       13.3281
_cell_angle_alpha    94.5337
_cell_angle_beta     97.3104
_cell_angle_gamma    91.1223

_space_group_name_H-M_alt    "P 1"
_space_group_IT_number       1

loop_
  _space_group_symop_operation_xyz
  'x, y, z'

loop_
  _atom_site_type_symbol
  _atom_site_label
  _atom_site_symmetry_multiplicity
  _atom_site_fract_x
  _atom_site_fract_y
  _atom_site_fract_z
  _atom_site_occupancy
  Zn  Zn1       1.0  0.64067  0.49761  0.02048  1.0000
  Zn  Zn2       1.0  0.24350  0.99067  0.50875  1.0000
  H   H1        1.0  0.60297  0.78259  0.95506  1.0000
  H   H2        1.0  0.70725  0.04012  0.91180  1.0000
  H   H3        1.0  0.87779  0.80118  0.65535  1.0000
  H   H4        1.0  0.70634  0.25388  0.66651  1.0000
  H   H5        1.0  0.62370  0.25778  0.83753  1.0000
  H   H6        1.0  0.04337  0.99059  0.70076  1.0000
  H   H7        1.0  0.00975  0.20034  0.70089  1.0000
  H   H8        1.0  0.89116  0.05932  0.61892  1.0000
  H   H9        1.0  0.93327  0.56890  0.59384  1.0000
  H   H10       1.0  0.73915  0.71250  0.52337  1.0000
  H   H11       1.0  0.50350  0.61591  0.54725  1.0000
  H   H12       1.0  0.54498  0.41318  0.51689  1.0000
  H   H13       1.0  0.74456  0.29998  0.37794  1.0000
  H   H14       1.0  0.73686  0.38736  0.26052  1.0000
  H   H15       1.0  0.48657  0.29185  0.35646  1.0000
  H   H16       1.0  0.48066  0.40853  0.24912  1.0000
  H   H17       1.0  0.88480  0.57123  0.39194  1.0000
  H   H18       1.0  0.70815  0.68241  0.25420  1.0000
  H   H19       1.0  0.73837  0.81230  0.36678  1.0000
  H   H20       1.0  0.46083  0.67918  0.26670  1.0000
  H   H21       1.0  0.24816  0.70026  0.55778  1.0000
  H   H22       1.0  0.18600  0.44326  0.62234  1.0000
  H   H23       1.0  0.24750  0.65747  0.92807  1.0000
  H   H24       1.0  0.37528  0.21174  0.87982  1.0000
  H   H25       1.0  0.35434  0.21233  0.69142  1.0000
  H   H26       1.0  0.20647  0.38074  0.95871  1.0000
  H   H27       1.0  0.04463  0.27165  0.89436  1.0000
  H   H28       1.0  0.03885  0.48312  0.92244  1.0000
  H   H29       1.0  0.42879  0.88926  0.01717  1.0000
  H   H30       1.0  0.18235  0.79174  0.01944  1.0000
  H   H31       1.0  0.99484  0.95496  0.96057  1.0000
  H   H32       1.0  0.08937  0.13404  0.01861  1.0000
  H   H33       1.0  0.29290  0.17043  0.18782  1.0000
  H   H34       1.0  0.26410  0.08062  0.29974  1.0000
  H   H35       1.0  0.04111  0.24017  0.17826  1.0000
  H   H36       1.0  0.00702  0.10517  0.27020  1.0000
  H   H37       1.0  0.36014  0.87828  0.18360  1.0000
  H   H38       1.0  0.14980  0.79854  0.28202  1.0000
  H   H39       1.0  0.15669  0.67568  0.16716  1.0000
  H   H40       1.0  0.91121  0.86071  0.22373  1.0000
  H   H41       1.0  0.37400  0.53600  0.39271  1.0000
  H   H42       1.0  0.87980  0.04609  0.09867  1.0000
  H   H43       1.0  0.94219  0.33232  0.51645  1.0000
  H   H44       1.0  0.48872  0.15059  0.04043  1.0000
  C   C1        1.0  0.68559  0.64377  0.83219  1.0000
  C   C2        1.0  0.66320  0.78744  0.88976  1.0000
  C   C3        1.0  0.71991  0.92935  0.86591  1.0000
  C   C4        1.0  0.80423  0.93270  0.78367  1.0000
  C   C5        1.0  0.81739  0.79638  0.72038  1.0000
  C   C6        1.0  0.75555  0.64929  0.74222  1.0000
  C   C7        1.0  0.76221  0.50409  0.68007  1.0000
  C   C8        1.0  0.70472  0.36637  0.71219  1.0000
  C   C9        1.0  0.65409  0.36853  0.80739  1.0000
  C   C10       1.0  0.95880  0.08098  0.69307  1.0000
  C   C11       1.0  0.82720  0.50047  0.58075  1.0000
  C   C12       1.0  0.72504  0.58414  0.50041  1.0000
  C   C13       1.0  0.56151  0.53617  0.49779  1.0000
  C   C14       1.0  0.70256  0.40049  0.33668  1.0000
  C   C15       1.0  0.53233  0.39769  0.32713  1.0000
  C   C16       1.0  0.76433  0.56068  0.39110  1.0000
  C   C17       1.0  0.69089  0.69593  0.33428  1.0000
  C   C18       1.0  0.52452  0.69227  0.34306  1.0000
  C   C19       1.0  0.46708  0.84244  0.39750  1.0000
  C   C20       1.0  0.27728  0.83132  0.70567  1.0000
  C   C21       1.0  0.24528  0.69250  0.63860  1.0000
  C   C22       1.0  0.20908  0.55047  0.67400  1.0000
  C   C23       1.0  0.20122  0.54159  0.77874  1.0000
  C   C24       1.0  0.24220  0.67190  0.84761  1.0000
  C   C25       1.0  0.27923  0.82124  0.81339  1.0000
  C   C26       1.0  0.31773  0.96402  0.87876  1.0000
  C   C27       1.0  0.34681  0.10123  0.83283  1.0000
  C   C28       1.0  0.33730  0.10218  0.72691  1.0000
  C   C29       1.0  0.10860  0.38428  0.90159  1.0000
  C   C30       1.0  0.33991  0.97260  0.99554  1.0000
  C   C31       1.0  0.20963  0.91552  0.04787  1.0000
  C   C32       1.0  0.06761  0.00760  0.02685  1.0000
  C   C33       1.0  0.22635  0.08089  0.21838  1.0000
  C   C34       1.0  0.06179  0.12027  0.20268  1.0000
  C   C35       1.0  0.24626  0.91597  0.16441  1.0000
  C   C36       1.0  0.13672  0.79662  0.19883  1.0000
  C   C37       1.0  0.97650  0.84174  0.16039  1.0000
  C   C38       1.0  0.89576  0.71542  0.08069  1.0000
  N   N1        1.0  0.64514  0.50208  0.86657  1.0000
  N   N2        1.0  0.48631  0.54090  0.39060  1.0000
  N   N3        1.0  0.30361  0.97203  0.66437  1.0000
  N   N4        1.0  0.98492  0.00467  0.11844  1.0000
  Cl  Cl1       1.0  0.42400  0.55067  0.07743  1.0000
  Cl  Cl2       1.0  0.71609  0.24491  0.05923  1.0000
  Cl  Cl3       1.0  0.00862  0.89894  0.45772  1.0000
  Cl  Cl4       1.0  0.24998  0.25428  0.48233  1.0000
  O   O1        1.0  0.86948  0.07574  0.77436  1.0000
  O   O2        1.0  0.85195  0.33846  0.54859  1.0000
  O   O3        1.0  0.35132  0.81439  0.44205  1.0000
  O   O4        1.0  0.52613  0.97377  0.39029  1.0000
  O   O5        1.0  0.15133  0.39818  0.80216  1.0000
  O   O6        1.0  0.38144  0.13008  0.03738  1.0000
  O   O7        1.0  0.77260  0.66116  0.10531  1.0000
  O   O8        1.0  0.95184  0.67339  0.00310  1.0000
