data_image0
_chemical_formula_structural       Co4H24C16O24
_chemical_formula_sum              "Co4 H24 C16 O24"
_cell_length_a       7.70944
_cell_length_b       9.00356
_cell_length_c       8.8254
_cell_angle_alpha    90.0009
_cell_angle_beta     90.0007
_cell_angle_gamma    90.0011

_space_group_name_H-M_alt    "P 1"
_space_group_IT_number       1

loop_
  _space_group_symop_operation_xyz
  'x, y, z'

loop_
  _atom_site_type_symbol
  _atom_site_label
  _atom_site_symmetry_multiplicity
  _atom_site_fract_x
  _atom_site_fract_y
  _atom_site_fract_z
  _atom_site_occupancy
  Co  Co1       1.0  0.09459  0.07397  0.89243  1.0000
  Co  Co2       1.0  0.40541  0.92601  0.39243  1.0000
  Co  Co3       1.0  0.59459  0.42602  0.10758  1.0000
  Co  Co4       1.0  0.90540  0.57398  0.60758  1.0000
  H   H1        1.0  0.02780  0.35405  0.85820  1.0000
  H   H2        1.0  0.47221  0.64595  0.35820  1.0000
  H   H3        1.0  0.52780  0.14596  0.14180  1.0000
  H   H4        1.0  0.97220  0.85404  0.64180  1.0000
  H   H5        1.0  0.99460  0.33786  0.03619  1.0000
  H   H6        1.0  0.50541  0.66215  0.53620  1.0000
  H   H7        1.0  0.49458  0.16214  0.96381  1.0000
  H   H8        1.0  0.00541  0.83785  0.46380  1.0000
  H   H9        1.0  0.76510  0.08956  0.03990  1.0000
  H   H10       1.0  0.73490  0.91045  0.53989  1.0000
  H   H11       1.0  0.26509  0.41045  0.96010  1.0000
  H   H12       1.0  0.23491  0.58954  0.46011  1.0000
  H   H13       1.0  0.84776  0.99047  0.25970  1.0000
  H   H14       1.0  0.65224  0.00952  0.75970  1.0000
  H   H15       1.0  0.34776  0.50951  0.74031  1.0000
  H   H16       1.0  0.15224  0.49049  0.24029  1.0000
  H   H17       1.0  0.86015  0.74386  0.02215  1.0000
  H   H18       1.0  0.63983  0.25617  0.52218  1.0000
  H   H19       1.0  0.36016  0.75616  0.97782  1.0000
  H   H20       1.0  0.13985  0.24384  0.47783  1.0000
  H   H21       1.0  0.90946  0.70597  0.21339  1.0000
  H   H22       1.0  0.59055  0.29401  0.71343  1.0000
  H   H23       1.0  0.40946  0.79403  0.78658  1.0000
  H   H24       1.0  0.09054  0.20598  0.28658  1.0000
  C   C1        1.0  0.90935  0.94035  0.15932  1.0000
  C   C2        1.0  0.59065  0.05965  0.65932  1.0000
  C   C3        1.0  0.40934  0.55965  0.84069  1.0000
  C   C4        1.0  0.09066  0.44035  0.34068  1.0000
  C   C5        1.0  0.64897  0.77066  0.18091  1.0000
  C   C6        1.0  0.85102  0.22934  0.68092  1.0000
  C   C7        1.0  0.14898  0.72933  0.81909  1.0000
  C   C8        1.0  0.35103  0.27066  0.31908  1.0000
  C   C9        1.0  0.10497  0.93956  0.18719  1.0000
  C   C10       1.0  0.39502  0.06044  0.68720  1.0000
  C   C11       1.0  0.60496  0.56044  0.81282  1.0000
  C   C12       1.0  0.89503  0.43956  0.31280  1.0000
  C   C13       1.0  0.83896  0.78276  0.13872  1.0000
  C   C14       1.0  0.66104  0.21724  0.63874  1.0000
  C   C15       1.0  0.33897  0.71724  0.86126  1.0000
  C   C16       1.0  0.16104  0.28276  0.36127  1.0000
  O   O1        1.0  0.57141  0.88905  0.22013  1.0000
  O   O2        1.0  0.92859  0.11095  0.72013  1.0000
  O   O3        1.0  0.07142  0.61095  0.77987  1.0000
  O   O4        1.0  0.42860  0.38904  0.27988  1.0000
  O   O5        1.0  0.57458  0.64435  0.18366  1.0000
  O   O6        1.0  0.92543  0.35565  0.68366  1.0000
  O   O7        1.0  0.07457  0.85564  0.81635  1.0000
  O   O8        1.0  0.42543  0.14435  0.31633  1.0000
  O   O9        1.0  0.07892  0.31333  0.95414  1.0000
  O   O10       1.0  0.42109  0.68667  0.45414  1.0000
  O   O11       1.0  0.57892  0.18666  0.04585  1.0000
  O   O12       1.0  0.92107  0.81333  0.54585  1.0000
  O   O13       1.0  0.15671  0.88108  0.31176  1.0000
  O   O14       1.0  0.34329  0.11893  0.81178  1.0000
  O   O15       1.0  0.65671  0.61892  0.68825  1.0000
  O   O16       1.0  0.84328  0.38108  0.18823  1.0000
  O   O17       1.0  0.87575  0.03145  0.03001  1.0000
  O   O18       1.0  0.62426  0.96856  0.53000  1.0000
  O   O19       1.0  0.37573  0.46856  0.97000  1.0000
  O   O20       1.0  0.12426  0.53145  0.46999  1.0000
  O   O21       1.0  0.20403  0.99785  0.09005  1.0000
  O   O22       1.0  0.29598  0.00214  0.59006  1.0000
  O   O23       1.0  0.70402  0.50215  0.90995  1.0000
  O   O24       1.0  0.79598  0.49785  0.40994  1.0000
