data_image0
_chemical_formula_structural       Mn4H24C16O24
_chemical_formula_sum              "Mn4 H24 C16 O24"
_cell_length_a       7.97074
_cell_length_b       9.16105
_cell_length_c       8.88278
_cell_angle_alpha    90.0007
_cell_angle_beta     89.9999
_cell_angle_gamma    90.0003

_space_group_name_H-M_alt    "P 1"
_space_group_IT_number       1

loop_
  _space_group_symop_operation_xyz
  'x, y, z'

loop_
  _atom_site_type_symbol
  _atom_site_label
  _atom_site_symmetry_multiplicity
  _atom_site_fract_x
  _atom_site_fract_y
  _atom_site_fract_z
  _atom_site_occupancy
  Mn  Mn1       1.0  0.89463  0.93108  0.39125  1.0000
  Mn  Mn2       1.0  0.60537  0.06892  0.89124  1.0000
  Mn  Mn3       1.0  0.39464  0.56892  0.60875  1.0000
  Mn  Mn4       1.0  0.10535  0.43107  0.10876  1.0000
  H   H1        1.0  0.96521  0.64776  0.35377  1.0000
  H   H2        1.0  0.53479  0.35224  0.85377  1.0000
  H   H3        1.0  0.46521  0.85224  0.64623  1.0000
  H   H4        1.0  0.03479  0.14776  0.14623  1.0000
  H   H5        1.0  0.99397  0.65755  0.53128  1.0000
  H   H6        1.0  0.50603  0.34244  0.03128  1.0000
  H   H7        1.0  0.49397  0.84244  0.46872  1.0000
  H   H8        1.0  0.00603  0.15756  0.96872  1.0000
  H   H9        1.0  0.23294  0.91506  0.54368  1.0000
  H   H10       1.0  0.26706  0.08494  0.04368  1.0000
  H   H11       1.0  0.73295  0.58494  0.45632  1.0000
  H   H12       1.0  0.76706  0.41506  0.95632  1.0000
  H   H13       1.0  0.15847  0.00540  0.76512  1.0000
  H   H14       1.0  0.34154  0.99460  0.26513  1.0000
  H   H15       1.0  0.65847  0.49459  0.23487  1.0000
  H   H16       1.0  0.84153  0.50541  0.73488  1.0000
  H   H17       1.0  0.14062  0.25139  0.53330  1.0000
  H   H18       1.0  0.35938  0.74860  0.03331  1.0000
  H   H19       1.0  0.64062  0.24861  0.46670  1.0000
  H   H20       1.0  0.85938  0.75140  0.96670  1.0000
  H   H21       1.0  0.09935  0.28677  0.72507  1.0000
  H   H22       1.0  0.40065  0.71323  0.22507  1.0000
  H   H23       1.0  0.59934  0.21323  0.27493  1.0000
  H   H24       1.0  0.90065  0.78677  0.77493  1.0000
  C   C1        1.0  0.09620  0.05648  0.66759  1.0000
  C   C2        1.0  0.40380  0.94352  0.16759  1.0000
  C   C3        1.0  0.59620  0.44352  0.33241  1.0000
  C   C4        1.0  0.90380  0.55648  0.83241  1.0000
  C   C5        1.0  0.90834  0.05994  0.70034  1.0000
  C   C6        1.0  0.59166  0.94006  0.20034  1.0000
  C   C7        1.0  0.40833  0.44006  0.29966  1.0000
  C   C8        1.0  0.09167  0.55994  0.79966  1.0000
  C   C9        1.0  0.16464  0.21174  0.64827  1.0000
  C   C10       1.0  0.33537  0.78827  0.14827  1.0000
  C   C11       1.0  0.66463  0.28826  0.35173  1.0000
  C   C12       1.0  0.83537  0.71173  0.85173  1.0000
  C   C13       1.0  0.35004  0.22275  0.68523  1.0000
  C   C14       1.0  0.14997  0.77725  0.18523  1.0000
  C   C15       1.0  0.85003  0.27725  0.31477  1.0000
  C   C16       1.0  0.64997  0.72275  0.81477  1.0000
  O   O1        1.0  0.80629  0.00910  0.60523  1.0000
  O   O2        1.0  0.69371  0.99090  0.10522  1.0000
  O   O3        1.0  0.30629  0.49090  0.39478  1.0000
  O   O4        1.0  0.19371  0.50910  0.89477  1.0000
  O   O5        1.0  0.91286  0.68364  0.44930  1.0000
  O   O6        1.0  0.58713  0.31636  0.94930  1.0000
  O   O7        1.0  0.41286  0.81636  0.55070  1.0000
  O   O8        1.0  0.08713  0.18363  0.05070  1.0000
  O   O9        1.0  0.12388  0.96938  0.53687  1.0000
  O   O10       1.0  0.37612  0.03061  0.03687  1.0000
  O   O11       1.0  0.62388  0.53062  0.46312  1.0000
  O   O12       1.0  0.87612  0.46939  0.96313  1.0000
  O   O13       1.0  0.86324  0.11431  0.82734  1.0000
  O   O14       1.0  0.63675  0.88569  0.32734  1.0000
  O   O15       1.0  0.36323  0.38569  0.17266  1.0000
  O   O16       1.0  0.13677  0.61431  0.67265  1.0000
  O   O17       1.0  0.42604  0.10683  0.72262  1.0000
  O   O18       1.0  0.07396  0.89318  0.22263  1.0000
  O   O19       1.0  0.92602  0.39318  0.27738  1.0000
  O   O20       1.0  0.57397  0.60682  0.77737  1.0000
  O   O21       1.0  0.42114  0.34761  0.68456  1.0000
  O   O22       1.0  0.07887  0.65240  0.18456  1.0000
  O   O23       1.0  0.92114  0.15240  0.31543  1.0000
  O   O24       1.0  0.57886  0.84760  0.81544  1.0000
