data_image0
_chemical_formula_structural       Cu2H44C38O14
_chemical_formula_sum              "Cu2 H44 C38 O14"
_cell_length_a       8.22358
_cell_length_b       9.1629
_cell_length_c       13.6286
_cell_angle_alpha    70.3358
_cell_angle_beta     84.6617
_cell_angle_gamma    73.9704

_space_group_name_H-M_alt    "P 1"
_space_group_IT_number       1

loop_
  _space_group_symop_operation_xyz
  'x, y, z'

loop_
  _atom_site_type_symbol
  _atom_site_label
  _atom_site_symmetry_multiplicity
  _atom_site_fract_x
  _atom_site_fract_y
  _atom_site_fract_z
  _atom_site_occupancy
  Cu  Cu1       1.0  0.43834  0.34228  0.45163  1.0000
  Cu  Cu2       1.0  0.93812  0.79394  0.54834  1.0000
  H   H1        1.0  0.59438  0.49213  0.52145  1.0000
  H   H2        1.0  0.09400  0.01390  0.47851  1.0000
  H   H3        1.0  0.34546  0.25142  0.23129  1.0000
  H   H4        1.0  0.84575  0.48221  0.76867  1.0000
  H   H5        1.0  0.14126  0.22763  0.12181  1.0000
  H   H6        1.0  0.64172  0.34865  0.87829  1.0000
  H   H7        1.0  0.88317  0.36017  0.00937  1.0000
  H   H8        1.0  0.38361  0.36856  0.99082  1.0000
  H   H9        1.0  0.69315  0.61742  0.01814  1.0000
  H   H10       1.0  0.19345  0.63454  0.98195  1.0000
  H   H11       1.0  0.76698  0.75053  0.13449  1.0000
  H   H12       1.0  0.26695  0.88416  0.86541  1.0000
  H   H13       1.0  0.02378  0.61770  0.24589  1.0000
  H   H14       1.0  0.52380  0.86293  0.75403  1.0000
  H   H15       1.0  0.50879  0.56662  0.22330  1.0000
  H   H16       1.0  0.00870  0.78962  0.77669  1.0000
  H   H17       1.0  0.52923  0.39791  0.18131  1.0000
  H   H18       1.0  0.02919  0.57886  0.81876  1.0000
  H   H19       1.0  0.37068  0.58119  0.12394  1.0000
  H   H20       1.0  0.87046  0.70478  0.87602  1.0000
  H   H21       1.0  0.86783  0.11736  0.27524  1.0000
  H   H22       1.0  0.36784  0.39266  0.72482  1.0000
  H   H23       1.0  0.74108  0.17108  0.11216  1.0000
  H   H24       1.0  0.24044  0.28334  0.88786  1.0000
  H   H25       1.0  0.54779  0.11968  0.00416  1.0000
  H   H26       1.0  0.04728  0.12357  0.99573  1.0000
  H   H27       1.0  0.37775  0.92358  0.08724  1.0000
  H   H28       1.0  0.87799  0.01003  0.91258  1.0000
  H   H29       1.0  0.41038  0.77177  0.27843  1.0000
  H   H30       1.0  0.91094  0.04980  0.72136  1.0000
  H   H31       1.0  0.60812  0.81708  0.38370  1.0000
  H   H32       1.0  0.10865  0.20061  0.61626  1.0000
  H   H33       1.0  0.03558  0.86202  0.21948  1.0000
  H   H34       1.0  0.53533  0.08126  0.78054  1.0000
  H   H35       1.0  0.15833  0.73623  0.33438  1.0000
  H   H36       1.0  0.65834  0.07047  0.66572  1.0000
  H   H37       1.0  0.14177  0.94903  0.28618  1.0000
  H   H38       1.0  0.64192  0.23485  0.71408  1.0000
  H   H39       1.0  0.78960  0.41765  0.34838  1.0000
  H   H40       1.0  0.28900  0.76629  0.65168  1.0000
  H   H41       1.0  0.84350  0.49912  0.43976  1.0000
  H   H42       1.0  0.34297  0.93918  0.56024  1.0000
  H   H43       1.0  0.83525  0.29315  0.48059  1.0000
  H   H44       1.0  0.33486  0.77396  0.51950  1.0000
  C   C1        1.0  0.20265  0.22960  0.37085  1.0000
  C   C2        1.0  0.70276  0.60012  0.62916  1.0000
  C   C3        1.0  0.24966  0.33535  0.26310  1.0000
  C   C4        1.0  0.74988  0.59794  0.73690  1.0000
  C   C5        1.0  0.09794  0.41464  0.19129  1.0000
  C   C6        1.0  0.59818  0.60523  0.80877  1.0000
  C   C7        1.0  0.05826  0.34227  0.12437  1.0000
  C   C8        1.0  0.55862  0.46579  0.87572  1.0000
  C   C9        1.0  0.91309  0.41554  0.06241  1.0000
  C   C10       1.0  0.41349  0.47701  0.93772  1.0000
  C   C11       1.0  0.80700  0.56183  0.06623  1.0000
  C   C12       1.0  0.30728  0.62710  0.93384  1.0000
  C   C13       1.0  0.84824  0.63608  0.13120  1.0000
  C   C14       1.0  0.34830  0.76642  0.86874  1.0000
  C   C15       1.0  0.99249  0.56219  0.19357  1.0000
  C   C16       1.0  0.49258  0.75502  0.80639  1.0000
  C   C17       1.0  0.43889  0.50179  0.19613  1.0000
  C   C18       1.0  0.93883  0.69756  0.80388  1.0000
  C   C19       1.0  0.71602  0.07946  0.41088  1.0000
  C   C20       1.0  0.21624  0.49054  0.58909  1.0000
  C   C21       1.0  0.80716  0.02211  0.32144  1.0000
  C   C22       1.0  0.30727  0.34366  0.67858  1.0000
  C   C23       1.0  0.68483  0.99936  0.25493  1.0000
  C   C24       1.0  0.18495  0.25419  0.74505  1.0000
  C   C25       1.0  0.66803  0.08349  0.14807  1.0000
  C   C26       1.0  0.16772  0.23149  0.85189  1.0000
  C   C27       1.0  0.55785  0.05612  0.08781  1.0000
  C   C28       1.0  0.05761  0.14364  0.91209  1.0000
  C   C29       1.0  0.46278  0.94569  0.13436  1.0000
  C   C30       1.0  0.96292  0.07950  0.86551  1.0000
  C   C31       1.0  0.48074  0.86061  0.24115  1.0000
  C   C32       1.0  0.98114  0.10136  0.75872  1.0000
  C   C33       1.0  0.59136  0.88651  0.30101  1.0000
  C   C34       1.0  0.09174  0.18729  0.69894  1.0000
  C   C35       1.0  0.07584  0.85564  0.29616  1.0000
  C   C36       1.0  0.57587  0.15164  0.70394  1.0000
  C   C37       1.0  0.77842  0.41553  0.42938  1.0000
  C   C38       1.0  0.27793  0.84514  0.57066  1.0000
  O   O1        1.0  0.26610  0.22798  0.45323  1.0000
  O   O2        1.0  0.76604  0.68110  0.54676  1.0000
  O   O3        1.0  0.10490  0.14458  0.37156  1.0000
  O   O4        1.0  0.60512  0.51569  0.62848  1.0000
  O   O5        1.0  0.32414  0.44996  0.27762  1.0000
  O   O6        1.0  0.82425  0.72714  0.72235  1.0000
  O   O7        1.0  0.75928  0.00435  0.50496  1.0000
  O   O8        1.0  0.25981  0.50956  0.49506  1.0000
  O   O9        1.0  0.59973  0.20882  0.37917  1.0000
  O   O10       1.0  0.09974  0.58810  0.62072  1.0000
  O   O11       1.0  0.93377  0.87532  0.36400  1.0000
  O   O12       1.0  0.43400  0.23957  0.63600  1.0000
  O   O13       1.0  0.60129  0.46848  0.45237  1.0000
  O   O14       1.0  0.10082  0.92108  0.54758  1.0000
