data_image0
_chemical_formula_structural       Fe4H24C16O24
_chemical_formula_sum              "Fe4 H24 C16 O24"
_cell_length_a       7.84621
_cell_length_b       9.09739
_cell_length_c       8.815
_cell_angle_alpha    89.9347
_cell_angle_beta     89.7742
_cell_angle_gamma    89.9645

_space_group_name_H-M_alt    "P 1"
_space_group_IT_number       1

loop_
  _space_group_symop_operation_xyz
  'x, y, z'

loop_
  _atom_site_type_symbol
  _atom_site_label
  _atom_site_symmetry_multiplicity
  _atom_site_fract_x
  _atom_site_fract_y
  _atom_site_fract_z
  _atom_site_occupancy
  Fe  Fe1       1.0  0.10141  0.07229  0.88689  1.0000
  Fe  Fe2       1.0  0.39950  0.92793  0.38627  1.0000
  Fe  Fe3       1.0  0.60091  0.42764  0.11377  1.0000
  Fe  Fe4       1.0  0.89759  0.57292  0.61170  1.0000
  H   H1        1.0  0.00120  0.33958  0.03226  1.0000
  H   H2        1.0  0.49883  0.65980  0.53483  1.0000
  H   H3        1.0  0.49969  0.16044  0.96507  1.0000
  H   H4        1.0  0.99985  0.83960  0.46588  1.0000
  H   H5        1.0  0.03417  0.35412  0.85429  1.0000
  H   H6        1.0  0.46952  0.64490  0.35685  1.0000
  H   H7        1.0  0.52849  0.14599  0.14341  1.0000
  H   H8        1.0  0.96774  0.85308  0.64429  1.0000
  H   H9        1.0  0.84189  0.99383  0.26107  1.0000
  H   H10       1.0  0.65891  0.00550  0.75789  1.0000
  H   H11       1.0  0.34438  0.50738  0.74129  1.0000
  H   H12       1.0  0.15517  0.49176  0.23697  1.0000
  H   H13       1.0  0.76366  0.08728  0.04103  1.0000
  H   H14       1.0  0.73577  0.91314  0.53791  1.0000
  H   H15       1.0  0.26629  0.41321  0.96097  1.0000
  H   H16       1.0  0.23402  0.58684  0.45822  1.0000
  H   H17       1.0  0.86348  0.74540  0.02936  1.0000
  H   H18       1.0  0.64027  0.25731  0.52948  1.0000
  H   H19       1.0  0.35859  0.75639  0.97228  1.0000
  H   H20       1.0  0.13791  0.24764  0.47411  1.0000
  H   H21       1.0  0.90741  0.71192  0.22268  1.0000
  H   H22       1.0  0.59526  0.28815  0.72326  1.0000
  H   H23       1.0  0.40545  0.78990  0.77917  1.0000
  H   H24       1.0  0.09218  0.20971  0.28229  1.0000
  C   C1        1.0  0.90472  0.94308  0.16200  1.0000
  C   C2        1.0  0.59621  0.05769  0.65987  1.0000
  C   C3        1.0  0.40616  0.55875  0.84000  1.0000
  C   C4        1.0  0.09303  0.44216  0.33703  1.0000
  C   C5        1.0  0.09629  0.94476  0.19203  1.0000
  C   C6        1.0  0.40473  0.05552  0.69135  1.0000
  C   C7        1.0  0.59768  0.55764  0.80927  1.0000
  C   C8        1.0  0.90147  0.44206  0.30782  1.0000
  C   C9        1.0  0.65125  0.77170  0.18368  1.0000
  C   C10       1.0  0.85082  0.22731  0.68361  1.0000
  C   C11       1.0  0.15020  0.72666  0.81551  1.0000
  C   C12       1.0  0.34816  0.27224  0.31713  1.0000
  C   C13       1.0  0.83894  0.78563  0.14500  1.0000
  C   C14       1.0  0.66334  0.21495  0.64449  1.0000
  C   C15       1.0  0.33730  0.71533  0.85658  1.0000
  C   C16       1.0  0.16077  0.28555  0.35731  1.0000
  O   O1        1.0  0.58126  0.64574  0.18440  1.0000
  O   O2        1.0  0.92247  0.35243  0.68354  1.0000
  O   O3        1.0  0.07646  0.85099  0.81775  1.0000
  O   O4        1.0  0.41932  0.14662  0.31693  1.0000
  O   O5        1.0  0.08426  0.31434  0.95025  1.0000
  O   O6        1.0  0.41745  0.68494  0.45195  1.0000
  O   O7        1.0  0.58051  0.18607  0.04824  1.0000
  O   O8        1.0  0.91729  0.81405  0.54838  1.0000
  O   O9        1.0  0.57151  0.88841  0.22172  1.0000
  O   O10       1.0  0.92837  0.11002  0.72270  1.0000
  O   O11       1.0  0.07553  0.60934  0.77315  1.0000
  O   O12       1.0  0.42628  0.38914  0.27750  1.0000
  O   O13       1.0  0.19568  0.00182  0.09569  1.0000
  O   O14       1.0  0.30550  0.99778  0.59618  1.0000
  O   O15       1.0  0.69702  0.50091  0.90490  1.0000
  O   O16       1.0  0.80191  0.49754  0.40476  1.0000
  O   O17       1.0  0.14606  0.88914  0.31844  1.0000
  O   O18       1.0  0.35487  0.11071  0.81815  1.0000
  O   O19       1.0  0.64726  0.61275  0.68192  1.0000
  O   O20       1.0  0.85193  0.38671  0.18116  1.0000
  O   O21       1.0  0.87107  0.02857  0.02986  1.0000
  O   O22       1.0  0.62989  0.97380  0.52657  1.0000
  O   O23       1.0  0.37264  0.47310  0.97236  1.0000
  O   O24       1.0  0.12485  0.53039  0.46733  1.0000
