data_image0
_chemical_formula_structural       Mg2H44C20O4
_chemical_formula_sum              "Mg2 H44 C20 O4"
_cell_length_a       7.33864
_cell_length_b       7.73892
_cell_length_c       12.1354
_cell_angle_alpha    104.639
_cell_angle_beta     90.0054
_cell_angle_gamma    118.307

_space_group_name_H-M_alt    "P 1"
_space_group_IT_number       1

loop_
  _space_group_symop_operation_xyz
  'x, y, z'

loop_
  _atom_site_type_symbol
  _atom_site_label
  _atom_site_symmetry_multiplicity
  _atom_site_fract_x
  _atom_site_fract_y
  _atom_site_fract_z
  _atom_site_occupancy
  Mg  Mg1       1.0  0.28521  0.00001  0.74996  1.0000
  Mg  Mg2       1.0  0.71479  0.99999  0.25004  1.0000
  H   H1        1.0  0.43442  0.42337  0.84354  1.0000
  H   H2        1.0  0.01085  0.57666  0.65628  1.0000
  H   H3        1.0  0.56557  0.57663  0.15646  1.0000
  H   H4        1.0  0.98915  0.42334  0.34372  1.0000
  H   H5        1.0  0.15195  0.25583  0.95676  1.0000
  H   H6        1.0  0.89642  0.74465  0.54313  1.0000
  H   H7        1.0  0.84805  0.74417  0.04324  1.0000
  H   H8        1.0  0.10359  0.25535  0.45688  1.0000
  H   H9        1.0  0.96279  0.13241  0.83261  1.0000
  H   H10       1.0  0.83063  0.86799  0.66726  1.0000
  H   H11       1.0  0.03721  0.86759  0.16739  1.0000
  H   H12       1.0  0.16938  0.13201  0.33274  1.0000
  H   H13       1.0  0.08371  0.40071  0.89030  1.0000
  H   H14       1.0  0.68307  0.59970  0.60943  1.0000
  H   H15       1.0  0.91629  0.59929  0.10970  1.0000
  H   H16       1.0  0.31694  0.40030  0.39057  1.0000
  H   H17       1.0  0.37029  0.37128  0.63595  1.0000
  H   H18       1.0  0.99864  0.62846  0.86382  1.0000
  H   H19       1.0  0.62970  0.62872  0.36405  1.0000
  H   H20       1.0  0.00135  0.37154  0.13618  1.0000
  H   H21       1.0  0.19468  0.45118  0.69829  1.0000
  H   H22       1.0  0.74319  0.54876  0.80141  1.0000
  H   H23       1.0  0.80531  0.54883  0.30171  1.0000
  H   H24       1.0  0.25682  0.45123  0.19859  1.0000
  H   H25       1.0  0.10417  0.19063  0.62685  1.0000
  H   H26       1.0  0.91332  0.80922  0.87300  1.0000
  H   H27       1.0  0.89583  0.80938  0.37314  1.0000
  H   H28       1.0  0.08668  0.19078  0.12700  1.0000
  H   H29       1.0  0.24899  0.68602  0.53790  1.0000
  H   H30       1.0  0.56300  0.31401  0.96214  1.0000
  H   H31       1.0  0.75100  0.31397  0.46210  1.0000
  H   H32       1.0  0.43701  0.68600  0.03786  1.0000
  H   H33       1.0  0.51569  0.76094  0.51768  1.0000
  H   H34       1.0  0.75473  0.23891  0.98218  1.0000
  H   H35       1.0  0.48430  0.23905  0.48232  1.0000
  H   H36       1.0  0.24528  0.76110  0.01782  1.0000
  H   H37       1.0  0.68103  0.29459  0.66633  1.0000
  H   H38       1.0  0.38593  0.70535  0.83366  1.0000
  H   H39       1.0  0.31896  0.70540  0.33367  1.0000
  H   H40       1.0  0.61407  0.29466  0.16634  1.0000
  H   H41       1.0  0.77352  0.12472  0.59449  1.0000
  H   H42       1.0  0.64849  0.87522  0.90531  1.0000
  H   H43       1.0  0.22647  0.87528  0.40551  1.0000
  H   H44       1.0  0.35151  0.12478  0.09469  1.0000
  C   C1        1.0  0.28560  0.28911  0.79621  1.0000
  C   C2        1.0  0.99641  0.71098  0.70366  1.0000
  C   C3        1.0  0.71439  0.71089  0.20379  1.0000
  C   C4        1.0  0.00360  0.28901  0.29634  1.0000
  C   C5        1.0  0.11462  0.26937  0.87259  1.0000
  C   C6        1.0  0.84538  0.73099  0.62726  1.0000
  C   C7        1.0  0.88538  0.73063  0.12741  1.0000
  C   C8        1.0  0.15463  0.26901  0.37274  1.0000
  C   C9        1.0  0.23738  0.32801  0.68519  1.0000
  C   C10       1.0  0.90913  0.67190  0.81460  1.0000
  C   C11       1.0  0.76261  0.67199  0.31481  1.0000
  C   C12       1.0  0.09087  0.32809  0.18540  1.0000
  C   C13       1.0  0.39314  0.80481  0.51880  1.0000
  C   C14       1.0  0.58827  0.19518  0.98119  1.0000
  C   C15       1.0  0.60685  0.19518  0.48120  1.0000
  C   C16       1.0  0.41174  0.80483  0.01881  1.0000
  C   C17       1.0  0.64459  0.15976  0.59399  1.0000
  C   C18       1.0  0.48449  0.84017  0.90596  1.0000
  C   C19       1.0  0.35540  0.84023  0.40601  1.0000
  C   C20       1.0  0.51553  0.15984  0.09405  1.0000
  O   O1        1.0  0.45773  0.98958  0.61290  1.0000
  O   O2        1.0  0.46777  0.01038  0.88716  1.0000
  O   O3        1.0  0.54226  0.01041  0.38710  1.0000
  O   O4        1.0  0.53224  0.98963  0.11284  1.0000
