data_image0
_chemical_formula_structural       Cd2H40C56N4O16
_chemical_formula_sum              "Cd2 H40 C56 N4 O16"
_cell_length_a       11.6148
_cell_length_b       11.6181
_cell_length_c       12.6365
_cell_angle_alpha    99.5677
_cell_angle_beta     119.737
_cell_angle_gamma    106.218

_space_group_name_H-M_alt    "P 1"
_space_group_IT_number       1

loop_
  _space_group_symop_operation_xyz
  'x, y, z'

loop_
  _atom_site_type_symbol
  _atom_site_label
  _atom_site_symmetry_multiplicity
  _atom_site_fract_x
  _atom_site_fract_y
  _atom_site_fract_z
  _atom_site_occupancy
  Cd  Cd1       1.0  0.58226  0.33221  0.75000  1.0000
  Cd  Cd2       1.0  0.41775  0.66779  0.25001  1.0000
  H   H1        1.0  0.80325  0.03280  0.50764  1.0000
  H   H2        1.0  0.52571  0.79581  0.99262  1.0000
  H   H3        1.0  0.19676  0.96718  0.49236  1.0000
  H   H4        1.0  0.47429  0.20419  0.00739  1.0000
  H   H5        1.0  0.03393  0.11514  0.51201  1.0000
  H   H6        1.0  0.60301  0.02197  0.98782  1.0000
  H   H7        1.0  0.96607  0.88486  0.48800  1.0000
  H   H8        1.0  0.39699  0.97802  0.01219  1.0000
  H   H9        1.0  0.27270  0.32563  0.92664  1.0000
  H   H10       1.0  0.39832  0.84598  0.57310  1.0000
  H   H11       1.0  0.72731  0.67439  0.07337  1.0000
  H   H12       1.0  0.60168  0.15402  0.42690  1.0000
  H   H13       1.0  0.03854  0.25424  0.90403  1.0000
  H   H14       1.0  0.35003  0.63461  0.59590  1.0000
  H   H15       1.0  0.96146  0.74578  0.09596  1.0000
  H   H16       1.0  0.64999  0.36540  0.40411  1.0000
  H   H17       1.0  0.79225  0.16091  0.77730  1.0000
  H   H18       1.0  0.38448  0.51536  0.72321  1.0000
  H   H19       1.0  0.20777  0.83910  0.22271  1.0000
  H   H20       1.0  0.61550  0.48462  0.27678  1.0000
  H   H21       1.0  0.68930  0.07348  0.60613  1.0000
  H   H22       1.0  0.46805  0.58368  0.89434  1.0000
  H   H23       1.0  0.31069  0.92652  0.39387  1.0000
  H   H24       1.0  0.53194  0.41629  0.10564  1.0000
  H   H25       1.0  0.86820  0.04930  0.93393  1.0000
  H   H26       1.0  0.11596  0.43462  0.56622  1.0000
  H   H27       1.0  0.13180  0.95071  0.06607  1.0000
  H   H28       1.0  0.88402  0.56535  0.43377  1.0000
  H   H29       1.0  0.81797  0.83881  0.96438  1.0000
  H   H30       1.0  0.87502  0.35407  0.53583  1.0000
  H   H31       1.0  0.18202  0.16120  0.03562  1.0000
  H   H32       1.0  0.12498  0.64593  0.46419  1.0000
  H   H33       1.0  0.60157  0.63850  0.55304  1.0000
  H   H34       1.0  0.08568  0.54831  0.94710  1.0000
  H   H35       1.0  0.39844  0.36151  0.44697  1.0000
  H   H36       1.0  0.91433  0.45170  0.05291  1.0000
  H   H37       1.0  0.65298  0.84815  0.52225  1.0000
  H   H38       1.0  0.32633  0.63042  0.97806  1.0000
  H   H39       1.0  0.34701  0.15185  0.47774  1.0000
  H   H40       1.0  0.67368  0.36956  0.02194  1.0000
  C   C1        1.0  0.91103  0.09862  0.59600  1.0000
  C   C2        1.0  0.50281  0.81514  0.90413  1.0000
  C   C3        1.0  0.08898  0.90139  0.40400  1.0000
  C   C4        1.0  0.49719  0.18485  0.09587  1.0000
  C   C5        1.0  0.03778  0.14170  0.60079  1.0000
  C   C6        1.0  0.54086  0.93700  0.89911  1.0000
  C   C7        1.0  0.96223  0.85831  0.39921  1.0000
  C   C8        1.0  0.45914  0.06298  0.10089  1.0000
  C   C9        1.0  0.17225  0.22156  0.72035  1.0000
  C   C10       1.0  0.50095  0.95184  0.77945  1.0000
  C   C11       1.0  0.82776  0.77845  0.27965  1.0000
  C   C12       1.0  0.49905  0.04815  0.22056  1.0000
  C   C13       1.0  0.17342  0.26101  0.83143  1.0000
  C   C14       1.0  0.42925  0.84190  0.66842  1.0000
  C   C15       1.0  0.82659  0.73899  0.16857  1.0000
  C   C16       1.0  0.57075  0.15810  0.33158  1.0000
  C   C17       1.0  0.04317  0.22129  0.82102  1.0000
  C   C18       1.0  0.40016  0.72216  0.67902  1.0000
  C   C19       1.0  0.95684  0.77871  0.17899  1.0000
  C   C20       1.0  0.59983  0.27784  0.32097  1.0000
  C   C21       1.0  0.31244  0.26681  0.72784  1.0000
  C   C22       1.0  0.53857  0.08454  0.77184  1.0000
  C   C23       1.0  0.68754  0.73318  0.27213  1.0000
  C   C24       1.0  0.46142  0.91546  0.22816  1.0000
  C   C25       1.0  0.78128  0.08686  0.70230  1.0000
  C   C26       1.0  0.38523  0.57929  0.79811  1.0000
  C   C27       1.0  0.21872  0.91314  0.29771  1.0000
  C   C28       1.0  0.61477  0.42071  0.20187  1.0000
  C   C29       1.0  0.76162  0.96170  0.72519  1.0000
  C   C30       1.0  0.23705  0.53656  0.77504  1.0000
  C   C31       1.0  0.23838  0.03831  0.27480  1.0000
  C   C32       1.0  0.76294  0.46344  0.22495  1.0000
  C   C33       1.0  0.81198  0.95955  0.85079  1.0000
  C   C34       1.0  0.10938  0.46156  0.64941  1.0000
  C   C35       1.0  0.18802  0.04045  0.14921  1.0000
  C   C36       1.0  0.89062  0.53844  0.35058  1.0000
  C   C37       1.0  0.78413  0.84200  0.86806  1.0000
  C   C38       1.0  0.97450  0.41638  0.63211  1.0000
  C   C39       1.0  0.21586  0.15800  0.13194  1.0000
  C   C40       1.0  0.02550  0.58361  0.36790  1.0000
  C   C41       1.0  0.70644  0.72568  0.76117  1.0000
  C   C42       1.0  0.96495  0.44524  0.73899  1.0000
  C   C43       1.0  0.29356  0.27432  0.23883  1.0000
  C   C44       1.0  0.03506  0.55476  0.26101  1.0000
  C   C45       1.0  0.66243  0.72856  0.63662  1.0000
  C   C46       1.0  0.09231  0.52565  0.86357  1.0000
  C   C47       1.0  0.33757  0.27145  0.36338  1.0000
  C   C48       1.0  0.90769  0.47436  0.13643  1.0000
  C   C49       1.0  0.69025  0.84612  0.61944  1.0000
  C   C50       1.0  0.22713  0.57071  0.88079  1.0000
  C   C51       1.0  0.30975  0.15389  0.38056  1.0000
  C   C52       1.0  0.77287  0.42930  0.11920  1.0000
  C   C53       1.0  0.66383  0.59913  0.77944  1.0000
  C   C54       1.0  0.81997  0.38419  0.72054  1.0000
  C   C55       1.0  0.33618  0.40087  0.22058  1.0000
  C   C56       1.0  0.18002  0.61581  0.27945  1.0000
  N   N1        1.0  0.91610  0.13895  0.70595  1.0000
  N   N2        1.0  0.43327  0.71028  0.79424  1.0000
  N   N3        1.0  0.08391  0.86105  0.29405  1.0000
  N   N4        1.0  0.56672  0.28971  0.20576  1.0000
  O   O1        1.0  0.30170  0.26539  0.62323  1.0000
  O   O2        1.0  0.64199  0.17831  0.87644  1.0000
  O   O3        1.0  0.69829  0.73458  0.37675  1.0000
  O   O4        1.0  0.35802  0.82169  0.12356  1.0000
  O   O5        1.0  0.43168  0.30354  0.83994  1.0000
  O   O6        1.0  0.46309  0.09170  0.65977  1.0000
  O   O7        1.0  0.56832  0.69648  0.16004  1.0000
  O   O8        1.0  0.53687  0.90831  0.34023  1.0000
  O   O9        1.0  0.71111  0.59878  0.89346  1.0000
  O   O10       1.0  0.70573  0.31751  0.60648  1.0000
  O   O11       1.0  0.28890  0.40123  0.10656  1.0000
  O   O12       1.0  0.29425  0.68251  0.39351  1.0000
  O   O13       1.0  0.57634  0.49765  0.67482  1.0000
  O   O14       1.0  0.82291  0.40118  0.82510  1.0000
  O   O15       1.0  0.42367  0.50236  0.32519  1.0000
  O   O16       1.0  0.17709  0.59880  0.17490  1.0000
