data_image0
_chemical_formula_structural       Cu2H14C16S2O4
_chemical_formula_sum              "Cu2 H14 C16 S2 O4"
_cell_length_a       3.89436
_cell_length_b       5.26795
_cell_length_c       18.6633
_cell_angle_alpha    89.9978
_cell_angle_beta     90.0012
_cell_angle_gamma    91.5014

_space_group_name_H-M_alt    "P 1"
_space_group_IT_number       1

loop_
  _space_group_symop_operation_xyz
  'x, y, z'

loop_
  _atom_site_type_symbol
  _atom_site_label
  _atom_site_symmetry_multiplicity
  _atom_site_fract_x
  _atom_site_fract_y
  _atom_site_fract_z
  _atom_site_occupancy
  Cu  Cu1       1.0  0.76945  0.85393  0.52437  1.0000
  Cu  Cu2       1.0  0.26950  0.35394  0.47564  1.0000
  H   H1        1.0  0.59499  0.49838  0.60931  1.0000
  H   H2        1.0  0.09498  0.99837  0.39069  1.0000
  H   H3        1.0  0.61743  0.67655  0.73283  1.0000
  H   H4        1.0  0.11743  0.17656  0.26718  1.0000
  H   H5        1.0  0.02396  0.03820  0.81162  1.0000
  H   H6        1.0  0.52400  0.53820  0.18837  1.0000
  H   H7        1.0  0.99787  0.85840  0.68792  1.0000
  H   H8        1.0  0.49791  0.35838  0.31208  1.0000
  H   H9        1.0  0.32547  0.82034  0.95541  1.0000
  H   H10       1.0  0.82552  0.32034  0.04459  1.0000
  H   H11       1.0  0.71334  0.97263  0.92336  1.0000
  H   H12       1.0  0.21338  0.47263  0.07663  1.0000
  H   H13       1.0  0.72434  0.66191  0.96333  1.0000
  H   H14       1.0  0.22437  0.16192  0.03668  1.0000
  C   C1        1.0  0.29257  0.16700  0.64124  1.0000
  C   C2        1.0  0.79255  0.66698  0.35876  1.0000
  C   C3        1.0  0.46835  0.39797  0.65373  1.0000
  C   C4        1.0  0.96831  0.89796  0.34628  1.0000
  C   C5        1.0  0.48366  0.49690  0.72266  1.0000
  C   C6        1.0  0.98368  0.99689  0.27735  1.0000
  C   C7        1.0  0.32593  0.36805  0.78010  1.0000
  C   C8        1.0  0.82595  0.86807  0.21990  1.0000
  C   C9        1.0  0.14863  0.13766  0.76720  1.0000
  C   C10       1.0  0.64865  0.63766  0.23279  1.0000
  C   C11       1.0  0.13244  0.03813  0.69831  1.0000
  C   C12       1.0  0.63248  0.53812  0.30168  1.0000
  C   C13       1.0  0.34512  0.46681  0.85457  1.0000
  C   C14       1.0  0.84516  0.96680  0.14542  1.0000
  C   C15       1.0  0.57541  0.79089  0.93039  1.0000
  C   C16       1.0  0.07547  0.29090  0.06961  1.0000
  S   S1        1.0  0.27584  0.02880  0.55428  1.0000
  S   S2        1.0  0.77584  0.52879  0.44572  1.0000
  O   O1        1.0  0.20887  0.36196  0.90644  1.0000
  O   O2        1.0  0.70896  0.86197  0.09356  1.0000
  O   O3        1.0  0.53194  0.68660  0.85893  1.0000
  O   O4        1.0  0.03200  0.18659  0.14107  1.0000
