data_image0
_chemical_formula_structural       Ag8H12C32O16
_chemical_formula_sum              "Ag8 H12 C32 O16"
_cell_length_a       8.43479
_cell_length_b       9.76208
_cell_length_c       9.9138
_cell_angle_alpha    84.9807
_cell_angle_beta     80.4733
_cell_angle_gamma    68.1594

_space_group_name_H-M_alt    "P 1"
_space_group_IT_number       1

loop_
  _space_group_symop_operation_xyz
  'x, y, z'

loop_
  _atom_site_type_symbol
  _atom_site_label
  _atom_site_symmetry_multiplicity
  _atom_site_fract_x
  _atom_site_fract_y
  _atom_site_fract_z
  _atom_site_occupancy
  Ag  Ag1       1.0  0.27578  0.56785  0.61641  1.0000
  Ag  Ag2       1.0  0.72422  0.43215  0.38359  1.0000
  Ag  Ag3       1.0  0.21635  0.76423  0.05693  1.0000
  Ag  Ag4       1.0  0.78365  0.23577  0.94307  1.0000
  Ag  Ag5       1.0  0.41703  0.54118  0.23285  1.0000
  Ag  Ag6       1.0  0.58297  0.45882  0.76715  1.0000
  Ag  Ag7       1.0  0.77276  0.00091  0.16401  1.0000
  Ag  Ag8       1.0  0.22724  0.99909  0.83599  1.0000
  H   H1        1.0  0.58383  0.85521  0.81920  1.0000
  H   H2        1.0  0.41617  0.14479  0.18080  1.0000
  H   H3        1.0  0.08063  0.84987  0.62441  1.0000
  H   H4        1.0  0.91937  0.15013  0.37560  1.0000
  H   H5        1.0  0.98312  0.53517  0.32895  1.0000
  H   H6        1.0  0.01689  0.46484  0.67105  1.0000
  H   H7        1.0  0.50607  0.91348  0.35251  1.0000
  H   H8        1.0  0.49393  0.08652  0.64749  1.0000
  H   H9        1.0  0.45274  0.85016  0.13248  1.0000
  H   H10       1.0  0.54726  0.14983  0.86752  1.0000
  H   H11       1.0  0.91326  0.45767  0.12031  1.0000
  H   H12       1.0  0.08674  0.54233  0.87970  1.0000
  C   C1        1.0  0.87824  0.88139  0.87091  1.0000
  C   C2        1.0  0.12176  0.11861  0.12909  1.0000
  C   C3        1.0  0.48798  0.76444  0.61006  1.0000
  C   C4        1.0  0.51202  0.23556  0.38994  1.0000
  C   C5        1.0  0.68031  0.83935  0.72820  1.0000
  C   C6        1.0  0.31969  0.16066  0.27180  1.0000
  C   C7        1.0  0.77458  0.77392  0.48857  1.0000
  C   C8        1.0  0.22542  0.22608  0.51143  1.0000
  C   C9        1.0  0.83705  0.85385  0.73629  1.0000
  C   C10       1.0  0.16295  0.14615  0.26371  1.0000
  C   C11       1.0  0.92862  0.79643  0.49583  1.0000
  C   C12       1.0  0.07137  0.20358  0.50417  1.0000
  C   C13       1.0  0.96028  0.83365  0.61930  1.0000
  C   C14       1.0  0.03971  0.16635  0.38070  1.0000
  C   C15       1.0  0.74240  0.72703  0.36091  1.0000
  C   C16       1.0  0.25760  0.27298  0.63909  1.0000
  C   C17       1.0  0.64972  0.79690  0.60685  1.0000
  C   C18       1.0  0.35028  0.20310  0.39315  1.0000
  C   C19       1.0  0.85770  0.59544  0.29572  1.0000
  C   C20       1.0  0.14230  0.40456  0.70428  1.0000
  C   C21       1.0  0.59571  0.81355  0.30206  1.0000
  C   C22       1.0  0.40428  0.18645  0.69794  1.0000
  C   C23       1.0  0.06834  0.77076  0.37485  1.0000
  C   C24       1.0  0.93166  0.22925  0.62515  1.0000
  C   C25       1.0  0.56164  0.77436  0.18026  1.0000
  C   C26       1.0  0.43837  0.22564  0.81974  1.0000
  C   C27       1.0  0.67205  0.64330  0.11635  1.0000
  C   C28       1.0  0.32796  0.35670  0.88365  1.0000
  C   C29       1.0  0.64668  0.59926  0.98223  1.0000
  C   C30       1.0  0.35331  0.40074  0.01778  1.0000
  C   C31       1.0  0.82059  0.55303  0.17565  1.0000
  C   C32       1.0  0.17941  0.44697  0.82435  1.0000
  O   O1        1.0  0.03586  0.83021  0.88686  1.0000
  O   O2        1.0  0.96414  0.16979  0.11314  1.0000
  O   O3        1.0  0.51124  0.63381  0.57388  1.0000
  O   O4        1.0  0.48876  0.36619  0.42612  1.0000
  O   O5        1.0  0.34186  0.85940  0.64917  1.0000
  O   O6        1.0  0.65815  0.14060  0.35083  1.0000
  O   O7        1.0  0.21788  0.68292  0.39791  1.0000
  O   O8        1.0  0.78212  0.31708  0.60209  1.0000
  O   O9        1.0  0.03314  0.83227  0.25986  1.0000
  O   O10       1.0  0.96686  0.16773  0.74014  1.0000
  O   O11       1.0  0.74906  0.95226  0.95759  1.0000
  O   O12       1.0  0.25094  0.04774  0.04241  1.0000
  O   O13       1.0  0.77622  0.50773  0.91269  1.0000
  O   O14       1.0  0.22378  0.49226  0.08731  1.0000
  O   O15       1.0  0.49635  0.65231  0.94301  1.0000
  O   O16       1.0  0.50365  0.34769  0.05700  1.0000
