data_image0
_chemical_formula_structural       Cu2H32C28N8O12
_chemical_formula_sum              "Cu2 H32 C28 N8 O12"
_cell_length_a       7.99802
_cell_length_b       9.74803
_cell_length_c       10.8282
_cell_angle_alpha    102.701
_cell_angle_beta     90.0001
_cell_angle_gamma    89.9999

_space_group_name_H-M_alt    "P 1"
_space_group_IT_number       1

loop_
  _space_group_symop_operation_xyz
  'x, y, z'

loop_
  _atom_site_type_symbol
  _atom_site_label
  _atom_site_symmetry_multiplicity
  _atom_site_fract_x
  _atom_site_fract_y
  _atom_site_fract_z
  _atom_site_occupancy
  Cu  Cu1       1.0  0.50000  0.50000  0.50000  1.0000
  Cu  Cu2       1.0  1.00000  0.00000  0.00000  1.0000
  H   H1        1.0  0.47068  0.72864  0.73756  1.0000
  H   H2        1.0  0.97068  0.77136  0.76243  1.0000
  H   H3        1.0  0.52932  0.27136  0.26244  1.0000
  H   H4        1.0  0.02932  0.22864  0.23757  1.0000
  H   H5        1.0  0.30518  0.63595  0.70720  1.0000
  H   H6        1.0  0.80518  0.86405  0.79280  1.0000
  H   H7        1.0  0.69482  0.36405  0.29280  1.0000
  H   H8        1.0  0.19482  0.13595  0.20720  1.0000
  H   H9        1.0  0.31394  0.21151  0.39506  1.0000
  H   H10       1.0  0.81394  0.28848  0.10494  1.0000
  H   H11       1.0  0.68606  0.78849  0.60494  1.0000
  H   H12       1.0  0.18606  0.71152  0.89506  1.0000
  H   H13       1.0  0.52738  0.37856  0.75232  1.0000
  H   H14       1.0  0.02737  0.12144  0.74768  1.0000
  H   H15       1.0  0.47262  0.62144  0.24768  1.0000
  H   H16       1.0  0.97263  0.87856  0.25232  1.0000
  H   H17       1.0  0.39753  0.11159  0.75101  1.0000
  H   H18       1.0  0.89752  0.38841  0.74899  1.0000
  H   H19       1.0  0.60248  0.88841  0.24899  1.0000
  H   H20       1.0  0.10248  0.61159  0.25101  1.0000
  H   H21       1.0  0.21811  0.98160  0.41106  1.0000
  H   H22       1.0  0.71811  0.51840  0.08894  1.0000
  H   H23       1.0  0.78189  0.01840  0.58894  1.0000
  H   H24       1.0  0.28189  0.48161  0.91106  1.0000
  H   H25       1.0  0.24827  0.90850  0.67628  1.0000
  H   H26       1.0  0.74827  0.59150  0.82373  1.0000
  H   H27       1.0  0.75173  0.09150  0.32372  1.0000
  H   H28       1.0  0.25173  0.40850  0.17627  1.0000
  H   H29       1.0  0.15759  0.79922  0.52887  1.0000
  H   H30       1.0  0.65759  0.70078  0.97113  1.0000
  H   H31       1.0  0.84241  0.20078  0.47113  1.0000
  H   H32       1.0  0.34241  0.29922  0.02887  1.0000
  C   C1        1.0  0.35512  0.22360  0.49191  1.0000
  C   C2        1.0  0.85512  0.27639  0.00809  1.0000
  C   C3        1.0  0.64488  0.77640  0.50809  1.0000
  C   C4        1.0  0.14488  0.72360  0.99192  1.0000
  C   C5        1.0  0.46434  0.30346  0.67843  1.0000
  C   C6        1.0  0.96434  0.19654  0.82157  1.0000
  C   C7        1.0  0.53566  0.69654  0.32157  1.0000
  C   C8        1.0  0.03566  0.80346  0.17843  1.0000
  C   C9        1.0  0.12097  0.49996  0.46257  1.0000
  C   C10       1.0  0.62097  0.00004  0.03743  1.0000
  C   C11       1.0  0.87904  0.50004  0.53743  1.0000
  C   C12       1.0  0.37903  0.99996  0.96257  1.0000
  C   C13       1.0  0.40060  0.17298  0.67914  1.0000
  C   C14       1.0  0.90060  0.32702  0.82086  1.0000
  C   C15       1.0  0.59940  0.82702  0.32086  1.0000
  C   C16       1.0  0.09940  0.67298  0.17914  1.0000
  C   C17       1.0  0.95521  0.45035  0.41040  1.0000
  C   C18       1.0  0.45522  0.04965  0.08961  1.0000
  C   C19       1.0  0.04479  0.54965  0.58961  1.0000
  C   C20       1.0  0.54479  0.95035  0.91039  1.0000
  C   C21       1.0  0.25151  0.99347  0.51045  1.0000
  C   C22       1.0  0.75151  0.50653  0.98955  1.0000
  C   C23       1.0  0.74849  0.00653  0.48955  1.0000
  C   C24       1.0  0.24850  0.49347  0.01045  1.0000
  C   C25       1.0  0.21899  0.89593  0.57619  1.0000
  C   C26       1.0  0.71899  0.60408  0.92381  1.0000
  C   C27       1.0  0.78101  0.10407  0.42381  1.0000
  C   C28       1.0  0.28102  0.39593  0.07619  1.0000
  N   N1        1.0  0.43484  0.33343  0.56110  1.0000
  N   N2        1.0  0.93484  0.16656  0.93889  1.0000
  N   N3        1.0  0.56516  0.66656  0.43889  1.0000
  N   N4        1.0  0.06516  0.83344  0.06110  1.0000
  N   N5        1.0  0.33124  0.12326  0.55998  1.0000
  N   N6        1.0  0.83124  0.37674  0.94002  1.0000
  N   N7        1.0  0.66876  0.87674  0.44002  1.0000
  N   N8        1.0  0.16876  0.62327  0.05998  1.0000
  O   O1        1.0  0.26234  0.49843  0.41144  1.0000
  O   O2        1.0  0.76234  0.00157  0.08856  1.0000
  O   O3        1.0  0.73766  0.50157  0.58856  1.0000
  O   O4        1.0  0.23766  0.99843  0.91144  1.0000
  O   O5        1.0  0.42879  0.63149  0.71367  1.0000
  O   O6        1.0  0.92879  0.86851  0.78633  1.0000
  O   O7        1.0  0.57121  0.36851  0.28633  1.0000
  O   O8        1.0  0.07121  0.13149  0.21367  1.0000
  O   O9        1.0  0.90613  0.38926  0.30208  1.0000
  O   O10       1.0  0.40613  0.11074  0.19792  1.0000
  O   O11       1.0  0.09387  0.61074  0.69792  1.0000
  O   O12       1.0  0.59387  0.88926  0.80208  1.0000
