data_image0
_chemical_formula_structural       Ni2H32C28N8O12
_chemical_formula_sum              "Ni2 H32 C28 N8 O12"
_cell_length_a       8.11833
_cell_length_b       9.63788
_cell_length_c       10.7451
_cell_angle_alpha    105.47
_cell_angle_beta     90.0001
_cell_angle_gamma    89.9997

_space_group_name_H-M_alt    "P 1"
_space_group_IT_number       1

loop_
  _space_group_symop_operation_xyz
  'x, y, z'

loop_
  _atom_site_type_symbol
  _atom_site_label
  _atom_site_symmetry_multiplicity
  _atom_site_fract_x
  _atom_site_fract_y
  _atom_site_fract_z
  _atom_site_occupancy
  Ni  Ni1       1.0  0.00000  0.00000  0.00000  1.0000
  Ni  Ni2       1.0  0.50000  0.50000  0.50000  1.0000
  H   H1        1.0  0.01996  0.22244  0.22023  1.0000
  H   H2        1.0  0.51996  0.27756  0.27977  1.0000
  H   H3        1.0  0.98005  0.77756  0.77977  1.0000
  H   H4        1.0  0.48004  0.72244  0.72023  1.0000
  H   H5        1.0  0.19359  0.13805  0.19156  1.0000
  H   H6        1.0  0.69359  0.36195  0.30844  1.0000
  H   H7        1.0  0.80641  0.86195  0.80844  1.0000
  H   H8        1.0  0.30641  0.63805  0.69156  1.0000
  H   H9        1.0  0.80962  0.29593  0.10518  1.0000
  H   H10       1.0  0.30962  0.20407  0.39482  1.0000
  H   H11       1.0  0.19038  0.70407  0.89482  1.0000
  H   H12       1.0  0.69037  0.79593  0.60518  1.0000
  H   H13       1.0  0.04027  0.11614  0.74701  1.0000
  H   H14       1.0  0.54026  0.38386  0.75299  1.0000
  H   H15       1.0  0.95974  0.88386  0.25299  1.0000
  H   H16       1.0  0.45974  0.61614  0.24701  1.0000
  H   H17       1.0  0.90772  0.38387  0.74692  1.0000
  H   H18       1.0  0.40772  0.11613  0.75308  1.0000
  H   H19       1.0  0.09228  0.61613  0.25308  1.0000
  H   H20       1.0  0.59228  0.88388  0.24692  1.0000
  H   H21       1.0  0.71722  0.52769  0.09027  1.0000
  H   H22       1.0  0.21722  0.97231  0.40972  1.0000
  H   H23       1.0  0.28278  0.47231  0.90972  1.0000
  H   H24       1.0  0.78278  0.02769  0.59028  1.0000
  H   H25       1.0  0.74396  0.58953  0.82059  1.0000
  H   H26       1.0  0.24396  0.91047  0.67941  1.0000
  H   H27       1.0  0.25605  0.41047  0.17941  1.0000
  H   H28       1.0  0.75604  0.08953  0.32059  1.0000
  H   H29       1.0  0.65228  0.70436  0.97211  1.0000
  H   H30       1.0  0.15227  0.79563  0.52789  1.0000
  H   H31       1.0  0.34773  0.29564  0.02789  1.0000
  H   H32       1.0  0.84772  0.20436  0.47211  1.0000
  C   C1        1.0  0.85468  0.28006  0.00774  1.0000
  C   C2        1.0  0.35468  0.21994  0.49226  1.0000
  C   C3        1.0  0.14532  0.71994  0.99226  1.0000
  C   C4        1.0  0.64532  0.78006  0.50774  1.0000
  C   C5        1.0  0.97270  0.19351  0.82102  1.0000
  C   C6        1.0  0.47269  0.30649  0.67898  1.0000
  C   C7        1.0  0.02731  0.80649  0.17898  1.0000
  C   C8        1.0  0.52730  0.69351  0.32102  1.0000
  C   C9        1.0  0.38217  0.99493  0.95856  1.0000
  C   C10       1.0  0.88217  0.50507  0.54144  1.0000
  C   C11       1.0  0.61783  0.00507  0.04144  1.0000
  C   C12       1.0  0.11783  0.49493  0.45856  1.0000
  C   C13       1.0  0.90813  0.32473  0.81956  1.0000
  C   C14       1.0  0.40812  0.17527  0.68044  1.0000
  C   C15       1.0  0.09188  0.67527  0.18044  1.0000
  C   C16       1.0  0.59188  0.82473  0.31956  1.0000
  C   C17       1.0  0.54793  0.94360  0.91090  1.0000
  C   C18       1.0  0.04793  0.55640  0.58910  1.0000
  C   C19       1.0  0.45207  0.05640  0.08910  1.0000
  C   C20       1.0  0.95207  0.44360  0.41090  1.0000
  C   C21       1.0  0.75029  0.51065  0.98898  1.0000
  C   C22       1.0  0.25029  0.98935  0.51102  1.0000
  C   C23       1.0  0.24971  0.48935  0.01102  1.0000
  C   C24       1.0  0.74971  0.01065  0.48898  1.0000
  C   C25       1.0  0.71495  0.60549  0.92252  1.0000
  C   C26       1.0  0.21495  0.89451  0.57748  1.0000
  C   C27       1.0  0.28505  0.39451  0.07747  1.0000
  C   C28       1.0  0.78505  0.10549  0.42252  1.0000
  N   N1        1.0  0.93844  0.16727  0.93909  1.0000
  N   N2        1.0  0.43844  0.33273  0.56091  1.0000
  N   N3        1.0  0.06156  0.83273  0.06091  1.0000
  N   N4        1.0  0.56156  0.66727  0.43909  1.0000
  N   N5        1.0  0.83329  0.37881  0.93902  1.0000
  N   N6        1.0  0.33328  0.12119  0.56098  1.0000
  N   N7        1.0  0.16672  0.62119  0.06098  1.0000
  N   N8        1.0  0.66672  0.87881  0.43902  1.0000
  O   O1        1.0  0.24389  0.98795  0.90454  1.0000
  O   O2        1.0  0.74388  0.51205  0.59546  1.0000
  O   O3        1.0  0.75611  0.01205  0.09546  1.0000
  O   O4        1.0  0.25611  0.48795  0.40454  1.0000
  O   O5        1.0  0.07098  0.12628  0.18713  1.0000
  O   O6        1.0  0.57098  0.37372  0.31287  1.0000
  O   O7        1.0  0.92902  0.87372  0.81287  1.0000
  O   O8        1.0  0.42902  0.62628  0.68713  1.0000
  O   O9        1.0  0.60261  0.87360  0.80229  1.0000
  O   O10       1.0  0.10261  0.62640  0.69771  1.0000
  O   O11       1.0  0.39739  0.12640  0.19771  1.0000
  O   O12       1.0  0.89739  0.37360  0.30229  1.0000
