data_image0
_chemical_formula_structural       Cu4H28C20N16O8
_chemical_formula_sum              "Cu4 H28 C20 N16 O8"
_cell_length_a       6.82105
_cell_length_b       9.85574
_cell_length_c       11.8176
_cell_angle_alpha    89.9999
_cell_angle_beta     98.459
_cell_angle_gamma    90.0004

_space_group_name_H-M_alt    "P 1"
_space_group_IT_number       1

loop_
  _space_group_symop_operation_xyz
  'x, y, z'

loop_
  _atom_site_type_symbol
  _atom_site_label
  _atom_site_symmetry_multiplicity
  _atom_site_fract_x
  _atom_site_fract_y
  _atom_site_fract_z
  _atom_site_occupancy
  Cu  Cu1       1.0  0.18477  0.99110  0.38727  1.0000
  Cu  Cu2       1.0  0.31524  0.49110  0.11273  1.0000
  Cu  Cu3       1.0  0.81524  0.00891  0.61273  1.0000
  Cu  Cu4       1.0  0.68476  0.50890  0.88727  1.0000
  H   H1        1.0  0.25514  0.79591  0.20072  1.0000
  H   H2        1.0  0.24485  0.29591  0.29928  1.0000
  H   H3        1.0  0.74485  0.20409  0.79928  1.0000
  H   H4        1.0  0.75515  0.70409  0.70073  1.0000
  H   H5        1.0  0.64758  0.33461  0.52049  1.0000
  H   H6        1.0  0.85242  0.83461  0.97951  1.0000
  H   H7        1.0  0.35242  0.66539  0.47951  1.0000
  H   H8        1.0  0.14758  0.16539  0.02049  1.0000
  H   H9        1.0  0.57296  0.34912  0.36977  1.0000
  H   H10       1.0  0.92705  0.84912  0.13022  1.0000
  H   H11       1.0  0.42705  0.65088  0.63022  1.0000
  H   H12       1.0  0.07296  0.15088  0.86978  1.0000
  H   H13       1.0  0.79000  0.25405  0.42645  1.0000
  H   H14       1.0  0.71000  0.75405  0.07355  1.0000
  H   H15       1.0  0.21001  0.74595  0.57355  1.0000
  H   H16       1.0  0.29000  0.24596  0.92645  1.0000
  H   H17       1.0  0.41281  0.05992  0.18423  1.0000
  H   H18       1.0  0.08719  0.55992  0.31576  1.0000
  H   H19       1.0  0.58719  0.94008  0.81576  1.0000
  H   H20       1.0  0.91279  0.44008  0.68424  1.0000
  H   H21       1.0  0.37338  0.93105  0.07703  1.0000
  H   H22       1.0  0.12661  0.43105  0.42297  1.0000
  H   H23       1.0  0.62662  0.06894  0.92297  1.0000
  H   H24       1.0  0.87337  0.56895  0.57704  1.0000
  H   H25       1.0  0.58277  0.92175  0.18796  1.0000
  H   H26       1.0  0.91722  0.42175  0.31203  1.0000
  H   H27       1.0  0.41722  0.07824  0.81204  1.0000
  H   H28       1.0  0.08277  0.57824  0.68796  1.0000
  C   C1        1.0  0.51338  0.15723  0.43939  1.0000
  C   C2        1.0  0.98662  0.65723  0.06061  1.0000
  C   C3        1.0  0.48663  0.84277  0.56061  1.0000
  C   C4        1.0  0.01338  0.34277  0.93939  1.0000
  C   C5        1.0  0.63895  0.28131  0.43833  1.0000
  C   C6        1.0  0.86106  0.78131  0.06167  1.0000
  C   C7        1.0  0.36106  0.71869  0.56167  1.0000
  C   C8        1.0  0.13895  0.21869  0.93833  1.0000
  C   C9        1.0  0.87353  0.13351  0.20642  1.0000
  C   C10       1.0  0.62647  0.63350  0.29358  1.0000
  C   C11       1.0  0.12646  0.86650  0.79358  1.0000
  C   C12       1.0  0.37354  0.36649  0.70641  1.0000
  C   C13       1.0  0.62883  0.26960  0.10813  1.0000
  C   C14       1.0  0.87116  0.76960  0.39187  1.0000
  C   C15       1.0  0.37115  0.73040  0.89187  1.0000
  C   C16       1.0  0.12884  0.23041  0.60813  1.0000
  C   C17       1.0  0.42552  0.95085  0.16808  1.0000
  C   C18       1.0  0.07447  0.45085  0.33192  1.0000
  C   C19       1.0  0.57448  0.04914  0.83192  1.0000
  C   C20       1.0  0.92552  0.54914  0.66808  1.0000
  N   N1        1.0  0.57242  0.05082  0.50249  1.0000
  N   N2        1.0  0.92758  0.55082  0.99751  1.0000
  N   N3        1.0  0.42758  0.94918  0.49750  1.0000
  N   N4        1.0  0.07242  0.44918  0.00249  1.0000
  N   N5        1.0  0.97165  0.07815  0.28274  1.0000
  N   N6        1.0  0.52835  0.57814  0.21726  1.0000
  N   N7        1.0  0.02835  0.92187  0.71726  1.0000
  N   N8        1.0  0.47166  0.42185  0.78274  1.0000
  N   N9        1.0  0.77387  0.18527  0.11562  1.0000
  N   N10       1.0  0.72613  0.68527  0.38437  1.0000
  N   N11       1.0  0.22613  0.81473  0.88438  1.0000
  N   N12       1.0  0.27388  0.31473  0.61562  1.0000
  N   N13       1.0  0.49205  0.34310  0.08750  1.0000
  N   N14       1.0  0.00794  0.84310  0.41250  1.0000
  N   N15       1.0  0.50793  0.65690  0.91251  1.0000
  N   N16       1.0  0.99206  0.15691  0.58749  1.0000
  O   O1        1.0  0.34030  0.15787  0.37536  1.0000
  O   O2        1.0  0.15970  0.65787  0.12464  1.0000
  O   O3        1.0  0.65971  0.84213  0.62464  1.0000
  O   O4        1.0  0.84030  0.34212  0.87537  1.0000
  O   O5        1.0  0.30838  0.88027  0.23976  1.0000
  O   O6        1.0  0.19162  0.38026  0.26023  1.0000
  O   O7        1.0  0.69162  0.11973  0.76024  1.0000
  O   O8        1.0  0.80840  0.61974  0.73977  1.0000
