data_image0
_chemical_formula_structural       Cd2H28C42N4O12
_chemical_formula_sum              "Cd2 H28 C42 N4 O12"
_cell_length_a       8.92551
_cell_length_b       9.86923
_cell_length_c       12.2815
_cell_angle_alpha    91.6627
_cell_angle_beta     103.887
_cell_angle_gamma    115.428

_space_group_name_H-M_alt    "P 1"
_space_group_IT_number       1

loop_
  _space_group_symop_operation_xyz
  'x, y, z'

loop_
  _atom_site_type_symbol
  _atom_site_label
  _atom_site_symmetry_multiplicity
  _atom_site_fract_x
  _atom_site_fract_y
  _atom_site_fract_z
  _atom_site_occupancy
  Cd  Cd1       1.0  0.18710  0.47282  0.02622  1.0000
  Cd  Cd2       1.0  0.81289  0.52718  0.97378  1.0000
  H   H1        1.0  0.11204  0.62486  0.43636  1.0000
  H   H2        1.0  0.88797  0.37515  0.56364  1.0000
  H   H3        1.0  0.27867  0.18207  0.04143  1.0000
  H   H4        1.0  0.72132  0.81794  0.95857  1.0000
  H   H5        1.0  0.29249  0.00260  0.17834  1.0000
  H   H6        1.0  0.70751  0.99739  0.82166  1.0000
  H   H7        1.0  0.29781  0.06553  0.37830  1.0000
  H   H8        1.0  0.70219  0.93446  0.62169  1.0000
  H   H9        1.0  0.26933  0.47594  0.28314  1.0000
  H   H10       1.0  0.73067  0.52406  0.71686  1.0000
  H   H11       1.0  0.28929  0.43696  0.47477  1.0000
  H   H12       1.0  0.71071  0.56303  0.52522  1.0000
  H   H13       1.0  0.19828  0.10976  0.52175  1.0000
  H   H14       1.0  0.80172  0.89024  0.47825  1.0000
  H   H15       1.0  0.06667  0.05347  0.68128  1.0000
  H   H16       1.0  0.93333  0.94653  0.31873  1.0000
  H   H17       1.0  0.04603  0.14698  0.86608  1.0000
  H   H18       1.0  0.95397  0.85303  0.13392  1.0000
  H   H19       1.0  0.34551  0.59410  0.83879  1.0000
  H   H20       1.0  0.65449  0.40590  0.16121  1.0000
  H   H21       1.0  0.36810  0.52294  0.65028  1.0000
  H   H22       1.0  0.63189  0.47706  0.34972  1.0000
  H   H23       1.0  0.09254  0.65972  0.70729  1.0000
  H   H24       1.0  0.90746  0.34028  0.29271  1.0000
  H   H25       1.0  0.47661  0.08215  0.64889  1.0000
  H   H26       1.0  0.52339  0.91785  0.35112  1.0000
  H   H27       1.0  0.36935  0.04259  0.97229  1.0000
  H   H28       1.0  0.63064  0.95742  0.02771  1.0000
  C   C1        1.0  0.27998  0.20544  0.12894  1.0000
  C   C2        1.0  0.72002  0.79456  0.87106  1.0000
  C   C3        1.0  0.28887  0.10651  0.20625  1.0000
  C   C4        1.0  0.71113  0.89349  0.79375  1.0000
  C   C5        1.0  0.28925  0.14136  0.31685  1.0000
  C   C6        1.0  0.71075  0.85864  0.68315  1.0000
  C   C7        1.0  0.27886  0.27500  0.34785  1.0000
  C   C8        1.0  0.72114  0.72500  0.65215  1.0000
  C   C9        1.0  0.27411  0.36909  0.26479  1.0000
  C   C10       1.0  0.72589  0.63091  0.73521  1.0000
  C   C11       1.0  0.26889  0.31978  0.45878  1.0000
  C   C12       1.0  0.73111  0.68022  0.54122  1.0000
  C   C13       1.0  0.22814  0.22936  0.53846  1.0000
  C   C14       1.0  0.77186  0.77064  0.46154  1.0000
  C   C15       1.0  0.21691  0.28028  0.64748  1.0000
  C   C16       1.0  0.78309  0.71972  0.35252  1.0000
  C   C17       1.0  0.12809  0.17487  0.71195  1.0000
  C   C18       1.0  0.87191  0.82513  0.28805  1.0000
  C   C19       1.0  0.11821  0.22524  0.81560  1.0000
  C   C20       1.0  0.88180  0.77476  0.18440  1.0000
  C   C21       1.0  0.28290  0.47587  0.79916  1.0000
  C   C22       1.0  0.71710  0.52413  0.20084  1.0000
  C   C23       1.0  0.29456  0.43473  0.69401  1.0000
  C   C24       1.0  0.70544  0.56527  0.30599  1.0000
  C   C25       1.0  0.22169  0.84081  0.84820  1.0000
  C   C26       1.0  0.77830  0.15919  0.15180  1.0000
  C   C27       1.0  0.18937  0.77684  0.73697  1.0000
  C   C28       1.0  0.81063  0.22316  0.26302  1.0000
  C   C29       1.0  0.27839  0.86458  0.66435  1.0000
  C   C30       1.0  0.72161  0.13542  0.33565  1.0000
  C   C31       1.0  0.40442  0.01494  0.70432  1.0000
  C   C32       1.0  0.59558  0.98505  0.29568  1.0000
  C   C33       1.0  0.43801  0.07867  0.81582  1.0000
  C   C34       1.0  0.56199  0.92134  0.18418  1.0000
  C   C35       1.0  0.34475  0.99171  0.88622  1.0000
  C   C36       1.0  0.65524  0.00828  0.11378  1.0000
  C   C37       1.0  0.11908  0.75358  0.92515  1.0000
  C   C38       1.0  0.88092  0.24641  0.07485  1.0000
  C   C39       1.0  0.56980  0.24050  0.86006  1.0000
  C   C40       1.0  0.43020  0.75950  0.13995  1.0000
  C   C41       1.0  0.23912  0.80435  0.54369  1.0000
  C   C42       1.0  0.76088  0.19564  0.45632  1.0000
  N   N1        1.0  0.27418  0.33495  0.15842  1.0000
  N   N2        1.0  0.72581  0.66505  0.84158  1.0000
  N   N3        1.0  0.19572  0.37330  0.85920  1.0000
  N   N4        1.0  0.80429  0.62670  0.14080  1.0000
  O   O1        1.0  0.04703  0.60602  0.90146  1.0000
  O   O2        1.0  0.95297  0.39398  0.09854  1.0000
  O   O3        1.0  0.10110  0.82453  0.00305  1.0000
  O   O4        1.0  0.89889  0.17547  0.99696  1.0000
  O   O5        1.0  0.57233  0.29744  0.95650  1.0000
  O   O6        1.0  0.42767  0.70256  0.04350  1.0000
  O   O7        1.0  0.67091  0.31234  0.80278  1.0000
  O   O8        1.0  0.32908  0.68766  0.19722  1.0000
  O   O9        1.0  0.28682  0.88135  0.47087  1.0000
  O   O10       1.0  0.71320  0.11865  0.52913  1.0000
  O   O11       1.0  0.13988  0.65096  0.51877  1.0000
  O   O12       1.0  0.86013  0.34904  0.48122  1.0000
