data_image0
_chemical_formula_structural       CuH26C18S2N4O8
_chemical_formula_sum              "Cu1 H26 C18 S2 N4 O8"
_cell_length_a       7.03674
_cell_length_b       8.37856
_cell_length_c       9.4196
_cell_angle_alpha    85.8776
_cell_angle_beta     78.0349
_cell_angle_gamma    82.58

_space_group_name_H-M_alt    "P 1"
_space_group_IT_number       1

loop_
  _space_group_symop_operation_xyz
  'x, y, z'

loop_
  _atom_site_type_symbol
  _atom_site_label
  _atom_site_symmetry_multiplicity
  _atom_site_fract_x
  _atom_site_fract_y
  _atom_site_fract_z
  _atom_site_occupancy
  Cu  Cu1       1.0  0.50000  0.50000  0.50000  1.0000
  H   H1        1.0  0.81345  0.38404  0.58387  1.0000
  H   H2        1.0  0.18655  0.61596  0.41612  1.0000
  H   H3        1.0  0.86352  0.46536  0.41493  1.0000
  H   H4        1.0  0.13648  0.53464  0.58507  1.0000
  H   H5        1.0  0.98483  0.03797  0.11134  1.0000
  H   H6        1.0  0.01517  0.96203  0.88867  1.0000
  H   H7        1.0  0.96307  0.30498  0.21296  1.0000
  H   H8        1.0  0.03694  0.69502  0.78704  1.0000
  H   H9        1.0  0.66489  0.12126  0.62702  1.0000
  H   H10       1.0  0.33511  0.87875  0.37298  1.0000
  H   H11       1.0  0.69131  0.85004  0.52579  1.0000
  H   H12       1.0  0.30868  0.14996  0.47422  1.0000
  H   H13       1.0  0.36971  0.52664  0.82478  1.0000
  H   H14       1.0  0.63030  0.47335  0.17522  1.0000
  H   H15       1.0  0.69917  0.83498  0.75081  1.0000
  H   H16       1.0  0.30084  0.16503  0.24919  1.0000
  H   H17       1.0  0.67193  0.86372  0.94008  1.0000
  H   H18       1.0  0.32806  0.13628  0.05993  1.0000
  H   H19       1.0  0.49651  0.96786  0.84031  1.0000
  H   H20       1.0  0.50349  0.03214  0.15969  1.0000
  H   H21       1.0  0.27335  0.60918  0.04519  1.0000
  H   H22       1.0  0.72665  0.39081  0.95481  1.0000
  H   H23       1.0  0.24449  0.82218  0.04285  1.0000
  H   H24       1.0  0.75550  0.17781  0.95714  1.0000
  H   H25       1.0  0.44203  0.71170  0.11423  1.0000
  H   H26       1.0  0.55797  0.28829  0.88576  1.0000
  C   C1        1.0  0.84002  0.92747  0.31268  1.0000
  C   C2        1.0  0.15998  0.07253  0.68732  1.0000
  C   C3        1.0  0.91757  0.05434  0.22498  1.0000
  C   C4        1.0  0.08243  0.94566  0.77503  1.0000
  C   C5        1.0  0.90447  0.20529  0.28211  1.0000
  C   C6        1.0  0.09553  0.79471  0.71789  1.0000
  C   C7        1.0  0.81257  0.22921  0.42697  1.0000
  C   C8        1.0  0.18743  0.77080  0.57303  1.0000
  C   C9        1.0  0.74041  0.09984  0.51572  1.0000
  C   C10       1.0  0.25960  0.90017  0.48427  1.0000
  C   C11       1.0  0.75387  0.94950  0.45905  1.0000
  C   C12       1.0  0.24613  0.05050  0.54095  1.0000
  C   C13       1.0  0.46698  0.62027  0.78741  1.0000
  C   C14       1.0  0.53303  0.37973  0.21259  1.0000
  C   C15       1.0  0.59343  0.85568  0.85218  1.0000
  C   C16       1.0  0.40657  0.14432  0.14782  1.0000
  C   C17       1.0  0.35309  0.71494  0.03082  1.0000
  C   C18       1.0  0.64691  0.28505  0.96918  1.0000
  S   S1        1.0  0.83851  0.73816  0.23882  1.0000
  S   S2        1.0  0.16148  0.26184  0.76118  1.0000
  N   N1        1.0  0.78020  0.38581  0.48225  1.0000
  N   N2        1.0  0.21981  0.61419  0.51775  1.0000
  N   N3        1.0  0.47780  0.72121  0.88681  1.0000
  N   N4        1.0  0.52221  0.27878  0.11319  1.0000
  O   O1        1.0  0.63983  0.69272  0.29665  1.0000
  O   O2        1.0  0.36016  0.30729  0.70334  1.0000
  O   O3        1.0  0.98851  0.62296  0.29381  1.0000
  O   O4        1.0  0.01148  0.37703  0.70619  1.0000
  O   O5        1.0  0.88196  0.76378  0.08084  1.0000
  O   O6        1.0  0.11803  0.23622  0.91916  1.0000
  O   O7        1.0  0.56245  0.62614  0.65752  1.0000
  O   O8        1.0  0.43755  0.37386  0.34248  1.0000
