data_image0
_chemical_formula_structural       Ag4H4C14N12O10
_chemical_formula_sum              "Ag4 H4 C14 N12 O10"
_cell_length_a       8.75526
_cell_length_b       8.75524
_cell_length_c       8.90148
_cell_angle_alpha    108.289
_cell_angle_beta     117.368
_cell_angle_gamma    102.332

_space_group_name_H-M_alt    "P 1"
_space_group_IT_number       1

loop_
  _space_group_symop_operation_xyz
  'x, y, z'

loop_
  _atom_site_type_symbol
  _atom_site_label
  _atom_site_symmetry_multiplicity
  _atom_site_fract_x
  _atom_site_fract_y
  _atom_site_fract_z
  _atom_site_occupancy
  Ag  Ag1       1.0  0.35508  0.26996  0.45446  1.0000
  Ag  Ag2       1.0  0.31549  0.90062  0.04554  1.0000
  Ag  Ag3       1.0  0.64492  0.73005  0.54554  1.0000
  Ag  Ag4       1.0  0.68451  0.09938  0.95447  1.0000
  H   H1        1.0  0.99797  0.75009  0.55733  1.0000
  H   H2        1.0  0.69276  0.44064  0.94267  1.0000
  H   H3        1.0  0.00203  0.24991  0.44267  1.0000
  H   H4        1.0  0.30724  0.55936  0.05733  1.0000
  C   C1        1.0  0.82892  0.57892  0.25000  1.0000
  C   C2        1.0  0.17108  0.42108  0.75000  1.0000
  C   C3        1.0  0.97783  0.73030  0.42117  1.0000
  C   C4        1.0  0.80913  0.55665  0.07883  1.0000
  C   C5        1.0  0.02217  0.26970  0.57883  1.0000
  C   C6        1.0  0.19087  0.44334  0.92117  1.0000
  C   C7        1.0  0.10708  0.85633  0.42322  1.0000
  C   C8        1.0  0.93310  0.68386  0.07678  1.0000
  C   C9        1.0  0.89292  0.14367  0.57677  1.0000
  C   C10       1.0  0.06689  0.31614  0.92322  1.0000
  C   C11       1.0  0.09395  0.84395  0.25000  1.0000
  C   C12       1.0  0.90605  0.15605  0.75000  1.0000
  C   C13       1.0  0.69637  0.44637  0.25000  1.0000
  C   C14       1.0  0.30363  0.55363  0.75000  1.0000
  N   N1        1.0  0.25338  0.00535  0.60969  1.0000
  N   N2        1.0  0.89566  0.64369  0.89031  1.0000
  N   N3        1.0  0.74662  0.99466  0.39031  1.0000
  N   N4        1.0  0.10434  0.35630  0.10969  1.0000
  N   N5        1.0  0.61722  0.48208  0.34780  1.0000
  N   N6        1.0  0.63428  0.26943  0.15221  1.0000
  N   N7        1.0  0.38278  0.51793  0.65221  1.0000
  N   N8        1.0  0.36572  0.73057  0.84779  1.0000
  N   N9        1.0  0.50548  0.32371  0.30846  1.0000
  N   N10       1.0  0.51525  0.19703  0.19155  1.0000
  N   N11       1.0  0.49452  0.67629  0.69154  1.0000
  N   N12       1.0  0.48475  0.80297  0.80845  1.0000
  O   O1        1.0  0.21005  0.96005  0.25000  1.0000
  O   O2        1.0  0.78995  0.03995  0.75000  1.0000
  O   O3        1.0  0.23026  0.03416  0.74275  1.0000
  O   O4        1.0  0.79141  0.48750  0.75725  1.0000
  O   O5        1.0  0.76975  0.96584  0.25725  1.0000
  O   O6        1.0  0.20858  0.51249  0.24275  1.0000
  O   O7        1.0  0.40137  0.10250  0.63498  1.0000
  O   O8        1.0  0.96752  0.76639  0.86502  1.0000
  O   O9        1.0  0.59863  0.89750  0.36502  1.0000
  O   O10       1.0  0.03248  0.23361  0.13498  1.0000
