data_image0
_chemical_formula_structural       Cd2H10C14S4N6O2
_chemical_formula_sum              "Cd2 H10 C14 S4 N6 O2"
_cell_length_a       7.63417
_cell_length_b       8.32728
_cell_length_c       8.79757
_cell_angle_alpha    63.3167
_cell_angle_beta     88.3251
_cell_angle_gamma    88.9207

_space_group_name_H-M_alt    "P 1"
_space_group_IT_number       1

loop_
  _space_group_symop_operation_xyz
  'x, y, z'

loop_
  _atom_site_type_symbol
  _atom_site_label
  _atom_site_symmetry_multiplicity
  _atom_site_fract_x
  _atom_site_fract_y
  _atom_site_fract_z
  _atom_site_occupancy
  Cd  Cd1       1.0  0.66521  0.65872  0.03701  1.0000
  Cd  Cd2       1.0  0.33479  0.34129  0.96298  1.0000
  H   H1        1.0  0.78162  0.23987  0.98786  1.0000
  H   H2        1.0  0.21837  0.76014  0.01214  1.0000
  H   H3        1.0  0.97420  0.96315  0.13558  1.0000
  H   H4        1.0  0.02579  0.03685  0.86441  1.0000
  H   H5        1.0  0.95672  0.79291  0.45280  1.0000
  H   H6        1.0  0.04329  0.20708  0.54719  1.0000
  H   H7        1.0  0.75813  0.91041  0.61399  1.0000
  H   H8        1.0  0.24189  0.08958  0.38601  1.0000
  H   H9        1.0  0.57796  0.19156  0.44637  1.0000
  H   H10       1.0  0.42206  0.80844  0.55364  1.0000
  C   C1        1.0  0.78413  0.15910  0.12502  1.0000
  C   C2        1.0  0.21586  0.84091  0.87498  1.0000
  C   C3        1.0  0.88694  0.00758  0.20915  1.0000
  C   C4        1.0  0.11305  0.99242  0.79085  1.0000
  C   C5        1.0  0.87790  0.91365  0.38601  1.0000
  C   C6        1.0  0.12210  0.08634  0.61399  1.0000
  C   C7        1.0  0.76753  0.97826  0.47568  1.0000
  C   C8        1.0  0.23247  0.02174  0.52433  1.0000
  C   C9        1.0  0.66715  0.13094  0.38796  1.0000
  C   C10       1.0  0.33285  0.86907  0.61204  1.0000
  C   C11       1.0  0.39373  0.88855  0.19184  1.0000
  C   C12       1.0  0.60626  0.11144  0.80817  1.0000
  C   C13       1.0  0.04726  0.45741  0.20226  1.0000
  C   C14       1.0  0.95275  0.54259  0.79775  1.0000
  S   S1        1.0  0.45395  0.67824  0.28769  1.0000
  S   S2        1.0  0.54603  0.32178  0.71231  1.0000
  S   S3        1.0  0.90646  0.55571  0.27744  1.0000
  S   S4        1.0  0.09353  0.44430  0.72256  1.0000
  N   N1        1.0  0.67439  0.21610  0.21521  1.0000
  N   N2        1.0  0.32562  0.78391  0.78479  1.0000
  N   N3        1.0  0.34317  0.03932  0.12532  1.0000
  N   N4        1.0  0.65681  0.96067  0.87468  1.0000
  N   N5        1.0  0.15010  0.38395  0.15164  1.0000
  N   N6        1.0  0.84991  0.61604  0.84836  1.0000
  O   O1        1.0  0.56896  0.35693  0.13430  1.0000
  O   O2        1.0  0.43104  0.64307  0.86571  1.0000
