data_image0
_chemical_formula_structural       Zn2H20C36N8O8
_chemical_formula_sum              "Zn2 H20 C36 N8 O8"
_cell_length_a       6.78658
_cell_length_b       8.20615
_cell_length_c       14.3958
_cell_angle_alpha    104.651
_cell_angle_beta     99.3613
_cell_angle_gamma    94.1514

_space_group_name_H-M_alt    "P 1"
_space_group_IT_number       1

loop_
  _space_group_symop_operation_xyz
  'x, y, z'

loop_
  _atom_site_type_symbol
  _atom_site_label
  _atom_site_symmetry_multiplicity
  _atom_site_fract_x
  _atom_site_fract_y
  _atom_site_fract_z
  _atom_site_occupancy
  Zn  Zn1       1.0  0.63064  0.49545  0.40429  1.0000
  Zn  Zn2       1.0  0.36936  0.50455  0.59571  1.0000
  H   H1        1.0  0.97665  0.06662  0.08380  1.0000
  H   H2        1.0  0.02335  0.93338  0.91620  1.0000
  H   H3        1.0  0.56724  0.14092  0.59549  1.0000
  H   H4        1.0  0.43276  0.85908  0.40451  1.0000
  H   H5        1.0  0.01721  0.28950  0.39332  1.0000
  H   H6        1.0  0.98279  0.71050  0.60669  1.0000
  H   H7        1.0  0.15455  0.11097  0.25851  1.0000
  H   H8        1.0  0.84545  0.88903  0.74149  1.0000
  H   H9        1.0  0.09118  0.00187  0.40884  1.0000
  H   H10       1.0  0.90882  0.99812  0.59116  1.0000
  H   H11       1.0  0.21843  0.62514  0.33667  1.0000
  H   H12       1.0  0.78158  0.37486  0.66333  1.0000
  H   H13       1.0  0.01229  0.61771  0.17522  1.0000
  H   H14       1.0  0.98772  0.38230  0.82478  1.0000
  H   H15       1.0  0.12606  0.45321  0.02099  1.0000
  H   H16       1.0  0.87394  0.54679  0.97901  1.0000
  H   H17       1.0  0.63428  0.02340  0.79930  1.0000
  H   H18       1.0  0.36572  0.97661  0.20070  1.0000
  H   H19       1.0  0.32810  0.17495  0.77926  1.0000
  H   H20       1.0  0.67190  0.82506  0.22074  1.0000
  C   C1        1.0  0.67827  0.32169  0.20898  1.0000
  C   C2        1.0  0.32173  0.67830  0.79102  1.0000
  C   C3        1.0  0.38509  0.38508  0.10228  1.0000
  C   C4        1.0  0.61491  0.61491  0.89772  1.0000
  C   C5        1.0  0.63317  0.20737  0.02960  1.0000
  C   C6        1.0  0.36683  0.79263  0.97040  1.0000
  C   C7        1.0  0.92086  0.14475  0.14494  1.0000
  C   C8        1.0  0.07914  0.85525  0.85506  1.0000
  C   C9        1.0  0.52499  0.08387  0.51694  1.0000
  C   C10       1.0  0.47501  0.91613  0.48306  1.0000
  C   C11       1.0  0.52518  0.19636  0.45092  1.0000
  C   C12       1.0  0.47481  0.80365  0.54907  1.0000
  C   C13       1.0  0.74628  0.22405  0.12723  1.0000
  C   C14       1.0  0.25372  0.77594  0.87278  1.0000
  C   C15       1.0  0.45617  0.28791  0.01754  1.0000
  C   C16       1.0  0.54383  0.71209  0.98246  1.0000
  C   C17       1.0  0.49496  0.40100  0.19655  1.0000
  C   C18       1.0  0.50504  0.59900  0.80345  1.0000
  C   C19       1.0  0.94255  0.26920  0.31735  1.0000
  C   C20       1.0  0.05745  0.73080  0.68265  1.0000
  C   C21       1.0  0.01820  0.16737  0.24035  1.0000
  C   C22       1.0  0.98180  0.83263  0.75965  1.0000
  C   C23       1.0  0.88702  0.78258  0.40915  1.0000
  C   C24       1.0  0.11297  0.21742  0.59085  1.0000
  C   C25       1.0  0.00361  0.95264  0.45502  1.0000
  C   C26       1.0  0.99639  0.04735  0.54498  1.0000
  C   C27       1.0  0.26370  0.56101  0.26890  1.0000
  C   C28       1.0  0.73630  0.43898  0.73111  1.0000
  C   C29       1.0  0.14811  0.55451  0.17760  1.0000
  C   C30       1.0  0.85189  0.44550  0.82240  1.0000
  C   C31       1.0  0.20938  0.46525  0.09408  1.0000
  C   C32       1.0  0.79062  0.53475  0.90592  1.0000
  C   C33       1.0  0.58822  0.10102  0.86379  1.0000
  C   C34       1.0  0.41179  0.89899  0.13621  1.0000
  C   C35       1.0  0.41453  0.18349  0.85173  1.0000
  C   C36       1.0  0.58547  0.81652  0.14827  1.0000
  N   N1        1.0  0.43288  0.48806  0.27795  1.0000
  N   N2        1.0  0.56712  0.51194  0.72205  1.0000
  N   N3        1.0  0.34870  0.27619  0.92792  1.0000
  N   N4        1.0  0.65130  0.72381  0.07208  1.0000
  N   N5        1.0  0.77701  0.34358  0.30154  1.0000
  N   N6        1.0  0.22298  0.65642  0.69846  1.0000
  N   N7        1.0  0.69773  0.11273  0.95127  1.0000
  N   N8        1.0  0.30227  0.88727  0.04873  1.0000
  O   O1        1.0  0.59916  0.35515  0.49579  1.0000
  O   O2        1.0  0.40084  0.64485  0.50421  1.0000
  O   O3        1.0  0.81648  0.70454  0.46750  1.0000
  O   O4        1.0  0.18352  0.29546  0.53250  1.0000
  O   O5        1.0  0.46210  0.14270  0.36120  1.0000
  O   O6        1.0  0.53789  0.85730  0.63880  1.0000
  O   O7        1.0  0.85955  0.72585  0.31808  1.0000
  O   O8        1.0  0.14045  0.27415  0.68193  1.0000
