data_image0
_chemical_formula_structural       Cu2H18C10S2N2O12
_chemical_formula_sum              "Cu2 H18 C10 S2 N2 O12"
_cell_length_a       4.98859
_cell_length_b       11.0793
_cell_length_c       8.65955
_cell_angle_alpha    89.9997
_cell_angle_beta     117.243
_cell_angle_gamma    89.9998

_space_group_name_H-M_alt    "P 1"
_space_group_IT_number       1

loop_
  _space_group_symop_operation_xyz
  'x, y, z'

loop_
  _atom_site_type_symbol
  _atom_site_label
  _atom_site_symmetry_multiplicity
  _atom_site_fract_x
  _atom_site_fract_y
  _atom_site_fract_z
  _atom_site_occupancy
  Cu  Cu1       1.0  0.49817  0.76029  0.09431  1.0000
  Cu  Cu2       1.0  0.50181  0.26029  0.90569  1.0000
  H   H1        1.0  0.20058  0.81765  0.24963  1.0000
  H   H2        1.0  0.79940  0.31764  0.75038  1.0000
  H   H3        1.0  0.04120  0.99402  0.12581  1.0000
  H   H4        1.0  0.95880  0.49401  0.87420  1.0000
  H   H5        1.0  0.26494  0.05468  0.43072  1.0000
  H   H6        1.0  0.73508  0.55468  0.56927  1.0000
  H   H7        1.0  0.42848  0.16149  0.34056  1.0000
  H   H8        1.0  0.57152  0.66149  0.65944  1.0000
  H   H9        1.0  0.54486  0.82050  0.51685  1.0000
  H   H10       1.0  0.45515  0.32050  0.48315  1.0000
  H   H11       1.0  0.07553  0.76923  0.77865  1.0000
  H   H12       1.0  0.92446  0.26924  0.22136  1.0000
  H   H13       1.0  0.92799  0.72806  0.90643  1.0000
  H   H14       1.0  0.07198  0.22808  0.09357  1.0000
  H   H15       1.0  0.25320  0.56216  0.26815  1.0000
  H   H16       1.0  0.74685  0.06215  0.73186  1.0000
  H   H17       1.0  0.39623  0.53266  0.14016  1.0000
  H   H18       1.0  0.60381  0.03267  0.85985  1.0000
  C   C1        1.0  0.28898  0.99124  0.19756  1.0000
  C   C2        1.0  0.71101  0.49123  0.80244  1.0000
  C   C3        1.0  0.41217  0.04226  0.07723  1.0000
  C   C4        1.0  0.58781  0.54226  0.92277  1.0000
  C   C5        1.0  0.40417  0.06617  0.36371  1.0000
  C   C6        1.0  0.59584  0.56617  0.63629  1.0000
  C   C7        1.0  0.63121  0.85624  0.42975  1.0000
  C   C8        1.0  0.36878  0.35624  0.57024  1.0000
  C   C9        1.0  0.89951  0.78404  0.44302  1.0000
  C   C10       1.0  0.10049  0.28403  0.55697  1.0000
  S   S1        1.0  0.77935  0.00832  0.49505  1.0000
  S   S2        1.0  0.22065  0.50833  0.50494  1.0000
  N   N1        1.0  0.38088  0.86422  0.25021  1.0000
  N   N2        1.0  0.61912  0.36423  0.74979  1.0000
  O   O1        1.0  0.35329  0.15532  0.04135  1.0000
  O   O2        1.0  0.64668  0.65532  0.95864  1.0000
  O   O3        1.0  0.90329  0.75524  0.29964  1.0000
  O   O4        1.0  0.09670  0.25523  0.70034  1.0000
  O   O5        1.0  0.08125  0.77953  0.89534  1.0000
  O   O6        1.0  0.91873  0.27955  0.10466  1.0000
  O   O7        1.0  0.55367  0.97437  0.02418  1.0000
  O   O8        1.0  0.44635  0.47437  0.97583  1.0000
  O   O9        1.0  0.11035  0.76315  0.59122  1.0000
  O   O10       1.0  0.88965  0.26315  0.40876  1.0000
  O   O11       1.0  0.38259  0.59404  0.21972  1.0000
  O   O12       1.0  0.61744  0.09404  0.78029  1.0000
