data_image0
_chemical_formula_structural       Cu4H28C20S4N4O20
_chemical_formula_sum              "Cu4 H28 C20 S4 N4 O20"
_cell_length_a       5.65883
_cell_length_b       7.66725
_cell_length_c       18.082
_cell_angle_alpha    90.0001
_cell_angle_beta     89.9998
_cell_angle_gamma    89.9997

_space_group_name_H-M_alt    "P 1"
_space_group_IT_number       1

loop_
  _space_group_symop_operation_xyz
  'x, y, z'

loop_
  _atom_site_type_symbol
  _atom_site_label
  _atom_site_symmetry_multiplicity
  _atom_site_fract_x
  _atom_site_fract_y
  _atom_site_fract_z
  _atom_site_occupancy
  Cu  Cu1       1.0  0.87411  0.65174  0.59367  1.0000
  Cu  Cu2       1.0  0.62590  0.34825  0.09366  1.0000
  Cu  Cu3       1.0  0.37410  0.84826  0.40633  1.0000
  Cu  Cu4       1.0  0.12590  0.15174  0.90632  1.0000
  H   H1        1.0  0.66010  0.83946  0.68647  1.0000
  H   H2        1.0  0.83991  0.16054  0.18646  1.0000
  H   H3        1.0  0.16009  0.66054  0.31354  1.0000
  H   H4        1.0  0.33989  0.33947  0.81353  1.0000
  H   H5        1.0  0.91863  0.22780  0.55066  1.0000
  H   H6        1.0  0.58137  0.77220  0.05066  1.0000
  H   H7        1.0  0.41865  0.27219  0.44934  1.0000
  H   H8        1.0  0.08136  0.72780  0.94934  1.0000
  H   H9        1.0  0.05685  0.02183  0.53295  1.0000
  H   H10       1.0  0.44315  0.97817  0.03295  1.0000
  H   H11       1.0  0.55686  0.47817  0.46705  1.0000
  H   H12       1.0  0.94313  0.52183  0.96705  1.0000
  H   H13       1.0  0.96309  0.94356  0.75422  1.0000
  H   H14       1.0  0.53693  0.05645  0.25421  1.0000
  H   H15       1.0  0.46308  0.55645  0.24579  1.0000
  H   H16       1.0  0.03690  0.44356  0.74578  1.0000
  H   H17       1.0  0.60701  0.09817  0.62282  1.0000
  H   H18       1.0  0.89301  0.90182  0.12281  1.0000
  H   H19       1.0  0.10701  0.40183  0.37719  1.0000
  H   H20       1.0  0.39298  0.59817  0.87719  1.0000
  H   H21       1.0  0.45096  0.52124  0.63659  1.0000
  H   H22       1.0  0.04904  0.47876  0.13658  1.0000
  H   H23       1.0  0.95096  0.97877  0.36341  1.0000
  H   H24       1.0  0.54904  0.02125  0.86341  1.0000
  H   H25       1.0  0.62144  0.40711  0.68380  1.0000
  H   H26       1.0  0.87855  0.59290  0.18379  1.0000
  H   H27       1.0  0.12146  0.09289  0.31620  1.0000
  H   H28       1.0  0.37856  0.90710  0.81620  1.0000
  C   C1        1.0  0.61150  0.91533  0.53214  1.0000
  C   C2        1.0  0.88849  0.08468  0.03213  1.0000
  C   C3        1.0  0.11152  0.58469  0.46787  1.0000
  C   C4        1.0  0.38848  0.41531  0.96786  1.0000
  C   C5        1.0  0.20181  0.77779  0.69491  1.0000
  C   C6        1.0  0.29820  0.22221  0.19490  1.0000
  C   C7        1.0  0.70181  0.72222  0.30509  1.0000
  C   C8        1.0  0.79819  0.27779  0.80509  1.0000
  C   C9        1.0  0.95622  0.09829  0.57331  1.0000
  C   C10       1.0  0.54378  0.90171  0.07330  1.0000
  C   C11       1.0  0.45623  0.40172  0.42670  1.0000
  C   C12       1.0  0.04376  0.59828  0.92669  1.0000
  C   C13       1.0  0.01096  0.91966  0.69622  1.0000
  C   C14       1.0  0.48905  0.08034  0.19621  1.0000
  C   C15       1.0  0.51096  0.58035  0.30378  1.0000
  C   C16       1.0  0.98903  0.41966  0.80378  1.0000
  C   C17       1.0  0.73093  0.00501  0.59768  1.0000
  C   C18       1.0  0.76908  0.99499  0.09767  1.0000
  C   C19       1.0  0.23093  0.49499  0.40233  1.0000
  C   C20       1.0  0.26906  0.50501  0.90232  1.0000
  S   S1        1.0  0.12467  0.12455  0.65776  1.0000
  S   S2        1.0  0.37534  0.87545  0.15776  1.0000
  S   S3        1.0  0.62468  0.37546  0.34224  1.0000
  S   S4        1.0  0.87531  0.62455  0.84224  1.0000
  N   N1        1.0  0.80193  0.86955  0.65232  1.0000
  N   N2        1.0  0.69808  0.13045  0.15232  1.0000
  N   N3        1.0  0.30193  0.63046  0.34768  1.0000
  N   N4        1.0  0.19806  0.36955  0.84768  1.0000
  O   O1        1.0  0.49945  0.00752  0.48564  1.0000
  O   O2        1.0  0.00056  0.99247  0.98562  1.0000
  O   O3        1.0  0.99945  0.49247  0.51438  1.0000
  O   O4        1.0  0.50055  0.50752  0.01437  1.0000
  O   O5        1.0  0.60560  0.46189  0.63424  1.0000
  O   O6        1.0  0.89441  0.53810  0.13423  1.0000
  O   O7        1.0  0.10560  0.03811  0.36577  1.0000
  O   O8        1.0  0.39440  0.96190  0.86576  1.0000
  O   O9        1.0  0.63237  0.75027  0.52566  1.0000
  O   O10       1.0  0.86760  0.24972  0.02565  1.0000
  O   O11       1.0  0.13240  0.74973  0.47435  1.0000
  O   O12       1.0  0.36762  0.25026  0.97434  1.0000
  O   O13       1.0  0.16695  0.64216  0.65404  1.0000
  O   O14       1.0  0.33305  0.35783  0.15403  1.0000
  O   O15       1.0  0.66695  0.85784  0.34597  1.0000
  O   O16       1.0  0.83304  0.14216  0.84596  1.0000
  O   O17       1.0  0.38522  0.79945  0.73292  1.0000
  O   O18       1.0  0.11480  0.20055  0.23292  1.0000
  O   O19       1.0  0.88521  0.70056  0.26708  1.0000
  O   O20       1.0  0.61477  0.29945  0.76708  1.0000
