data_image0
_chemical_formula_structural       Cd2H32C40N8O10
_chemical_formula_sum              "Cd2 H32 C40 N8 O10"
_cell_length_a       7.44421
_cell_length_b       12.0212
_cell_length_c       11.3437
_cell_angle_alpha    96.0887
_cell_angle_beta     98.6481
_cell_angle_gamma    110.746

_space_group_name_H-M_alt    "P 1"
_space_group_IT_number       1

loop_
  _space_group_symop_operation_xyz
  'x, y, z'

loop_
  _atom_site_type_symbol
  _atom_site_label
  _atom_site_symmetry_multiplicity
  _atom_site_fract_x
  _atom_site_fract_y
  _atom_site_fract_z
  _atom_site_occupancy
  Cd  Cd1       1.0  0.08791  0.14015  0.20824  1.0000
  Cd  Cd2       1.0  0.91209  0.85985  0.79176  1.0000
  H   H1        1.0  0.45912  0.50511  0.10066  1.0000
  H   H2        1.0  0.54089  0.49488  0.89934  1.0000
  H   H3        1.0  0.50403  0.67342  0.98099  1.0000
  H   H4        1.0  0.49597  0.32658  0.01901  1.0000
  H   H5        1.0  0.99995  0.72087  0.08339  1.0000
  H   H6        1.0  0.00004  0.27912  0.91661  1.0000
  H   H7        1.0  0.96537  0.55807  0.21125  1.0000
  H   H8        1.0  0.03463  0.44193  0.78876  1.0000
  H   H9        1.0  0.80375  0.84305  0.14256  1.0000
  H   H10       1.0  0.19624  0.15694  0.85744  1.0000
  H   H11       1.0  0.70963  0.66711  0.25386  1.0000
  H   H12       1.0  0.29037  0.33289  0.74615  1.0000
  H   H13       1.0  0.88863  0.68850  0.46288  1.0000
  H   H14       1.0  0.11138  0.31151  0.53712  1.0000
  H   H15       1.0  0.65240  0.22792  0.69722  1.0000
  H   H16       1.0  0.34760  0.77207  0.30278  1.0000
  H   H17       1.0  0.72133  0.38548  0.56942  1.0000
  H   H18       1.0  0.27868  0.61451  0.43058  1.0000
  H   H19       1.0  0.49993  0.34270  0.36308  1.0000
  H   H20       1.0  0.50008  0.65731  0.63693  1.0000
  H   H21       1.0  0.23780  0.80927  0.73136  1.0000
  H   H22       1.0  0.76220  0.19073  0.26863  1.0000
  H   H23       1.0  0.03478  0.72475  0.63106  1.0000
  H   H24       1.0  0.96522  0.27525  0.36894  1.0000
  H   H25       1.0  0.42938  0.95671  0.80454  1.0000
  H   H26       1.0  0.57061  0.04329  0.19546  1.0000
  H   H27       1.0  0.57539  0.09724  0.78362  1.0000
  H   H28       1.0  0.42459  0.90275  0.21638  1.0000
  H   H29       1.0  0.36779  0.13363  0.07290  1.0000
  H   H30       1.0  0.63221  0.86638  0.92711  1.0000
  H   H31       1.0  0.19821  0.00629  0.02201  1.0000
  H   H32       1.0  0.80180  0.99371  0.97799  1.0000
  C   C1        1.0  0.21196  0.52320  0.16437  1.0000
  C   C2        1.0  0.78804  0.47680  0.83563  1.0000
  C   C3        1.0  0.36271  0.55547  0.09878  1.0000
  C   C4        1.0  0.63730  0.44453  0.90122  1.0000
  C   C5        1.0  0.38677  0.64847  0.03196  1.0000
  C   C6        1.0  0.61324  0.35154  0.96804  1.0000
  C   C7        1.0  0.25608  0.70897  0.02763  1.0000
  C   C8        1.0  0.74392  0.29103  0.97237  1.0000
  C   C9        1.0  0.10286  0.67514  0.09126  1.0000
  C   C10       1.0  0.89714  0.32486  0.90874  1.0000
  C   C11       1.0  0.08251  0.58412  0.16043  1.0000
  C   C12       1.0  0.91749  0.41588  0.83957  1.0000
  C   C13       1.0  0.18446  0.42086  0.23512  1.0000
  C   C14       1.0  0.81555  0.57914  0.76489  1.0000
  C   C15       1.0  0.27146  0.80500  0.95178  1.0000
  C   C16       1.0  0.72854  0.19499  0.04823  1.0000
  C   C17       1.0  0.88216  0.84853  0.23375  1.0000
  C   C18       1.0  0.11783  0.15146  0.76625  1.0000
  C   C19       1.0  0.83082  0.75088  0.29691  1.0000
  C   C20       1.0  0.16918  0.24911  0.70309  1.0000
  C   C21       1.0  0.93102  0.76362  0.41330  1.0000
  C   C22       1.0  0.06898  0.23638  0.58670  1.0000
  C   C23       1.0  0.08677  0.87431  0.46788  1.0000
  C   C24       1.0  0.91322  0.12569  0.53211  1.0000
  C   C25       1.0  0.19224  0.89544  0.58941  1.0000
  C   C26       1.0  0.80775  0.10456  0.41059  1.0000
  C   C27       1.0  0.35162  0.00358  0.63734  1.0000
  C   C28       1.0  0.64838  0.99643  0.36266  1.0000
  C   C29       1.0  0.40488  0.09649  0.56420  1.0000
  C   C30       1.0  0.59512  0.90351  0.43579  1.0000
  C   C31       1.0  0.56123  0.20897  0.60732  1.0000
  C   C32       1.0  0.43877  0.79103  0.39268  1.0000
  C   C33       1.0  0.60132  0.29811  0.53656  1.0000
  C   C34       1.0  0.39869  0.70189  0.46344  1.0000
  C   C35       1.0  0.48038  0.27500  0.42202  1.0000
  C   C36       1.0  0.51962  0.72500  0.57798  1.0000
  C   C37       1.0  0.29368  0.08016  0.44577  1.0000
  C   C38       1.0  0.70632  0.91985  0.55423  1.0000
  C   C39       1.0  0.13302  0.96707  0.39555  1.0000
  C   C40       1.0  0.86698  0.03293  0.60445  1.0000
  N   N1        1.0  0.02891  0.95301  0.28220  1.0000
  N   N2        1.0  0.97109  0.04699  0.71779  1.0000
  N   N3        1.0  0.33251  0.16977  0.37909  1.0000
  N   N4        1.0  0.66749  0.83024  0.62090  1.0000
  N   N5        1.0  0.12747  0.81256  0.66697  1.0000
  N   N6        1.0  0.87252  0.18744  0.33303  1.0000
  N   N7        1.0  0.44768  0.02525  0.75514  1.0000
  N   N8        1.0  0.55231  0.97476  0.24485  1.0000
  O   O1        1.0  0.24204  0.33856  0.19317  1.0000
  O   O2        1.0  0.75798  0.66144  0.80683  1.0000
  O   O3        1.0  0.10726  0.42327  0.32672  1.0000
  O   O4        1.0  0.89273  0.57673  0.67329  1.0000
  O   O5        1.0  0.39459  0.82356  0.88173  1.0000
  O   O6        1.0  0.60539  0.17643  0.11827  1.0000
  O   O7        1.0  0.15603  0.86183  0.95837  1.0000
  O   O8        1.0  0.84397  0.13816  0.04164  1.0000
  O   O9        1.0  0.22189  0.09268  0.04828  1.0000
  O   O10       1.0  0.77811  0.90732  0.95172  1.0000
