data_image0
_chemical_formula_structural       Mn4H24C24N8O24
_chemical_formula_sum              "Mn4 H24 C24 N8 O24"
_cell_length_a       6.86768
_cell_length_b       10.8523
_cell_length_c       11.3787
_cell_angle_alpha    103.713
_cell_angle_beta     107.501
_cell_angle_gamma    90.0363

_space_group_name_H-M_alt    "P 1"
_space_group_IT_number       1

loop_
  _space_group_symop_operation_xyz
  'x, y, z'

loop_
  _atom_site_type_symbol
  _atom_site_label
  _atom_site_symmetry_multiplicity
  _atom_site_fract_x
  _atom_site_fract_y
  _atom_site_fract_z
  _atom_site_occupancy
  Mn  Mn1       1.0  0.52516  0.27335  0.74036  1.0000
  Mn  Mn2       1.0  0.78526  0.22647  0.25954  1.0000
  Mn  Mn3       1.0  0.47484  0.72665  0.25965  1.0000
  Mn  Mn4       1.0  0.21475  0.77353  0.74046  1.0000
  H   H1        1.0  0.15077  0.33880  0.66041  1.0000
  H   H2        1.0  0.49029  0.16133  0.33960  1.0000
  H   H3        1.0  0.84922  0.66121  0.33959  1.0000
  H   H4        1.0  0.50971  0.83868  0.66040  1.0000
  H   H5        1.0  0.21501  0.39119  0.81691  1.0000
  H   H6        1.0  0.39817  0.10917  0.18306  1.0000
  H   H7        1.0  0.78498  0.60882  0.18309  1.0000
  H   H8        1.0  0.60183  0.89083  0.81693  1.0000
  H   H9        1.0  0.45534  0.05649  0.79324  1.0000
  H   H10       1.0  0.66206  0.44321  0.20689  1.0000
  H   H11       1.0  0.54465  0.94351  0.20676  1.0000
  H   H12       1.0  0.33795  0.55680  0.79311  1.0000
  H   H13       1.0  0.57101  0.13398  0.93312  1.0000
  H   H14       1.0  0.63769  0.36586  0.06686  1.0000
  H   H15       1.0  0.42898  0.86602  0.06688  1.0000
  H   H16       1.0  0.36232  0.63414  0.93315  1.0000
  H   H17       1.0  0.34927  0.92625  0.47125  1.0000
  H   H18       1.0  0.87810  0.57375  0.52855  1.0000
  H   H19       1.0  0.65074  0.07376  0.52875  1.0000
  H   H20       1.0  0.12191  0.42625  0.47145  1.0000
  H   H21       1.0  0.04300  0.78709  0.08654  1.0000
  H   H22       1.0  0.95529  0.71308  0.91324  1.0000
  H   H23       1.0  0.95698  0.21291  0.91347  1.0000
  H   H24       1.0  0.04472  0.28691  0.08677  1.0000
  C   C1        1.0  0.15757  0.14566  0.51028  1.0000
  C   C2        1.0  0.64773  0.35408  0.48978  1.0000
  C   C3        1.0  0.84242  0.85435  0.48971  1.0000
  C   C4        1.0  0.35226  0.64592  0.51022  1.0000
  C   C5        1.0  0.12074  0.04446  0.38810  1.0000
  C   C6        1.0  0.73306  0.45526  0.61188  1.0000
  C   C7        1.0  0.87927  0.95554  0.61190  1.0000
  C   C8        1.0  0.26694  0.54474  0.38812  1.0000
  C   C9        1.0  0.23494  0.93795  0.38575  1.0000
  C   C10       1.0  0.84925  0.56194  0.61410  1.0000
  C   C11       1.0  0.76506  0.06206  0.61425  1.0000
  C   C12       1.0  0.15076  0.43805  0.38590  1.0000
  C   C13       1.0  0.06735  0.86202  0.17287  1.0000
  C   C14       1.0  0.89402  0.63798  0.82699  1.0000
  C   C15       1.0  0.93264  0.13798  0.82713  1.0000
  C   C16       1.0  0.10600  0.36201  0.17301  1.0000
  C   C17       1.0  0.95638  0.96977  0.17373  1.0000
  C   C18       1.0  0.78242  0.53010  0.82626  1.0000
  C   C19       1.0  0.04361  0.03023  0.82627  1.0000
  C   C20       1.0  0.21759  0.46990  0.17374  1.0000
  C   C21       1.0  0.81084  0.99278  0.05343  1.0000
  C   C22       1.0  0.75696  0.50700  0.94663  1.0000
  C   C23       1.0  0.18916  0.00722  0.94657  1.0000
  C   C24       1.0  0.24304  0.49300  0.05338  1.0000
  N   N1        1.0  0.98189  0.06014  0.28180  1.0000
  N   N2        1.0  0.70033  0.43954  0.71828  1.0000
  N   N3        1.0  0.01811  0.93986  0.71820  1.0000
  N   N4        1.0  0.29967  0.56045  0.28172  1.0000
  N   N5        1.0  0.20821  0.84657  0.27838  1.0000
  N   N6        1.0  0.92952  0.65343  0.72143  1.0000
  N   N7        1.0  0.79179  0.15343  0.72162  1.0000
  N   N8        1.0  0.07049  0.34657  0.27857  1.0000
  O   O1        1.0  0.03914  0.23478  0.51238  1.0000
  O   O2        1.0  0.52691  0.26502  0.48779  1.0000
  O   O3        1.0  0.96086  0.76522  0.48761  1.0000
  O   O4        1.0  0.47308  0.73498  0.51221  1.0000
  O   O5        1.0  0.30916  0.13144  0.60214  1.0000
  O   O6        1.0  0.70766  0.36817  0.39783  1.0000
  O   O7        1.0  0.69083  0.86857  0.39785  1.0000
  O   O8        1.0  0.29234  0.63184  0.60217  1.0000
  O   O9        1.0  0.73196  0.10057  0.06593  1.0000
  O   O10       1.0  0.66479  0.39940  0.93406  1.0000
  O   O11       1.0  0.26803  0.89942  0.93407  1.0000
  O   O12       1.0  0.33522  0.60060  0.06594  1.0000
  O   O13       1.0  0.78347  0.90816  0.95205  1.0000
  O   O14       1.0  0.83169  0.59137  0.04808  1.0000
  O   O15       1.0  0.21652  0.09184  0.04795  1.0000
  O   O16       1.0  0.16832  0.40863  0.95192  1.0000
  O   O17       1.0  0.25814  0.38828  0.73886  1.0000
  O   O18       1.0  0.51915  0.11182  0.26103  1.0000
  O   O19       1.0  0.74185  0.61172  0.26114  1.0000
  O   O20       1.0  0.48086  0.88818  0.73897  1.0000
  O   O21       1.0  0.47559  0.14312  0.85027  1.0000
  O   O22       1.0  0.62556  0.35658  0.14984  1.0000
  O   O23       1.0  0.52440  0.85688  0.14973  1.0000
  O   O24       1.0  0.37445  0.64342  0.85016  1.0000
