data_image0
_chemical_formula_structural       Co3P4H34C18N4O18
_chemical_formula_sum              "Co3 P4 H34 C18 N4 O18"
_cell_length_a       7.99553
_cell_length_b       9.35667
_cell_length_c       10.1504
_cell_angle_alpha    93.429
_cell_angle_beta     97.6909
_cell_angle_gamma    101.686

_space_group_name_H-M_alt    "P 1"
_space_group_IT_number       1

loop_
  _space_group_symop_operation_xyz
  'x, y, z'

loop_
  _atom_site_type_symbol
  _atom_site_label
  _atom_site_symmetry_multiplicity
  _atom_site_fract_x
  _atom_site_fract_y
  _atom_site_fract_z
  _atom_site_occupancy
  Co  Co1       1.0  0.50049  0.49970  0.49991  1.0000
  Co  Co2       1.0  0.90761  0.34528  0.51637  1.0000
  Co  Co3       1.0  0.09221  0.65461  0.48339  1.0000
  P   P1        1.0  0.24493  0.44726  0.72111  1.0000
  P   P2        1.0  0.75502  0.55276  0.27873  1.0000
  P   P3        1.0  0.22352  0.20039  0.49514  1.0000
  P   P4        1.0  0.77650  0.79951  0.50483  1.0000
  H   H1        1.0  0.94750  0.10314  0.63022  1.0000
  H   H2        1.0  0.05255  0.89678  0.36968  1.0000
  H   H3        1.0  0.45197  0.38731  0.19458  1.0000
  H   H4        1.0  0.54784  0.61281  0.80521  1.0000
  H   H5        1.0  0.13513  0.94850  0.65710  1.0000
  H   H6        1.0  0.86494  0.05143  0.34287  1.0000
  H   H7        1.0  0.04624  0.97490  0.80255  1.0000
  H   H8        1.0  0.95371  0.02514  0.19732  1.0000
  H   H9        1.0  0.26255  0.78508  0.78916  1.0000
  H   H10       1.0  0.73745  0.21496  0.21100  1.0000
  H   H11       1.0  0.27777  0.89578  0.93865  1.0000
  H   H12       1.0  0.72214  0.10440  0.06141  1.0000
  H   H13       1.0  0.56016  0.00603  0.91235  1.0000
  H   H14       1.0  0.43980  0.99407  0.08774  1.0000
  H   H15       1.0  0.53746  0.91749  0.75149  1.0000
  H   H16       1.0  0.46254  0.08249  0.24866  1.0000
  H   H17       1.0  0.55595  0.21976  0.78969  1.0000
  H   H18       1.0  0.44405  0.78023  0.21021  1.0000
  H   H19       1.0  0.45228  0.10917  0.64558  1.0000
  H   H20       1.0  0.54774  0.89069  0.35438  1.0000
  H   H21       1.0  0.54675  0.32484  0.97535  1.0000
  H   H22       1.0  0.45315  0.67521  0.02452  1.0000
  H   H23       1.0  0.12660  0.27455  0.19271  1.0000
  H   H24       1.0  0.87321  0.72562  0.80706  1.0000
  H   H25       1.0  0.01052  0.13360  0.93875  1.0000
  H   H26       1.0  0.98943  0.86641  0.06106  1.0000
  H   H27       1.0  0.17947  0.42721  0.38199  1.0000
  H   H28       1.0  0.82101  0.57304  0.61879  1.0000
  H   H29       1.0  0.27182  0.55299  0.29566  1.0000
  H   H30       1.0  0.72847  0.44709  0.70503  1.0000
  H   H31       1.0  0.57777  0.21234  0.47423  1.0000
  H   H32       1.0  0.42214  0.78730  0.52588  1.0000
  H   H33       1.0  0.70828  0.09240  0.49750  1.0000
  H   H34       1.0  0.29186  0.90736  0.50262  1.0000
  C   C1        1.0  0.18718  0.24007  0.67423  1.0000
  C   C2        1.0  0.81284  0.75990  0.32566  1.0000
  C   C3        1.0  0.27144  0.14556  0.77500  1.0000
  C   C4        1.0  0.72854  0.85444  0.22489  1.0000
  C   C5        1.0  0.16857  0.98600  0.76297  1.0000
  C   C6        1.0  0.83143  0.01400  0.23698  1.0000
  C   C7        1.0  0.29200  0.89904  0.83249  1.0000
  C   C8        1.0  0.70797  0.10102  0.16759  1.0000
  C   C9        1.0  0.47538  0.98193  0.81608  1.0000
  C   C10       1.0  0.52460  0.01811  0.18400  1.0000
  C   C11       1.0  0.45219  0.12413  0.75319  1.0000
  C   C12       1.0  0.54780  0.87584  0.24676  1.0000
  C   C13       1.0  0.41660  0.28848  0.99666  1.0000
  C   C14       1.0  0.58330  0.71156  0.00319  1.0000
  C   C15       1.0  0.19457  0.26344  0.10842  1.0000
  C   C16       1.0  0.80528  0.73666  0.89139  1.0000
  C   C17       1.0  0.13816  0.19067  0.98462  1.0000
  C   C18       1.0  0.86175  0.80934  0.01521  1.0000
  N   N1        1.0  0.27895  0.20565  0.91633  1.0000
  N   N2        1.0  0.72098  0.79438  0.08352  1.0000
  N   N3        1.0  0.36782  0.32264  0.11311  1.0000
  N   N4        1.0  0.63202  0.67746  0.88671  1.0000
  O   O1        1.0  0.23684  0.48759  0.86455  1.0000
  O   O2        1.0  0.76327  0.51241  0.13534  1.0000
  O   O3        1.0  0.42887  0.50202  0.68400  1.0000
  O   O4        1.0  0.57092  0.49816  0.31567  1.0000
  O   O5        1.0  0.10685  0.49844  0.62111  1.0000
  O   O6        1.0  0.89273  0.50142  0.37894  1.0000
  O   O7        1.0  0.19204  0.03614  0.45705  1.0000
  O   O8        1.0  0.80782  0.96379  0.54289  1.0000
  O   O9        1.0  0.40797  0.27714  0.47754  1.0000
  O   O10       1.0  0.59216  0.72267  0.52256  1.0000
  O   O11       1.0  0.08828  0.27261  0.41452  1.0000
  O   O12       1.0  0.91196  0.72754  0.58545  1.0000
  O   O13       1.0  0.00016  0.20662  0.67041  1.0000
  O   O14       1.0  0.99984  0.79333  0.32944  1.0000
  O   O15       1.0  0.25349  0.53116  0.38592  1.0000
  O   O16       1.0  0.74694  0.46919  0.61491  1.0000
  O   O17       1.0  0.69526  0.19085  0.46933  1.0000
  O   O18       1.0  0.30475  0.80896  0.53090  1.0000
