data_image0
_chemical_formula_structural       Cu2H26C34N12O12F8
_chemical_formula_sum              "Cu2 H26 C34 N12 O12 F8"
_cell_length_a       8.39768
_cell_length_b       9.2861
_cell_length_c       13.5904
_cell_angle_alpha    99.3908
_cell_angle_beta     89.5733
_cell_angle_gamma    106.364

_space_group_name_H-M_alt    "P 1"
_space_group_IT_number       1

loop_
  _space_group_symop_operation_xyz
  'x, y, z'

loop_
  _atom_site_type_symbol
  _atom_site_label
  _atom_site_symmetry_multiplicity
  _atom_site_fract_x
  _atom_site_fract_y
  _atom_site_fract_z
  _atom_site_occupancy
  Cu  Cu1       1.0  0.35899  0.94398  0.64888  1.0000
  Cu  Cu2       1.0  0.64102  0.05602  0.35112  1.0000
  H   H1        1.0  0.74910  0.12458  0.69985  1.0000
  H   H2        1.0  0.25091  0.87543  0.30014  1.0000
  H   H3        1.0  0.36532  0.97774  0.89376  1.0000
  H   H4        1.0  0.63468  0.02226  0.10624  1.0000
  H   H5        1.0  0.99447  0.18026  0.82839  1.0000
  H   H6        1.0  0.00552  0.81973  0.17161  1.0000
  H   H7        1.0  0.94391  0.11158  0.94195  1.0000
  H   H8        1.0  0.05608  0.88842  0.05806  1.0000
  H   H9        1.0  0.59968  0.75878  0.70979  1.0000
  H   H10       1.0  0.40032  0.24121  0.29021  1.0000
  H   H11       1.0  0.07519  0.62880  0.69400  1.0000
  H   H12       1.0  0.92482  0.37120  0.30601  1.0000
  H   H13       1.0  0.63969  0.52467  0.76072  1.0000
  H   H14       1.0  0.36031  0.47534  0.23930  1.0000
  H   H15       1.0  0.46516  0.35851  0.74415  1.0000
  H   H16       1.0  0.53484  0.64149  0.25586  1.0000
  H   H17       1.0  0.69355  0.39317  0.58223  1.0000
  H   H18       1.0  0.30646  0.60684  0.41777  1.0000
  H   H19       1.0  0.11378  0.80646  0.51976  1.0000
  H   H20       1.0  0.88622  0.19354  0.48024  1.0000
  H   H21       1.0  0.27361  0.93032  0.48062  1.0000
  H   H22       1.0  0.72639  0.06967  0.51937  1.0000
  H   H23       1.0  0.09142  0.04366  0.66751  1.0000
  H   H24       1.0  0.90858  0.95634  0.33249  1.0000
  H   H25       1.0  0.01262  0.88210  0.69677  1.0000
  H   H26       1.0  0.98738  0.11790  0.30323  1.0000
  C   C1        1.0  0.67888  0.09968  0.76524  1.0000
  C   C2        1.0  0.32112  0.90032  0.23476  1.0000
  C   C3        1.0  0.48640  0.02560  0.86554  1.0000
  C   C4        1.0  0.51361  0.97441  0.13446  1.0000
  C   C5        1.0  0.91718  0.18605  0.89359  1.0000
  C   C6        1.0  0.08282  0.81394  0.10641  1.0000
  C   C7        1.0  0.95408  0.34659  0.94939  1.0000
  C   C8        1.0  0.04592  0.65340  0.05061  1.0000
  C   C9        1.0  0.95642  0.46722  0.89958  1.0000
  C   C10       1.0  0.04357  0.53278  0.10041  1.0000
  C   C11       1.0  0.99483  0.38217  0.05166  1.0000
  C   C12       1.0  0.00516  0.61782  0.94834  1.0000
  C   C13       1.0  0.46915  0.69997  0.71508  1.0000
  C   C14       1.0  0.53086  0.30003  0.28492  1.0000
  C   C15       1.0  0.20247  0.62794  0.70711  1.0000
  C   C16       1.0  0.79753  0.37207  0.29289  1.0000
  C   C17       1.0  0.51159  0.47703  0.78213  1.0000
  C   C18       1.0  0.48841  0.52298  0.21788  1.0000
  C   C19       1.0  0.50412  0.48844  0.89392  1.0000
  C   C20       1.0  0.49587  0.51157  0.10609  1.0000
  C   C21       1.0  0.59748  0.61773  0.95778  1.0000
  C   C22       1.0  0.40252  0.38227  0.04223  1.0000
  C   C23       1.0  0.59599  0.62806  0.06113  1.0000
  C   C24       1.0  0.40400  0.37194  0.93888  1.0000
  C   C25       1.0  0.39853  0.18382  0.52471  1.0000
  C   C26       1.0  0.60148  0.81618  0.47528  1.0000
  C   C27       1.0  0.44903  0.34913  0.51581  1.0000
  C   C28       1.0  0.55098  0.65087  0.48418  1.0000
  C   C29       1.0  0.33960  0.40754  0.46737  1.0000
  C   C30       1.0  0.66041  0.59247  0.53262  1.0000
  C   C31       1.0  0.16835  0.30781  0.43161  1.0000
  C   C32       1.0  0.83166  0.69220  0.56839  1.0000
  C   C33       1.0  0.60811  0.44155  0.54804  1.0000
  C   C34       1.0  0.39190  0.55845  0.45195  1.0000
  N   N1        1.0  0.51500  0.03796  0.76759  1.0000
  N   N2        1.0  0.48500  0.96204  0.23240  1.0000
  N   N3        1.0  0.62356  0.07779  0.92355  1.0000
  N   N4        1.0  0.37643  0.92221  0.07645  1.0000
  N   N5        1.0  0.74425  0.12313  0.85839  1.0000
  N   N6        1.0  0.25574  0.87687  0.14161  1.0000
  N   N7        1.0  0.33769  0.74310  0.69056  1.0000
  N   N8        1.0  0.66232  0.25690  0.30944  1.0000
  N   N9        1.0  0.24418  0.51724  0.74166  1.0000
  N   N10       1.0  0.75582  0.48276  0.25835  1.0000
  N   N11       1.0  0.41336  0.56501  0.74529  1.0000
  N   N12       1.0  0.58664  0.43499  0.25472  1.0000
  O   O1        1.0  0.40963  0.15236  0.61272  1.0000
  O   O2        1.0  0.59038  0.84764  0.38727  1.0000
  O   O3        1.0  0.35042  0.08814  0.44554  1.0000
  O   O4        1.0  0.64959  0.91186  0.55445  1.0000
  O   O5        1.0  0.07338  0.25377  0.49783  1.0000
  O   O6        1.0  0.92662  0.74625  0.50217  1.0000
  O   O7        1.0  0.13400  0.28604  0.33808  1.0000
  O   O8        1.0  0.86600  0.71396  0.66192  1.0000
  O   O9        1.0  0.24215  0.84229  0.51917  1.0000
  O   O10       1.0  0.75785  0.15771  0.48083  1.0000
  O   O11       1.0  0.09992  0.98242  0.71799  1.0000
  O   O12       1.0  0.90008  0.01757  0.28201  1.0000
  F   F1        1.0  0.90744  0.43617  0.80181  1.0000
  F   F2        1.0  0.09255  0.56382  0.19819  1.0000
  F   F3        1.0  0.98720  0.26927  0.10463  1.0000
  F   F4        1.0  0.01277  0.73072  0.89537  1.0000
  F   F5        1.0  0.69277  0.73683  0.91849  1.0000
  F   F6        1.0  0.30722  0.26317  0.08152  1.0000
  F   F7        1.0  0.69569  0.75386  0.11830  1.0000
  F   F8        1.0  0.30431  0.24614  0.88172  1.0000
