data_image0
_chemical_formula_structural       CuH16C22N6O10F4
_chemical_formula_sum              "Cu1 H16 C22 N6 O10 F4"
_cell_length_a       7.80947
_cell_length_b       8.0778
_cell_length_c       11.0599
_cell_angle_alpha    86.8619
_cell_angle_beta     71.0699
_cell_angle_gamma    65.4539

_space_group_name_H-M_alt    "P 1"
_space_group_IT_number       1

loop_
  _space_group_symop_operation_xyz
  'x, y, z'

loop_
  _atom_site_type_symbol
  _atom_site_label
  _atom_site_symmetry_multiplicity
  _atom_site_fract_x
  _atom_site_fract_y
  _atom_site_fract_z
  _atom_site_occupancy
  Cu  Cu1       1.0  1.00000  0.50000  0.00000  1.0000
  H   H1        1.0  0.31668  0.68836  0.94240  1.0000
  H   H2        1.0  0.68332  0.31163  0.05760  1.0000
  H   H3        1.0  0.75005  0.83468  0.22280  1.0000
  H   H4        1.0  0.24995  0.16532  0.77720  1.0000
  H   H5        1.0  0.70819  0.14669  0.30426  1.0000
  H   H6        1.0  0.29181  0.85331  0.69574  1.0000
  H   H7        1.0  0.90537  0.21404  0.23333  1.0000
  H   H8        1.0  0.09463  0.78596  0.76667  1.0000
  H   H9        1.0  0.18932  0.45060  0.57771  1.0000
  H   H10       1.0  0.81068  0.54940  0.42229  1.0000
  H   H11       1.0  0.64825  0.65206  0.83416  1.0000
  H   H12       1.0  0.35175  0.34794  0.16584  1.0000
  H   H13       1.0  0.29258  0.15170  0.06652  1.0000
  H   H14       1.0  0.70742  0.84830  0.93348  1.0000
  H   H15       1.0  0.38610  0.26093  0.95790  1.0000
  H   H16       1.0  0.61389  0.73907  0.04210  1.0000
  C   C1        1.0  0.18243  0.75852  0.02337  1.0000
  C   C2        1.0  0.81757  0.24148  0.97663  1.0000
  C   C3        1.0  0.89437  0.82818  0.16440  1.0000
  C   C4        1.0  0.10563  0.17182  0.83560  1.0000
  C   C5        1.0  0.86976  0.10210  0.27671  1.0000
  C   C6        1.0  0.13024  0.89790  0.72330  1.0000
  C   C7        1.0  0.93745  0.04932  0.39121  1.0000
  C   C8        1.0  0.06256  0.95067  0.60879  1.0000
  C   C9        1.0  0.84362  0.97039  0.49056  1.0000
  C   C10       1.0  0.15639  0.02961  0.50944  1.0000
  C   C11       1.0  0.90317  0.92368  0.59771  1.0000
  C   C12       1.0  0.09683  0.07631  0.40229  1.0000
  C   C13       1.0  0.35153  0.42228  0.76397  1.0000
  C   C14       1.0  0.64847  0.57772  0.23603  1.0000
  C   C15       1.0  0.42736  0.46711  0.62844  1.0000
  C   C16       1.0  0.57264  0.53289  0.37155  1.0000
  C   C17       1.0  0.32529  0.47277  0.54389  1.0000
  C   C18       1.0  0.67471  0.52723  0.45610  1.0000
  C   C19       1.0  0.60218  0.49625  0.58450  1.0000
  C   C20       1.0  0.39781  0.50375  0.41550  1.0000
  C   C21       1.0  0.70876  0.50744  0.67297  1.0000
  C   C22       1.0  0.29124  0.49256  0.32703  1.0000
  N   N1        1.0  0.02949  0.70529  0.06601  1.0000
  N   N2        1.0  0.97051  0.29471  0.93399  1.0000
  N   N3        1.0  0.96371  0.94934  0.17833  1.0000
  N   N4        1.0  0.03629  0.05066  0.82167  1.0000
  N   N5        1.0  0.14767  0.90761  0.08984  1.0000
  N   N6        1.0  0.85233  0.09239  0.91016  1.0000
  O   O1        1.0  0.16484  0.51964  0.82310  1.0000
  O   O2        1.0  0.83516  0.48036  0.17690  1.0000
  O   O3        1.0  0.47001  0.29421  0.80673  1.0000
  O   O4        1.0  0.52999  0.70579  0.19327  1.0000
  O   O5        1.0  0.58161  0.62603  0.77646  1.0000
  O   O6        1.0  0.41839  0.37397  0.22354  1.0000
  O   O7        1.0  0.88917  0.42501  0.64966  1.0000
  O   O8        1.0  0.11081  0.57499  0.35033  1.0000
  O   O9        1.0  0.31271  0.26361  0.05238  1.0000
  O   O10       1.0  0.68729  0.73639  0.94761  1.0000
  F   F1        1.0  0.69120  0.93698  0.48245  1.0000
  F   F2        1.0  0.30880  0.06302  0.51755  1.0000
  F   F3        1.0  0.80561  0.84852  0.69145  1.0000
  F   F4        1.0  0.19439  0.15148  0.30856  1.0000
