data_image0
_chemical_formula_structural       Ag4H20C40S4N4O14F12
_chemical_formula_sum              "Ag4 H20 C40 S4 N4 O14 F12"
_cell_length_a       10.163
_cell_length_b       10.6034
_cell_length_c       11.3831
_cell_angle_alpha    97.3584
_cell_angle_beta     100.373
_cell_angle_gamma    92.6353

_space_group_name_H-M_alt    "P 1"
_space_group_IT_number       1

loop_
  _space_group_symop_operation_xyz
  'x, y, z'

loop_
  _atom_site_type_symbol
  _atom_site_label
  _atom_site_symmetry_multiplicity
  _atom_site_fract_x
  _atom_site_fract_y
  _atom_site_fract_z
  _atom_site_occupancy
  Ag  Ag1       1.0  0.40983  0.68281  0.05189  1.0000
  Ag  Ag2       1.0  0.59017  0.31720  0.94811  1.0000
  Ag  Ag3       1.0  0.04768  0.66556  0.01390  1.0000
  Ag  Ag4       1.0  0.95233  0.33444  0.98610  1.0000
  H   H1        1.0  0.88090  0.83652  0.03745  1.0000
  H   H2        1.0  0.11910  0.16348  0.96255  1.0000
  H   H3        1.0  0.66737  0.93939  0.01405  1.0000
  H   H4        1.0  0.33262  0.06060  0.98595  1.0000
  H   H5        1.0  0.42554  0.26195  0.11149  1.0000
  H   H6        1.0  0.57445  0.73803  0.88850  1.0000
  H   H7        1.0  0.85781  0.27115  0.25569  1.0000
  H   H8        1.0  0.14219  0.72885  0.74430  1.0000
  H   H9        1.0  0.07183  0.16725  0.28228  1.0000
  H   H10       1.0  0.92817  0.83275  0.71772  1.0000
  H   H11       1.0  0.56511  0.81116  0.26589  1.0000
  H   H12       1.0  0.43490  0.18884  0.73411  1.0000
  H   H13       1.0  0.78417  0.89805  0.38795  1.0000
  H   H14       1.0  0.21583  0.10196  0.61206  1.0000
  H   H15       1.0  0.02184  0.22415  0.65569  1.0000
  H   H16       1.0  0.97817  0.77584  0.34432  1.0000
  H   H17       1.0  0.61524  0.25371  0.48524  1.0000
  H   H18       1.0  0.38476  0.74628  0.51477  1.0000
  H   H19       1.0  0.39573  0.16859  0.36287  1.0000
  H   H20       1.0  0.60427  0.83141  0.63713  1.0000
  C   C1        1.0  0.87700  0.93126  0.08599  1.0000
  C   C2        1.0  0.12301  0.06874  0.91401  1.0000
  C   C3        1.0  0.75663  0.98893  0.07212  1.0000
  C   C4        1.0  0.24337  0.01106  0.92788  1.0000
  C   C5        1.0  0.74846  0.11224  0.13257  1.0000
  C   C6        1.0  0.25153  0.88775  0.86743  1.0000
  C   C7        1.0  0.62629  0.17240  0.11572  1.0000
  C   C8        1.0  0.37371  0.82760  0.88428  1.0000
  C   C9        1.0  0.52188  0.22740  0.10020  1.0000
  C   C10       1.0  0.47811  0.77258  0.89979  1.0000
  C   C11       1.0  0.86352  0.17605  0.20890  1.0000
  C   C12       1.0  0.13648  0.82395  0.79109  1.0000
  C   C13       1.0  0.98346  0.11766  0.22363  1.0000
  C   C14       1.0  0.01653  0.88234  0.77636  1.0000
  C   C15       1.0  0.99179  0.99529  0.16171  1.0000
  C   C16       1.0  0.00821  0.00471  0.83829  1.0000
  C   C17       1.0  0.12010  0.93981  0.17580  1.0000
  C   C18       1.0  0.87991  0.06019  0.82420  1.0000
  C   C19       1.0  0.33408  0.93529  0.23979  1.0000
  C   C20       1.0  0.66592  0.06472  0.76021  1.0000
  C   C21       1.0  0.46479  0.98377  0.30722  1.0000
  C   C22       1.0  0.53521  0.01623  0.69278  1.0000
  C   C23       1.0  0.57545  0.90811  0.31357  1.0000
  C   C24       1.0  0.42455  0.09189  0.68643  1.0000
  C   C25       1.0  0.69864  0.95649  0.38218  1.0000
  C   C26       1.0  0.30136  0.04352  0.61782  1.0000
  C   C27       1.0  0.71427  0.08093  0.44625  1.0000
  C   C28       1.0  0.28574  0.91907  0.55376  1.0000
  C   C29       1.0  0.83742  0.13067  0.52151  1.0000
  C   C30       1.0  0.16259  0.86933  0.47850  1.0000
  C   C31       1.0  0.93785  0.17830  0.59054  1.0000
  C   C32       1.0  0.06215  0.82169  0.40947  1.0000
  C   C33       1.0  0.60340  0.15699  0.43739  1.0000
  C   C34       1.0  0.39660  0.84301  0.56261  1.0000
  C   C35       1.0  0.48041  0.10899  0.36910  1.0000
  C   C36       1.0  0.51959  0.89102  0.63091  1.0000
  C   C37       1.0  0.76134  0.54707  0.32453  1.0000
  C   C38       1.0  0.23865  0.45294  0.67546  1.0000
  C   C39       1.0  0.23917  0.45333  0.34055  1.0000
  C   C40       1.0  0.76084  0.54667  0.65945  1.0000
  S   S1        1.0  0.23631  0.42778  0.17530  1.0000
  S   S2        1.0  0.76369  0.57222  0.82470  1.0000
  S   S3        1.0  0.76182  0.57370  0.16594  1.0000
  S   S4        1.0  0.23818  0.42629  0.83406  1.0000
  N   N1        1.0  0.15709  0.82987  0.12892  1.0000
  N   N2        1.0  0.84291  0.17014  0.87108  1.0000
  N   N3        1.0  0.29396  0.82672  0.16963  1.0000
  N   N4        1.0  0.70604  0.17328  0.83037  1.0000
  O   O1        1.0  0.22835  0.00973  0.24635  1.0000
  O   O2        1.0  0.77165  0.99027  0.75365  1.0000
  O   O3        1.0  0.34939  0.51049  0.16232  1.0000
  O   O4        1.0  0.65061  0.48951  0.83767  1.0000
  O   O5        1.0  0.24840  0.29116  0.14802  1.0000
  O   O6        1.0  0.75160  0.70884  0.85199  1.0000
  O   O7        1.0  0.10290  0.46809  0.12397  1.0000
  O   O8        1.0  0.89710  0.53191  0.87604  1.0000
  O   O9        1.0  0.87424  0.66789  0.17770  1.0000
  O   O10       1.0  0.12576  0.33210  0.82229  1.0000
  O   O11       1.0  0.62985  0.61926  0.12766  1.0000
  O   O12       1.0  0.37015  0.38074  0.87233  1.0000
  O   O13       1.0  0.78158  0.44701  0.10606  1.0000
  O   O14       1.0  0.21842  0.55299  0.89394  1.0000
  F   F1        1.0  0.66321  0.45889  0.33082  1.0000
  F   F2        1.0  0.33679  0.54112  0.66918  1.0000
  F   F3        1.0  0.88061  0.50730  0.37537  1.0000
  F   F4        1.0  0.11938  0.49271  0.62463  1.0000
  F   F5        1.0  0.74065  0.65843  0.39049  1.0000
  F   F6        1.0  0.25934  0.34157  0.60950  1.0000
  F   F7        1.0  0.13703  0.38264  0.36772  1.0000
  F   F8        1.0  0.86298  0.61736  0.63229  1.0000
  F   F9        1.0  0.35678  0.41753  0.39976  1.0000
  F   F10       1.0  0.64323  0.58248  0.60024  1.0000
  F   F11       1.0  0.22761  0.57723  0.38023  1.0000
  F   F12       1.0  0.77238  0.42277  0.61977  1.0000
