data_image0
_chemical_formula_structural       Ag2H20C38S2N4O8F6
_chemical_formula_sum              "Ag2 H20 C38 S2 N4 O8 F6"
_cell_length_a       8.93633
_cell_length_b       10.3445
_cell_length_c       10.7972
_cell_angle_alpha    102.71
_cell_angle_beta     109.321
_cell_angle_gamma    99.4852

_space_group_name_H-M_alt    "P 1"
_space_group_IT_number       1

loop_
  _space_group_symop_operation_xyz
  'x, y, z'

loop_
  _atom_site_type_symbol
  _atom_site_label
  _atom_site_symmetry_multiplicity
  _atom_site_fract_x
  _atom_site_fract_y
  _atom_site_fract_z
  _atom_site_occupancy
  Ag  Ag1       1.0  0.65425  0.57523  0.96287  1.0000
  Ag  Ag2       1.0  0.34575  0.42476  0.03713  1.0000
  H   H1        1.0  0.74665  0.44459  0.73647  1.0000
  H   H2        1.0  0.25335  0.55541  0.26352  1.0000
  H   H3        1.0  0.89956  0.45986  0.58702  1.0000
  H   H4        1.0  0.10044  0.54014  0.41297  1.0000
  H   H5        1.0  0.75523  0.37509  0.33059  1.0000
  H   H6        1.0  0.24477  0.62490  0.66941  1.0000
  H   H7        1.0  0.30734  0.13745  0.96675  1.0000
  H   H8        1.0  0.69265  0.86254  0.03325  1.0000
  H   H9        1.0  0.29526  0.26437  0.37774  1.0000
  H   H10       1.0  0.70474  0.73563  0.62226  1.0000
  H   H11       1.0  0.96853  0.15298  0.44061  1.0000
  H   H12       1.0  0.03147  0.84702  0.55939  1.0000
  H   H13       1.0  0.46581  0.86925  0.13752  1.0000
  H   H14       1.0  0.53419  0.13075  0.86248  1.0000
  H   H15       1.0  0.60111  0.96756  0.57012  1.0000
  H   H16       1.0  0.39890  0.03245  0.42988  1.0000
  H   H17       1.0  0.78383  0.08140  0.81261  1.0000
  H   H18       1.0  0.21617  0.91860  0.18739  1.0000
  H   H19       1.0  0.05742  0.23271  0.87293  1.0000
  H   H20       1.0  0.94258  0.76729  0.12708  1.0000
  C   C1        1.0  0.68084  0.40915  0.62542  1.0000
  C   C2        1.0  0.31916  0.59085  0.37457  1.0000
  C   C3        1.0  0.76731  0.41646  0.53970  1.0000
  C   C4        1.0  0.23269  0.58354  0.46030  1.0000
  C   C5        1.0  0.68730  0.36835  0.39732  1.0000
  C   C6        1.0  0.31270  0.63165  0.60268  1.0000
  C   C7        1.0  0.51616  0.31023  0.33824  1.0000
  C   C8        1.0  0.48384  0.68977  0.66176  1.0000
  C   C9        1.0  0.43298  0.25510  0.19369  1.0000
  C   C10       1.0  0.56701  0.74490  0.80630  1.0000
  C   C11       1.0  0.36235  0.20759  0.06870  1.0000
  C   C12       1.0  0.63764  0.79241  0.93130  1.0000
  C   C13       1.0  0.42760  0.30583  0.42381  1.0000
  C   C14       1.0  0.57240  0.69417  0.57619  1.0000
  C   C15       1.0  0.50949  0.35544  0.56701  1.0000
  C   C16       1.0  0.49051  0.64456  0.43298  1.0000
  C   C17       1.0  0.41392  0.34884  0.65204  1.0000
  C   C18       1.0  0.58608  0.65116  0.34796  1.0000
  C   C19       1.0  0.19764  0.28009  0.69384  1.0000
  C   C20       1.0  0.80236  0.71991  0.30616  1.0000
  C   C21       1.0  0.03259  0.20057  0.66055  1.0000
  C   C22       1.0  0.96741  0.79944  0.33945  1.0000
  C   C23       1.0  0.92827  0.13799  0.52219  1.0000
  C   C24       1.0  0.07173  0.86201  0.47781  1.0000
  C   C25       1.0  0.77102  0.05519  0.48854  1.0000
  C   C26       1.0  0.22898  0.94481  0.51146  1.0000
  C   C27       1.0  0.66058  0.98999  0.34996  1.0000
  C   C28       1.0  0.33942  0.01002  0.65004  1.0000
  C   C29       1.0  0.55842  0.92846  0.23586  1.0000
  C   C30       1.0  0.44158  0.07155  0.76415  1.0000
  C   C31       1.0  0.72139  0.03402  0.59514  1.0000
  C   C32       1.0  0.27861  0.96598  0.40486  1.0000
  C   C33       1.0  0.82476  0.09737  0.73170  1.0000
  C   C34       1.0  0.17524  0.90263  0.26830  1.0000
  C   C35       1.0  0.97957  0.18150  0.76554  1.0000
  C   C36       1.0  0.02043  0.81850  0.23446  1.0000
  C   C37       1.0  0.89956  0.19650  0.13601  1.0000
  C   C38       1.0  0.10044  0.80349  0.86399  1.0000
  S   S1        1.0  0.91104  0.35873  0.08631  1.0000
  S   S2        1.0  0.08896  0.64127  0.91369  1.0000
  N   N1        1.0  0.45244  0.40102  0.78457  1.0000
  N   N2        1.0  0.54756  0.59898  0.21543  1.0000
  N   N3        1.0  0.31388  0.35672  0.81133  1.0000
  N   N4        1.0  0.68613  0.64328  0.18866  1.0000
  O   O1        1.0  0.25380  0.27400  0.59001  1.0000
  O   O2        1.0  0.74620  0.72600  0.40999  1.0000
  O   O3        1.0  0.76604  0.32321  0.95984  1.0000
  O   O4        1.0  0.23396  0.67678  0.04016  1.0000
  O   O5        1.0  0.06855  0.38151  0.07031  1.0000
  O   O6        1.0  0.93145  0.61849  0.92969  1.0000
  O   O7        1.0  0.90534  0.45531  0.20412  1.0000
  O   O8        1.0  0.09465  0.54469  0.79588  1.0000
  F   F1        1.0  0.01431  0.21800  0.26428  1.0000
  F   F2        1.0  0.98569  0.78200  0.73572  1.0000
  F   F3        1.0  0.92675  0.09561  0.04832  1.0000
  F   F4        1.0  0.07325  0.90438  0.95168  1.0000
  F   F5        1.0  0.74970  0.14833  0.13833  1.0000
  F   F6        1.0  0.25030  0.85167  0.86167  1.0000
