data_image0
_chemical_formula_structural       Yb2H26C32O24
_chemical_formula_sum              "Yb2 H26 C32 O24"
_cell_length_a       7.40218
_cell_length_b       10.691
_cell_length_c       10.9421
_cell_angle_alpha    87.2823
_cell_angle_beta     77.7958
_cell_angle_gamma    77.9494

_space_group_name_H-M_alt    "P 1"
_space_group_IT_number       1

loop_
  _space_group_symop_operation_xyz
  'x, y, z'

loop_
  _atom_site_type_symbol
  _atom_site_label
  _atom_site_symmetry_multiplicity
  _atom_site_fract_x
  _atom_site_fract_y
  _atom_site_fract_z
  _atom_site_occupancy
  Yb  Yb1       1.0  0.16897  0.24018  0.93308  1.0000
  Yb  Yb2       1.0  0.83102  0.75982  0.06692  1.0000
  H   H1        1.0  0.32598  0.16546  0.34795  1.0000
  H   H2        1.0  0.67402  0.83454  0.65205  1.0000
  H   H3        1.0  0.34365  0.03819  0.54532  1.0000
  H   H4        1.0  0.65636  0.96180  0.45467  1.0000
  H   H5        1.0  0.22421  0.83647  0.57421  1.0000
  H   H6        1.0  0.77579  0.16352  0.42578  1.0000
  H   H7        1.0  0.28923  0.61154  0.25645  1.0000
  H   H8        1.0  0.71077  0.38846  0.74355  1.0000
  H   H9        1.0  0.43294  0.29675  0.50703  1.0000
  H   H10       1.0  0.56707  0.70325  0.49298  1.0000
  H   H11       1.0  0.01922  0.63298  0.64529  1.0000
  H   H12       1.0  0.98079  0.36703  0.35471  1.0000
  H   H13       1.0  0.68837  0.23029  0.20160  1.0000
  H   H14       1.0  0.31162  0.76970  0.79840  1.0000
  H   H15       1.0  0.37563  0.39071  0.04733  1.0000
  H   H16       1.0  0.62437  0.60929  0.95267  1.0000
  H   H17       1.0  0.40856  0.44346  0.90957  1.0000
  H   H18       1.0  0.59145  0.55654  0.09044  1.0000
  H   H19       1.0  0.95450  0.42601  0.12483  1.0000
  H   H20       1.0  0.04550  0.57399  0.87517  1.0000
  H   H21       1.0  0.83507  0.41826  0.02627  1.0000
  H   H22       1.0  0.16493  0.58174  0.97374  1.0000
  H   H23       1.0  0.51779  0.08469  0.81728  1.0000
  H   H24       1.0  0.48221  0.91531  0.18272  1.0000
  H   H25       1.0  0.58856  0.14994  0.91712  1.0000
  H   H26       1.0  0.41143  0.85006  0.08288  1.0000
  C   C1        1.0  0.17802  0.11721  0.15663  1.0000
  C   C2        1.0  0.82197  0.88279  0.84337  1.0000
  C   C3        1.0  0.18392  0.04055  0.27420  1.0000
  C   C4        1.0  0.81607  0.95945  0.72580  1.0000
  C   C5        1.0  0.27083  0.07826  0.36426  1.0000
  C   C6        1.0  0.72916  0.92174  0.63574  1.0000
  C   C7        1.0  0.28501  0.00576  0.47218  1.0000
  C   C8        1.0  0.71499  0.99423  0.52782  1.0000
  C   C9        1.0  0.21556  0.89348  0.48986  1.0000
  C   C10       1.0  0.78445  0.10651  0.51014  1.0000
  C   C11       1.0  0.12706  0.85649  0.40111  1.0000
  C   C12       1.0  0.87294  0.14350  0.59889  1.0000
  C   C13       1.0  0.10895  0.92846  0.29246  1.0000
  C   C14       1.0  0.89105  0.07154  0.70753  1.0000
  C   C15       1.0  0.01374  0.88067  0.20045  1.0000
  C   C16       1.0  0.98626  0.11933  0.79955  1.0000
  C   C17       1.0  0.15118  0.63535  0.44919  1.0000
  C   C18       1.0  0.84882  0.36465  0.55080  1.0000
  C   C19       1.0  0.27676  0.56876  0.34934  1.0000
  C   C20       1.0  0.72325  0.43124  0.65065  1.0000
  C   C21       1.0  0.37827  0.44592  0.36935  1.0000
  C   C22       1.0  0.62173  0.55409  0.63064  1.0000
  C   C23       1.0  0.35515  0.39166  0.48913  1.0000
  C   C24       1.0  0.64486  0.60834  0.51087  1.0000
  C   C25       1.0  0.22680  0.45912  0.58837  1.0000
  C   C26       1.0  0.77320  0.54089  0.41163  1.0000
  C   C27       1.0  0.12310  0.58146  0.56880  1.0000
  C   C28       1.0  0.87691  0.41854  0.43120  1.0000
  C   C29       1.0  0.50212  0.37737  0.25922  1.0000
  C   C30       1.0  0.49789  0.62263  0.74077  1.0000
  C   C31       1.0  0.20042  0.39525  0.71383  1.0000
  C   C32       1.0  0.79958  0.60476  0.28617  1.0000
  O   O1        1.0  0.24639  0.21859  0.14015  1.0000
  O   O2        1.0  0.75360  0.78142  0.85986  1.0000
  O   O3        1.0  0.10670  0.07846  0.07246  1.0000
  O   O4        1.0  0.89329  0.92154  0.92754  1.0000
  O   O5        1.0  0.83766  0.91934  0.20694  1.0000
  O   O6        1.0  0.16234  0.08065  0.79306  1.0000
  O   O7        1.0  0.11212  0.79208  0.12465  1.0000
  O   O8        1.0  0.88789  0.20793  0.87534  1.0000
  O   O9        1.0  0.03974  0.75162  0.42478  1.0000
  O   O10       1.0  0.96026  0.24838  0.57521  1.0000
  O   O11       1.0  0.51005  0.42058  0.15134  1.0000
  O   O12       1.0  0.48996  0.57942  0.84866  1.0000
  O   O13       1.0  0.60797  0.26443  0.28152  1.0000
  O   O14       1.0  0.39202  0.73557  0.71849  1.0000
  O   O15       1.0  0.05803  0.43875  0.80092  1.0000
  O   O16       1.0  0.94198  0.56125  0.19908  1.0000
  O   O17       1.0  0.32124  0.29624  0.73121  1.0000
  O   O18       1.0  0.67875  0.70375  0.26878  1.0000
  O   O19       1.0  0.32310  0.40064  0.97091  1.0000
  O   O20       1.0  0.67690  0.59936  0.02909  1.0000
  O   O21       1.0  0.92671  0.36387  0.06907  1.0000
  O   O22       1.0  0.07329  0.63613  0.93093  1.0000
  O   O23       1.0  0.47829  0.12141  0.90112  1.0000
  O   O24       1.0  0.52170  0.87859  0.09889  1.0000
