data_image0
_chemical_formula_structural       Tb2H26C32O24
_chemical_formula_sum              "Tb2 H26 C32 O24"
_cell_length_a       7.18712
_cell_length_b       10.8661
_cell_length_c       11.1423
_cell_angle_alpha    85.7748
_cell_angle_beta     78.5684
_cell_angle_gamma    78.1918

_space_group_name_H-M_alt    "P 1"
_space_group_IT_number       1

loop_
  _space_group_symop_operation_xyz
  'x, y, z'

loop_
  _atom_site_type_symbol
  _atom_site_label
  _atom_site_symmetry_multiplicity
  _atom_site_fract_x
  _atom_site_fract_y
  _atom_site_fract_z
  _atom_site_occupancy
  Tb  Tb1       1.0  0.16957  0.74414  0.93477  1.0000
  Tb  Tb2       1.0  0.83043  0.25585  0.06522  1.0000
  H   H1        1.0  0.43216  0.79806  0.51116  1.0000
  H   H2        1.0  0.56786  0.20195  0.48883  1.0000
  H   H3        1.0  0.02736  0.13232  0.64251  1.0000
  H   H4        1.0  0.97263  0.86768  0.35748  1.0000
  H   H5        1.0  0.28293  0.11120  0.26029  1.0000
  H   H6        1.0  0.71708  0.88880  0.73970  1.0000
  H   H7        1.0  0.31271  0.66758  0.35923  1.0000
  H   H8        1.0  0.68732  0.33241  0.64075  1.0000
  H   H9        1.0  0.33558  0.53514  0.55138  1.0000
  H   H10       1.0  0.66445  0.46484  0.44861  1.0000
  H   H11       1.0  0.22239  0.33209  0.57466  1.0000
  H   H12       1.0  0.77761  0.66790  0.42533  1.0000
  H   H13       1.0  0.66826  0.73314  0.20719  1.0000
  H   H14       1.0  0.33176  0.26687  0.79281  1.0000
  H   H15       1.0  0.62097  0.66404  0.91115  1.0000
  H   H16       1.0  0.37903  0.33598  0.08883  1.0000
  H   H17       1.0  0.52889  0.54788  0.89768  1.0000
  H   H18       1.0  0.47110  0.45208  0.10249  1.0000
  H   H19       1.0  0.42778  0.94033  0.90828  1.0000
  H   H20       1.0  0.57222  0.05967  0.09171  1.0000
  H   H21       1.0  0.39439  0.89141  0.04721  1.0000
  H   H22       1.0  0.60563  0.10858  0.95278  1.0000
  H   H23       1.0  0.82546  0.93533  0.02543  1.0000
  H   H24       1.0  0.17454  0.06467  0.97456  1.0000
  H   H25       1.0  0.95052  0.92372  0.12462  1.0000
  H   H26       1.0  0.04948  0.07628  0.87538  1.0000
  C   C1        1.0  0.49099  0.87970  0.26566  1.0000
  C   C2        1.0  0.50901  0.12031  0.73434  1.0000
  C   C3        1.0  0.37374  0.94648  0.37352  1.0000
  C   C4        1.0  0.62625  0.05352  0.62648  1.0000
  C   C5        1.0  0.35520  0.89245  0.49220  1.0000
  C   C6        1.0  0.64480  0.10755  0.50780  1.0000
  C   C7        1.0  0.12809  0.08120  0.56778  1.0000
  C   C8        1.0  0.87191  0.91880  0.43221  1.0000
  C   C9        1.0  0.15238  0.13468  0.44919  1.0000
  C   C10       1.0  0.84761  0.86532  0.55081  1.0000
  C   C11       1.0  0.27330  0.06851  0.35213  1.0000
  C   C12       1.0  0.72670  0.93149  0.64786  1.0000
  C   C13       1.0  0.21057  0.89715  0.71390  1.0000
  C   C14       1.0  0.78945  0.10284  0.28609  1.0000
  C   C15       1.0  0.12926  0.35439  0.40137  1.0000
  C   C16       1.0  0.87073  0.64561  0.59863  1.0000
  C   C17       1.0  0.11333  0.42735  0.29371  1.0000
  C   C18       1.0  0.88665  0.57266  0.70629  1.0000
  C   C19       1.0  0.18193  0.54124  0.27972  1.0000
  C   C20       1.0  0.81806  0.45876  0.72027  1.0000
  C   C21       1.0  0.26334  0.57870  0.37180  1.0000
  C   C22       1.0  0.73667  0.42130  0.62819  1.0000
  C   C23       1.0  0.27926  0.50388  0.47753  1.0000
  C   C24       1.0  0.72075  0.49611  0.52247  1.0000
  C   C25       1.0  0.21411  0.39066  0.49173  1.0000
  C   C26       1.0  0.78588  0.60934  0.50826  1.0000
  C   C27       1.0  0.17089  0.62168  0.16566  1.0000
  C   C28       1.0  0.82909  0.37832  0.83434  1.0000
  C   C29       1.0  0.02348  0.37984  0.19941  1.0000
  C   C30       1.0  0.97651  0.62016  0.80059  1.0000
  C   C31       1.0  0.23175  0.95979  0.58895  1.0000
  C   C32       1.0  0.76824  0.04021  0.41105  1.0000
  O   O1        1.0  0.33753  0.80180  0.73373  1.0000
  O   O2        1.0  0.66248  0.19821  0.26625  1.0000
  O   O3        1.0  0.06519  0.93853  0.79818  1.0000
  O   O4        1.0  0.93483  0.06145  0.20183  1.0000
  O   O5        1.0  0.59475  0.76586  0.28644  1.0000
  O   O6        1.0  0.40525  0.23413  0.71356  1.0000
  O   O7        1.0  0.49590  0.92563  0.16002  1.0000
  O   O8        1.0  0.50412  0.07437  0.83999  1.0000
  O   O9        1.0  0.04057  0.24988  0.42238  1.0000
  O   O10       1.0  0.95942  0.75012  0.57761  1.0000
  O   O11       1.0  0.13142  0.29723  0.12528  1.0000
  O   O12       1.0  0.86858  0.70276  0.87473  1.0000
  O   O13       1.0  0.84268  0.41238  0.20251  1.0000
  O   O14       1.0  0.15731  0.58762  0.79747  1.0000
  O   O15       1.0  0.11456  0.57851  0.07764  1.0000
  O   O16       1.0  0.88541  0.42150  0.92236  1.0000
  O   O17       1.0  0.22169  0.72841  0.15488  1.0000
  O   O18       1.0  0.77830  0.27159  0.84511  1.0000
  O   O19       1.0  0.49831  0.63121  0.93172  1.0000
  O   O20       1.0  0.50167  0.36883  0.06828  1.0000
  O   O21       1.0  0.33930  0.90092  0.97153  1.0000
  O   O22       1.0  0.66071  0.09909  0.02847  1.0000
  O   O23       1.0  0.91687  0.87269  0.06427  1.0000
  O   O24       1.0  0.08314  0.12731  0.93572  1.0000
