data_image0
_chemical_formula_structural       Tm2H26C32O24
_chemical_formula_sum              "Tm2 H26 C32 O24"
_cell_length_a       7.90035
_cell_length_b       10.5669
_cell_length_c       11.0231
_cell_angle_alpha    87.3262
_cell_angle_beta     77.6241
_cell_angle_gamma    69.3982

_space_group_name_H-M_alt    "P 1"
_space_group_IT_number       1

loop_
  _space_group_symop_operation_xyz
  'x, y, z'

loop_
  _atom_site_type_symbol
  _atom_site_label
  _atom_site_symmetry_multiplicity
  _atom_site_fract_x
  _atom_site_fract_y
  _atom_site_fract_z
  _atom_site_occupancy
  Tm  Tm1       1.0  0.16851  0.73382  0.93444  1.0000
  Tm  Tm2       1.0  0.83153  0.26618  0.06555  1.0000
  H   H1        1.0  0.44081  0.74146  0.50519  1.0000
  H   H2        1.0  0.55919  0.25855  0.49480  1.0000
  H   H3        1.0  0.03090  0.12909  0.63036  1.0000
  H   H4        1.0  0.96907  0.87091  0.36965  1.0000
  H   H5        1.0  0.31153  0.06413  0.24522  1.0000
  H   H6        1.0  0.68845  0.93591  0.75479  1.0000
  H   H7        1.0  0.23204  0.30066  0.55667  1.0000
  H   H8        1.0  0.76793  0.69936  0.44334  1.0000
  H   H9        1.0  0.33741  0.49741  0.53364  1.0000
  H   H10       1.0  0.66258  0.50260  0.46637  1.0000
  H   H11       1.0  0.29517  0.64158  0.34802  1.0000
  H   H12       1.0  0.70486  0.35842  0.65198  1.0000
  H   H13       1.0  0.70631  0.59989  0.23811  1.0000
  H   H14       1.0  0.29366  0.40013  0.76190  1.0000
  H   H15       1.0  0.79751  0.83834  0.09305  1.0000
  H   H16       1.0  0.20255  0.16165  0.90695  1.0000
  H   H17       1.0  0.90806  0.92928  0.13362  1.0000
  H   H18       1.0  0.09197  0.07074  0.86639  1.0000
  H   H19       1.0  0.25475  0.97260  0.98000  1.0000
  H   H20       1.0  0.74527  0.02741  0.02001  1.0000
  H   H21       1.0  0.40044  0.85392  0.03881  1.0000
  H   H22       1.0  0.59961  0.14607  0.96117  1.0000
  H   H23       1.0  0.52245  0.59690  0.81012  1.0000
  H   H24       1.0  0.47743  0.40283  0.18970  1.0000
  H   H25       1.0  0.50796  0.47951  0.89797  1.0000
  H   H26       1.0  0.49196  0.52046  0.10219  1.0000
  C   C1        1.0  0.53097  0.79872  0.26055  1.0000
  C   C2        1.0  0.46902  0.20131  0.73946  1.0000
  C   C3        1.0  0.39462  0.89149  0.36320  1.0000
  C   C4        1.0  0.60537  0.10853  0.63680  1.0000
  C   C5        1.0  0.36618  0.84497  0.48445  1.0000
  C   C6        1.0  0.63381  0.15505  0.51555  1.0000
  C   C7        1.0  0.23978  0.92994  0.58157  1.0000
  C   C8        1.0  0.76021  0.07007  0.41843  1.0000
  C   C9        1.0  0.13634  0.06297  0.55705  1.0000
  C   C10       1.0  0.86364  0.93703  0.44296  1.0000
  C   C11       1.0  0.16506  0.10855  0.43595  1.0000
  C   C12       1.0  0.83491  0.89146  0.56406  1.0000
  C   C13       1.0  0.29431  0.02535  0.33877  1.0000
  C   C14       1.0  0.70567  0.97467  0.66125  1.0000
  C   C15       1.0  0.21423  0.87293  0.70846  1.0000
  C   C16       1.0  0.78577  0.12707  0.29154  1.0000
  C   C17       1.0  0.12238  0.33921  0.39116  1.0000
  C   C18       1.0  0.87761  0.66081  0.60885  1.0000
  C   C19       1.0  0.21219  0.36528  0.47753  1.0000
  C   C20       1.0  0.78780  0.63473  0.52247  1.0000
  C   C21       1.0  0.27172  0.47545  0.46387  1.0000
  C   C22       1.0  0.72828  0.52457  0.53613  1.0000
  C   C23       1.0  0.24494  0.55743  0.36227  1.0000
  C   C24       1.0  0.75508  0.44257  0.63772  1.0000
  C   C25       1.0  0.15613  0.53070  0.27444  1.0000
  C   C26       1.0  0.84388  0.46931  0.72556  1.0000
  C   C27       1.0  0.09047  0.42203  0.28925  1.0000
  C   C28       1.0  0.90951  0.57799  0.71076  1.0000
  C   C29       1.0  0.99621  0.38439  0.19976  1.0000
  C   C30       1.0  0.00377  0.61563  0.80025  1.0000
  C   C31       1.0  0.15599  0.60702  0.15722  1.0000
  C   C32       1.0  0.84405  0.39298  0.84277  1.0000
  O   O1        1.0  0.56846  0.83565  0.15228  1.0000
  O   O2        1.0  0.43156  0.16437  0.84773  1.0000
  O   O3        1.0  0.60835  0.67557  0.29877  1.0000
  O   O4        1.0  0.39163  0.32445  0.70123  1.0000
  O   O5        1.0  0.31734  0.75321  0.72567  1.0000
  O   O6        1.0  0.68264  0.24678  0.27431  1.0000
  O   O7        1.0  0.08726  0.94237  0.79847  1.0000
  O   O8        1.0  0.91277  0.05764  0.20154  1.0000
  O   O9        1.0  0.05039  0.23589  0.40863  1.0000
  O   O10       1.0  0.94958  0.76413  0.59139  1.0000
  O   O11       1.0  0.82958  0.45446  0.19218  1.0000
  O   O12       1.0  0.17040  0.54554  0.80783  1.0000
  O   O13       1.0  0.08054  0.27232  0.13994  1.0000
  O   O14       1.0  0.91948  0.72770  0.86005  1.0000
  O   O15       1.0  0.07802  0.58500  0.07498  1.0000
  O   O16       1.0  0.92192  0.41506  0.92506  1.0000
  O   O17       1.0  0.24556  0.68935  0.13718  1.0000
  O   O18       1.0  0.75465  0.31053  0.86276  1.0000
  O   O19       1.0  0.89911  0.87438  0.06428  1.0000
  O   O20       1.0  0.10095  0.12561  0.93573  1.0000
  O   O21       1.0  0.32452  0.87403  0.97565  1.0000
  O   O22       1.0  0.67549  0.12598  0.02436  1.0000
  O   O23       1.0  0.46983  0.57842  0.89495  1.0000
  O   O24       1.0  0.53015  0.42153  0.10497  1.0000
