data_image0
_chemical_formula_structural       Er2H28C30O20
_chemical_formula_sum              "Er2 H28 C30 O20"
_cell_length_a       6.07967
_cell_length_b       10.5729
_cell_length_c       13.3898
_cell_angle_alpha    112.137
_cell_angle_beta     96.8635
_cell_angle_gamma    97.883

_space_group_name_H-M_alt    "P 1"
_space_group_IT_number       1

loop_
  _space_group_symop_operation_xyz
  'x, y, z'

loop_
  _atom_site_type_symbol
  _atom_site_label
  _atom_site_symmetry_multiplicity
  _atom_site_fract_x
  _atom_site_fract_y
  _atom_site_fract_z
  _atom_site_occupancy
  Er  Er1       1.0  0.41547  0.36990  0.28997  1.0000
  Er  Er2       1.0  0.58452  0.63010  0.71003  1.0000
  H   H1        1.0  0.57663  0.88634  0.57555  1.0000
  H   H2        1.0  0.42337  0.11367  0.42445  1.0000
  H   H3        1.0  0.86241  0.88237  0.56340  1.0000
  H   H4        1.0  0.13759  0.11763  0.43660  1.0000
  H   H5        1.0  0.63671  0.00414  0.29560  1.0000
  H   H6        1.0  0.36328  0.99585  0.70439  1.0000
  H   H7        1.0  0.89129  0.99634  0.16551  1.0000
  H   H8        1.0  0.10870  0.00366  0.83449  1.0000
  H   H9        1.0  0.26950  0.75236  0.29032  1.0000
  H   H10       1.0  0.73050  0.24764  0.70968  1.0000
  H   H11       1.0  0.01412  0.75893  0.41967  1.0000
  H   H12       1.0  0.98589  0.24107  0.58033  1.0000
  H   H13       1.0  0.07399  0.91530  0.02808  1.0000
  H   H14       1.0  0.92602  0.08470  0.97192  1.0000
  H   H15       1.0  0.36478  0.90802  0.02857  1.0000
  H   H16       1.0  0.63522  0.09199  0.97143  1.0000
  H   H17       1.0  0.95969  0.36213  0.04330  1.0000
  H   H18       1.0  0.04032  0.63785  0.95670  1.0000
  H   H19       1.0  0.97062  0.54164  0.12585  1.0000
  H   H20       1.0  0.02937  0.45834  0.87414  1.0000
  H   H21       1.0  0.51456  0.70175  0.17525  1.0000
  H   H22       1.0  0.48544  0.29825  0.82475  1.0000
  H   H23       1.0  0.27212  0.26847  0.96497  1.0000
  H   H24       1.0  0.72788  0.73153  0.03503  1.0000
  H   H25       1.0  0.87583  0.38312  0.37875  1.0000
  H   H26       1.0  0.12417  0.61689  0.62125  1.0000
  H   H27       1.0  0.75831  0.47353  0.47597  1.0000
  H   H28       1.0  0.24169  0.52647  0.52403  1.0000
  C   C1        1.0  0.63355  0.68532  0.48208  1.0000
  C   C2        1.0  0.36646  0.31468  0.51792  1.0000
  C   C3        1.0  0.68720  0.84235  0.51768  1.0000
  C   C4        1.0  0.31280  0.15765  0.48232  1.0000
  C   C5        1.0  0.80315  0.88028  0.36513  1.0000
  C   C6        1.0  0.19685  0.11971  0.63487  1.0000
  C   C7        1.0  0.77425  0.94774  0.29388  1.0000
  C   C8        1.0  0.22575  0.05225  0.70612  1.0000
  C   C9        1.0  0.91900  0.94250  0.21972  1.0000
  C   C10       1.0  0.08100  0.05750  0.78028  1.0000
  C   C11       1.0  0.09528  0.86942  0.21649  1.0000
  C   C12       1.0  0.90472  0.13058  0.78351  1.0000
  C   C13       1.0  0.12766  0.80485  0.28952  1.0000
  C   C14       1.0  0.87235  0.19515  0.71048  1.0000
  C   C15       1.0  0.98256  0.80970  0.36354  1.0000
  C   C16       1.0  0.01745  0.19030  0.63645  1.0000
  C   C17       1.0  0.23933  0.93775  0.08172  1.0000
  C   C18       1.0  0.76067  0.06225  0.91828  1.0000
  C   C19       1.0  0.30731  0.09352  0.15248  1.0000
  C   C20       1.0  0.69268  0.90648  0.84752  1.0000
  C   C21       1.0  0.91214  0.40558  0.20821  1.0000
  C   C22       1.0  0.08785  0.59441  0.79179  1.0000
  C   C23       1.0  0.02080  0.44537  0.12585  1.0000
  C   C24       1.0  0.97920  0.55462  0.87415  1.0000
  C   C25       1.0  0.37926  0.48413  0.07636  1.0000
  C   C26       1.0  0.62073  0.51586  0.92365  1.0000
  C   C27       1.0  0.50898  0.61393  0.09874  1.0000
  C   C28       1.0  0.49102  0.38607  0.90127  1.0000
  C   C29       1.0  0.36930  0.36992  0.97895  1.0000
  C   C30       1.0  0.63070  0.63008  0.02106  1.0000
  O   O1        1.0  0.53172  0.60687  0.38584  1.0000
  O   O2        1.0  0.46828  0.39313  0.61416  1.0000
  O   O3        1.0  0.69951  0.64085  0.55561  1.0000
  O   O4        1.0  0.30049  0.35915  0.44439  1.0000
  O   O5        1.0  0.64653  0.88938  0.43240  1.0000
  O   O6        1.0  0.35347  0.11062  0.56760  1.0000
  O   O7        1.0  0.43161  0.13692  0.24722  1.0000
  O   O8        1.0  0.56839  0.86308  0.75278  1.0000
  O   O9        1.0  0.23929  0.17880  0.11509  1.0000
  O   O10       1.0  0.76070  0.82120  0.88491  1.0000
  O   O11       1.0  0.24308  0.85421  0.14364  1.0000
  O   O12       1.0  0.75692  0.14579  0.85636  1.0000
  O   O13       1.0  0.04157  0.39277  0.28491  1.0000
  O   O14       1.0  0.95842  0.60723  0.71509  1.0000
  O   O15       1.0  0.69971  0.38775  0.19682  1.0000
  O   O16       1.0  0.30028  0.61225  0.80318  1.0000
  O   O17       1.0  0.26258  0.46817  0.15682  1.0000
  O   O18       1.0  0.73741  0.53183  0.84318  1.0000
  O   O19       1.0  0.74109  0.38189  0.41420  1.0000
  O   O20       1.0  0.25890  0.61812  0.58580  1.0000
