data_image0
_chemical_formula_structural       Sm4H28C24O32
_chemical_formula_sum              "Sm4 H28 C24 O32"
_cell_length_a       6.19639
_cell_length_b       10.1801
_cell_length_c       15.4758
_cell_angle_alpha    103.303
_cell_angle_beta     90.0013
_cell_angle_gamma    107.724

_space_group_name_H-M_alt    "P 1"
_space_group_IT_number       1

loop_
  _space_group_symop_operation_xyz
  'x, y, z'

loop_
  _atom_site_type_symbol
  _atom_site_label
  _atom_site_symmetry_multiplicity
  _atom_site_fract_x
  _atom_site_fract_y
  _atom_site_fract_z
  _atom_site_occupancy
  Sm  Sm1       1.0  0.53330  0.18583  0.70314  1.0000
  Sm  Sm2       1.0  0.34766  0.81392  0.79679  1.0000
  Sm  Sm3       1.0  0.46670  0.81417  0.29686  1.0000
  Sm  Sm4       1.0  0.65234  0.18608  0.20321  1.0000
  H   H1        1.0  0.77439  0.04910  0.54468  1.0000
  H   H2        1.0  0.72553  0.95089  0.95519  1.0000
  H   H3        1.0  0.22561  0.95090  0.45532  1.0000
  H   H4        1.0  0.27447  0.04911  0.04480  1.0000
  H   H5        1.0  0.93934  0.12372  0.63792  1.0000
  H   H6        1.0  0.81590  0.87620  0.86197  1.0000
  H   H7        1.0  0.06066  0.87628  0.36208  1.0000
  H   H8        1.0  0.18410  0.12380  0.13803  1.0000
  H   H9        1.0  0.36750  0.28833  0.99287  1.0000
  H   H10       1.0  0.07885  0.71168  0.50703  1.0000
  H   H11       1.0  0.63250  0.71167  0.00713  1.0000
  H   H12       1.0  0.92115  0.28832  0.49297  1.0000
  H   H13       1.0  0.07916  0.19766  0.96013  1.0000
  H   H14       1.0  0.88131  0.80230  0.54007  1.0000
  H   H15       1.0  0.92084  0.80233  0.03987  1.0000
  H   H16       1.0  0.11869  0.19770  0.45993  1.0000
  H   H17       1.0  0.29566  0.49860  0.98731  1.0000
  H   H18       1.0  0.79722  0.50113  0.51256  1.0000
  H   H19       1.0  0.70434  0.50140  0.01269  1.0000
  H   H20       1.0  0.20279  0.49887  0.48744  1.0000
  H   H21       1.0  0.01672  0.42290  0.93685  1.0000
  H   H22       1.0  0.59399  0.57682  0.56302  1.0000
  H   H23       1.0  0.98328  0.57710  0.06315  1.0000
  H   H24       1.0  0.40601  0.42318  0.43698  1.0000
  H   H25       1.0  0.48082  0.45383  0.81831  1.0000
  H   H26       1.0  0.02710  0.54590  0.68162  1.0000
  H   H27       1.0  0.51918  0.54617  0.18169  1.0000
  H   H28       1.0  0.97290  0.45410  0.31838  1.0000
  C   C1        1.0  0.31057  0.09302  0.89767  1.0000
  C   C2        1.0  0.21762  0.90669  0.60237  1.0000
  C   C3        1.0  0.68942  0.90697  0.10233  1.0000
  C   C4        1.0  0.78238  0.09331  0.39763  1.0000
  C   C5        1.0  0.19560  0.45525  0.92249  1.0000
  C   C6        1.0  0.74046  0.54441  0.57738  1.0000
  C   C7        1.0  0.80440  0.54475  0.07751  1.0000
  C   C8        1.0  0.25954  0.45558  0.42261  1.0000
  C   C9        1.0  0.07451  0.24260  0.79053  1.0000
  C   C10       1.0  0.83194  0.75696  0.70939  1.0000
  C   C11       1.0  0.92549  0.75739  0.20947  1.0000
  C   C12       1.0  0.16806  0.24304  0.29061  1.0000
  C   C13       1.0  0.23786  0.57478  0.87540  1.0000
  C   C14       1.0  0.66304  0.42484  0.62443  1.0000
  C   C15       1.0  0.76213  0.42522  0.12460  1.0000
  C   C16       1.0  0.33697  0.57517  0.37557  1.0000
  C   C17       1.0  0.25289  0.32368  0.87093  1.0000
  C   C18       1.0  0.92928  0.67596  0.62899  1.0000
  C   C19       1.0  0.74711  0.67632  0.12907  1.0000
  C   C20       1.0  0.07072  0.32405  0.37101  1.0000
  C   C21       1.0  0.24822  0.22682  0.93442  1.0000
  C   C22       1.0  0.02126  0.77301  0.56560  1.0000
  C   C23       1.0  0.75178  0.77318  0.06558  1.0000
  C   C24       1.0  0.97874  0.22699  0.43440  1.0000
  O   O1        1.0  0.47610  0.36499  0.83815  1.0000
  O   O2        1.0  0.11123  0.63467  0.66174  1.0000
  O   O3        1.0  0.52390  0.63501  0.16185  1.0000
  O   O4        1.0  0.88877  0.36533  0.33826  1.0000
  O   O5        1.0  0.25727  0.99152  0.93648  1.0000
  O   O6        1.0  0.26557  0.00838  0.56370  1.0000
  O   O7        1.0  0.74273  0.00848  0.06352  1.0000
  O   O8        1.0  0.73443  0.99162  0.43630  1.0000
  O   O9        1.0  0.14918  0.18760  0.71861  1.0000
  O   O10       1.0  0.96184  0.81224  0.78126  1.0000
  O   O11       1.0  0.85082  0.81240  0.28139  1.0000
  O   O12       1.0  0.03816  0.18776  0.21874  1.0000
  O   O13       1.0  0.86961  0.23413  0.80044  1.0000
  O   O14       1.0  0.63542  0.76529  0.69952  1.0000
  O   O15       1.0  0.13039  0.76587  0.19956  1.0000
  O   O16       1.0  0.36458  0.23471  0.30048  1.0000
  O   O17       1.0  0.78323  0.09846  0.60902  1.0000
  O   O18       1.0  0.68507  0.90152  0.89084  1.0000
  O   O19       1.0  0.21677  0.90154  0.39098  1.0000
  O   O20       1.0  0.31493  0.09847  0.10916  1.0000
  O   O21       1.0  0.36766  0.57632  0.80986  1.0000
  O   O22       1.0  0.79106  0.42335  0.69008  1.0000
  O   O23       1.0  0.63234  0.42368  0.19014  1.0000
  O   O24       1.0  0.20895  0.57665  0.30993  1.0000
  O   O25       1.0  0.41651  0.07999  0.82693  1.0000
  O   O26       1.0  0.33701  0.91953  0.67296  1.0000
  O   O27       1.0  0.58349  0.92000  0.17307  1.0000
  O   O28       1.0  0.66299  0.08047  0.32704  1.0000
  O   O29       1.0  0.15283  0.67405  0.90190  1.0000
  O   O30       1.0  0.47882  0.32552  0.59782  1.0000
  O   O31       1.0  0.84717  0.32595  0.09810  1.0000
  O   O32       1.0  0.52118  0.67448  0.40218  1.0000
