data_image0
_chemical_formula_structural       Zn4H32C32Br8N4O8
_chemical_formula_sum              "Zn4 H32 C32 Br8 N4 O8"
_cell_length_a       6.68402
_cell_length_b       12.6244
_cell_length_c       13.4142
_cell_angle_alpha    78.5074
_cell_angle_beta     87.1574
_cell_angle_gamma    86.4864

_space_group_name_H-M_alt    "P 1"
_space_group_IT_number       1

loop_
  _space_group_symop_operation_xyz
  'x, y, z'

loop_
  _atom_site_type_symbol
  _atom_site_label
  _atom_site_symmetry_multiplicity
  _atom_site_fract_x
  _atom_site_fract_y
  _atom_site_fract_z
  _atom_site_occupancy
  Zn  Zn1       1.0  0.23328  0.37944  0.28207  1.0000
  Zn  Zn2       1.0  0.76672  0.62056  0.71793  1.0000
  Zn  Zn3       1.0  0.32883  0.10399  0.27418  1.0000
  Zn  Zn4       1.0  0.67117  0.89601  0.72582  1.0000
  H   H1        1.0  0.01459  0.39403  0.51948  1.0000
  H   H2        1.0  0.98541  0.60598  0.48053  1.0000
  H   H3        1.0  0.80456  0.11807  0.70898  1.0000
  H   H4        1.0  0.19543  0.88194  0.29101  1.0000
  H   H5        1.0  0.84712  0.35289  0.02673  1.0000
  H   H6        1.0  0.15290  0.64710  0.97328  1.0000
  H   H7        1.0  0.93177  0.21876  0.01548  1.0000
  H   H8        1.0  0.06823  0.78122  0.98452  1.0000
  H   H9        1.0  0.60510  0.43860  0.93209  1.0000
  H   H10       1.0  0.39492  0.56140  0.06792  1.0000
  H   H11       1.0  0.42135  0.09474  0.84967  1.0000
  H   H12       1.0  0.57864  0.90526  0.15033  1.0000
  H   H13       1.0  0.68389  0.10289  0.97200  1.0000
  H   H14       1.0  0.31611  0.89710  0.02799  1.0000
  H   H15       1.0  0.27622  0.41165  0.64119  1.0000
  H   H16       1.0  0.72377  0.58836  0.35882  1.0000
  H   H17       1.0  0.33802  0.44426  0.80884  1.0000
  H   H18       1.0  0.66200  0.55574  0.19116  1.0000
  H   H19       1.0  0.66931  0.14264  0.14824  1.0000
  H   H20       1.0  0.33068  0.85735  0.85177  1.0000
  H   H21       1.0  0.84240  0.21963  0.19265  1.0000
  H   H22       1.0  0.15760  0.78036  0.80735  1.0000
  H   H23       1.0  0.73307  0.32245  0.48413  1.0000
  H   H24       1.0  0.26694  0.67755  0.51587  1.0000
  H   H25       1.0  0.61502  0.22189  0.57722  1.0000
  H   H26       1.0  0.38497  0.77812  0.42278  1.0000
  H   H27       1.0  0.06170  0.11995  0.83577  1.0000
  H   H28       1.0  0.93829  0.88006  0.16423  1.0000
  H   H29       1.0  0.86677  0.07828  0.53061  1.0000
  H   H30       1.0  0.13322  0.92172  0.46939  1.0000
  H   H31       1.0  0.70530  0.13669  0.43449  1.0000
  H   H32       1.0  0.29470  0.86332  0.56551  1.0000
  C   C1        1.0  0.02878  0.33835  0.59199  1.0000
  C   C2        1.0  0.97121  0.66165  0.40801  1.0000
  C   C3        1.0  0.55351  0.29941  0.17446  1.0000
  C   C4        1.0  0.44650  0.70059  0.82554  1.0000
  C   C5        1.0  0.91306  0.18075  0.69841  1.0000
  C   C6        1.0  0.08693  0.81926  0.30159  1.0000
  C   C7        1.0  0.80147  0.26983  0.03341  1.0000
  C   C8        1.0  0.19854  0.73015  0.96659  1.0000
  C   C9        1.0  0.55727  0.36536  0.91165  1.0000
  C   C10       1.0  0.44274  0.63463  0.08835  1.0000
  C   C11       1.0  0.45247  0.17236  0.86769  1.0000
  C   C12       1.0  0.54752  0.82764  0.13231  1.0000
  C   C13       1.0  0.35264  0.26909  0.82040  1.0000
  C   C14       1.0  0.64736  0.73091  0.17960  1.0000
  C   C15       1.0  0.60041  0.17557  0.93495  1.0000
  C   C16       1.0  0.39959  0.82443  0.06505  1.0000
  C   C17       1.0  0.17339  0.34611  0.66031  1.0000
  C   C18       1.0  0.82660  0.65389  0.33970  1.0000
  C   C19       1.0  0.41047  0.36663  0.84206  1.0000
  C   C20       1.0  0.58953  0.63337  0.15794  1.0000
  C   C21       1.0  0.71858  0.22547  0.14032  1.0000
  C   C22       1.0  0.28143  0.77452  0.85968  1.0000
  C   C23       1.0  0.19222  0.26700  0.74927  1.0000
  C   C24       1.0  0.80777  0.73300  0.25073  1.0000
  C   C25       1.0  0.75630  0.24387  0.53519  1.0000
  C   C26       1.0  0.24370  0.75614  0.46480  1.0000
  C   C27       1.0  0.05700  0.18366  0.76784  1.0000
  C   C28       1.0  0.94299  0.81634  0.23217  1.0000
  C   C29       1.0  0.82952  0.15501  0.47833  1.0000
  C   C30       1.0  0.17048  0.84499  0.52167  1.0000
  C   C31       1.0  0.00535  0.18385  0.40399  1.0000
  C   C32       1.0  0.99465  0.81615  0.59602  1.0000
  Br  Br1       1.0  0.21044  0.07611  0.11458  1.0000
  Br  Br2       1.0  0.78954  0.92389  0.88543  1.0000
  Br  Br3       1.0  0.57902  0.97173  0.34269  1.0000
  Br  Br4       1.0  0.42095  0.02825  0.65731  1.0000
  Br  Br5       1.0  0.37801  0.47687  0.39199  1.0000
  Br  Br6       1.0  0.62197  0.52314  0.60800  1.0000
  Br  Br7       1.0  0.03014  0.47218  0.15068  1.0000
  Br  Br8       1.0  0.96991  0.52781  0.84929  1.0000
  N   N1        1.0  0.64931  0.27074  0.95668  1.0000
  N   N2        1.0  0.35070  0.72925  0.04332  1.0000
  N   N3        1.0  0.90269  0.25629  0.61131  1.0000
  N   N4        1.0  0.09731  0.74371  0.38869  1.0000
  O   O1        1.0  0.42793  0.25588  0.24894  1.0000
  O   O2        1.0  0.57207  0.74412  0.75106  1.0000
  O   O3        1.0  0.53933  0.39686  0.13684  1.0000
  O   O4        1.0  0.46069  0.60314  0.86316  1.0000
  O   O5        1.0  0.09629  0.10491  0.37094  1.0000
  O   O6        1.0  0.90372  0.89509  0.62907  1.0000
  O   O7        1.0  0.04552  0.28267  0.37941  1.0000
  O   O8        1.0  0.95447  0.71733  0.62058  1.0000
