data_image0
_chemical_formula_structural       Ag4H20C28N16
_chemical_formula_sum              "Ag4 H20 C28 N16"
_cell_length_a       6.27128
_cell_length_b       6.30067
_cell_length_c       19.2545
_cell_angle_alpha    89.9966
_cell_angle_beta     89.9974
_cell_angle_gamma    103.678

_space_group_name_H-M_alt    "P 1"
_space_group_IT_number       1

loop_
  _space_group_symop_operation_xyz
  'x, y, z'

loop_
  _atom_site_type_symbol
  _atom_site_label
  _atom_site_symmetry_multiplicity
  _atom_site_fract_x
  _atom_site_fract_y
  _atom_site_fract_z
  _atom_site_occupancy
  Ag  Ag1       1.0  0.16104  0.27320  0.97112  1.0000
  Ag  Ag2       1.0  0.33896  0.22679  0.47112  1.0000
  Ag  Ag3       1.0  0.83895  0.72682  0.02888  1.0000
  Ag  Ag4       1.0  0.66102  0.77320  0.52888  1.0000
  H   H1        1.0  0.84549  0.87598  0.87361  1.0000
  H   H2        1.0  0.65452  0.62406  0.37361  1.0000
  H   H3        1.0  0.15449  0.12407  0.12640  1.0000
  H   H4        1.0  0.34548  0.37592  0.62640  1.0000
  H   H5        1.0  0.13556  0.12985  0.80713  1.0000
  H   H6        1.0  0.36452  0.37017  0.30712  1.0000
  H   H7        1.0  0.86446  0.87012  0.19287  1.0000
  H   H8        1.0  0.63546  0.62984  0.69289  1.0000
  H   H9        1.0  0.08304  0.49535  0.77078  1.0000
  H   H10       1.0  0.41710  0.00473  0.27079  1.0000
  H   H11       1.0  0.91702  0.50465  0.22920  1.0000
  H   H12       1.0  0.58285  0.99527  0.72921  1.0000
  H   H13       1.0  0.73478  0.60006  0.80305  1.0000
  H   H14       1.0  0.76532  0.90000  0.30306  1.0000
  H   H15       1.0  0.26526  0.39997  0.19694  1.0000
  H   H16       1.0  0.23465  0.09998  0.69693  1.0000
  H   H17       1.0  0.44695  0.34693  0.86773  1.0000
  H   H18       1.0  0.05312  0.15311  0.36775  1.0000
  H   H19       1.0  0.55308  0.65311  0.13226  1.0000
  H   H20       1.0  0.94687  0.84689  0.63224  1.0000
  C   C1        1.0  0.45373  0.93454  0.91113  1.0000
  C   C2        1.0  0.04629  0.56553  0.41113  1.0000
  C   C3        1.0  0.54628  0.06553  0.08887  1.0000
  C   C4        1.0  0.95368  0.43448  0.58886  1.0000
  C   C5        1.0  0.62446  0.09157  0.87405  1.0000
  C   C6        1.0  0.87560  0.40846  0.37406  1.0000
  C   C7        1.0  0.37555  0.90845  0.12596  1.0000
  C   C8        1.0  0.12441  0.59151  0.62594  1.0000
  C   C9        1.0  0.82145  0.03391  0.85705  1.0000
  C   C10       1.0  0.67858  0.46610  0.35704  1.0000
  C   C11       1.0  0.17854  0.96611  0.14296  1.0000
  C   C12       1.0  0.32142  0.53387  0.64296  1.0000
  C   C13       1.0  0.98467  0.17816  0.81998  1.0000
  C   C14       1.0  0.51539  0.32185  0.31997  1.0000
  C   C15       1.0  0.01534  0.82182  0.18002  1.0000
  C   C16       1.0  0.48459  0.67812  0.68003  1.0000
  C   C17       1.0  0.95490  0.38245  0.79958  1.0000
  C   C18       1.0  0.54519  0.11759  0.29958  1.0000
  C   C19       1.0  0.04513  0.61754  0.20041  1.0000
  C   C20       1.0  0.45476  0.88238  0.70042  1.0000
  C   C21       1.0  0.76052  0.44084  0.81726  1.0000
  C   C22       1.0  0.73954  0.05921  0.31726  1.0000
  C   C23       1.0  0.23949  0.55918  0.18274  1.0000
  C   C24       1.0  0.26042  0.94076  0.68274  1.0000
  C   C25       1.0  0.59623  0.29692  0.85401  1.0000
  C   C26       1.0  0.90383  0.20311  0.35402  1.0000
  C   C27       1.0  0.40380  0.70310  0.14599  1.0000
  C   C28       1.0  0.09615  0.79685  0.64598  1.0000
  N   N1        1.0  0.27553  0.97497  0.94332  1.0000
  N   N2        1.0  0.22459  0.52512  0.44333  1.0000
  N   N3        1.0  0.72456  0.02512  0.05667  1.0000
  N   N4        1.0  0.77545  0.47490  0.55667  1.0000
  N   N5        1.0  0.16332  0.78119  0.96814  1.0000
  N   N6        1.0  0.33674  0.71878  0.46815  1.0000
  N   N7        1.0  0.83672  0.21884  0.03185  1.0000
  N   N8        1.0  0.66328  0.28117  0.53186  1.0000
  N   N9        1.0  0.27164  0.63101  0.95209  1.0000
  N   N10       1.0  0.22835  0.86892  0.45209  1.0000
  N   N11       1.0  0.72836  0.36898  0.04791  1.0000
  N   N12       1.0  0.77163  0.13101  0.54791  1.0000
  N   N13       1.0  0.45340  0.72122  0.91668  1.0000
  N   N14       1.0  0.04652  0.77878  0.41666  1.0000
  N   N15       1.0  0.54655  0.27881  0.08333  1.0000
  N   N16       1.0  0.95341  0.22120  0.58332  1.0000
