data_image0
_chemical_formula_structural       Ag4H20C28N16
_chemical_formula_sum              "Ag4 H20 C28 N16"
_cell_length_a       4.77246
_cell_length_b       14.2985
_cell_length_c       12.2211
_cell_angle_alpha    113.042
_cell_angle_beta     89.9948
_cell_angle_gamma    89.995

_space_group_name_H-M_alt    "P 1"
_space_group_IT_number       1

loop_
  _space_group_symop_operation_xyz
  'x, y, z'

loop_
  _atom_site_type_symbol
  _atom_site_label
  _atom_site_symmetry_multiplicity
  _atom_site_fract_x
  _atom_site_fract_y
  _atom_site_fract_z
  _atom_site_occupancy
  Ag  Ag1       1.0  0.90998  0.56215  0.16746  1.0000
  Ag  Ag2       1.0  0.41003  0.43789  0.33255  1.0000
  Ag  Ag3       1.0  0.09005  0.43786  0.83254  1.0000
  Ag  Ag4       1.0  0.58997  0.56211  0.66744  1.0000
  H   H1        1.0  0.80829  0.74476  0.77646  1.0000
  H   H2        1.0  0.30839  0.25520  0.72354  1.0000
  H   H3        1.0  0.19165  0.25524  0.22352  1.0000
  H   H4        1.0  0.69165  0.74480  0.27646  1.0000
  H   H5        1.0  0.00186  0.88804  0.94878  1.0000
  H   H6        1.0  0.50199  0.11191  0.55124  1.0000
  H   H7        1.0  0.99806  0.11196  0.05122  1.0000
  H   H8        1.0  0.49801  0.88809  0.44876  1.0000
  H   H9        1.0  0.40428  0.98822  0.92217  1.0000
  H   H10       1.0  0.90439  0.01170  0.57783  1.0000
  H   H11       1.0  0.59566  0.01178  0.07785  1.0000
  H   H12       1.0  0.09559  0.98829  0.42215  1.0000
  H   H13       1.0  0.62176  0.94018  0.72333  1.0000
  H   H14       1.0  0.12190  0.05976  0.77667  1.0000
  H   H15       1.0  0.37821  0.05982  0.27670  1.0000
  H   H16       1.0  0.87812  0.94023  0.22331  1.0000
  H   H17       1.0  0.42594  0.79635  0.54925  1.0000
  H   H18       1.0  0.92604  0.20364  0.95073  1.0000
  H   H19       1.0  0.57405  0.20367  0.45076  1.0000
  H   H20       1.0  0.07400  0.79635  0.04926  1.0000
  C   C1        1.0  0.98519  0.68328  0.54395  1.0000
  C   C2        1.0  0.48525  0.31671  0.95604  1.0000
  C   C3        1.0  0.01480  0.31673  0.45604  1.0000
  C   C4        1.0  0.51477  0.68328  0.04395  1.0000
  C   C5        1.0  0.10525  0.76109  0.65098  1.0000
  C   C6        1.0  0.60533  0.23889  0.84902  1.0000
  C   C7        1.0  0.89472  0.23892  0.34903  1.0000
  C   C8        1.0  0.39471  0.76111  0.15098  1.0000
  C   C9        1.0  0.98912  0.78628  0.76441  1.0000
  C   C10       1.0  0.48922  0.21368  0.73559  1.0000
  C   C11       1.0  0.01084  0.21371  0.23559  1.0000
  C   C12       1.0  0.51082  0.78633  0.26441  1.0000
  C   C13       1.0  0.09754  0.86738  0.86152  1.0000
  C   C14       1.0  0.59767  0.13256  0.63850  1.0000
  C   C15       1.0  0.90240  0.13262  0.13849  1.0000
  C   C16       1.0  0.40235  0.86744  0.36150  1.0000
  C   C17       1.0  0.32323  0.92330  0.84695  1.0000
  C   C18       1.0  0.82335  0.07663  0.65305  1.0000
  C   C19       1.0  0.67672  0.07669  0.15306  1.0000
  C   C20       1.0  0.17667  0.92337  0.34694  1.0000
  C   C21       1.0  0.44415  0.89717  0.73470  1.0000
  C   C22       1.0  0.94427  0.10277  0.76529  1.0000
  C   C23       1.0  0.55582  0.10283  0.26532  1.0000
  C   C24       1.0  0.05577  0.89722  0.23469  1.0000
  C   C25       1.0  0.33598  0.81690  0.63745  1.0000
  C   C26       1.0  0.83608  0.18307  0.86254  1.0000
  C   C27       1.0  0.66400  0.18311  0.36256  1.0000
  C   C28       1.0  0.16397  0.81692  0.13745  1.0000
  N   N1        1.0  0.04868  0.67777  0.43400  1.0000
  N   N2        1.0  0.54875  0.32224  0.06601  1.0000
  N   N3        1.0  0.95132  0.32224  0.56600  1.0000
  N   N4        1.0  0.45128  0.67776  0.93399  1.0000
  N   N5        1.0  0.89464  0.60133  0.36035  1.0000
  N   N6        1.0  0.39468  0.39870  0.13966  1.0000
  N   N7        1.0  0.10537  0.39868  0.63965  1.0000
  N   N8        1.0  0.60536  0.60130  0.86034  1.0000
  N   N9        1.0  0.74134  0.56049  0.42082  1.0000
  N   N10       1.0  0.24135  0.43953  0.07919  1.0000
  N   N11       1.0  0.25867  0.43951  0.57919  1.0000
  N   N12       1.0  0.75868  0.56047  0.92080  1.0000
  N   N13       1.0  0.79502  0.61090  0.53718  1.0000
  N   N14       1.0  0.29504  0.38910  0.96283  1.0000
  N   N15       1.0  0.20498  0.38911  0.46282  1.0000
  N   N16       1.0  0.70498  0.61089  0.03717  1.0000
