data_image0
_chemical_formula_structural       Cu4H32C16S4Cl4O4
_chemical_formula_sum              "Cu4 H32 C16 S4 Cl4 O4"
_cell_length_a       6.3007
_cell_length_b       9.45312
_cell_length_c       11.3229
_cell_angle_alpha    104.48
_cell_angle_beta     90
_cell_angle_gamma    90.0001

_space_group_name_H-M_alt    "P 1"
_space_group_IT_number       1

loop_
  _space_group_symop_operation_xyz
  'x, y, z'

loop_
  _atom_site_type_symbol
  _atom_site_label
  _atom_site_symmetry_multiplicity
  _atom_site_fract_x
  _atom_site_fract_y
  _atom_site_fract_z
  _atom_site_occupancy
  Cu  Cu1       1.0  0.43910  0.01081  0.14062  1.0000
  Cu  Cu2       1.0  0.93910  0.98919  0.35938  1.0000
  Cu  Cu3       1.0  0.56090  0.98919  0.85937  1.0000
  Cu  Cu4       1.0  0.06090  0.01081  0.64063  1.0000
  H   H1        1.0  0.74274  0.76278  0.01202  1.0000
  H   H2        1.0  0.24274  0.23722  0.48798  1.0000
  H   H3        1.0  0.25726  0.23722  0.98798  1.0000
  H   H4        1.0  0.75726  0.76278  0.51202  1.0000
  H   H5        1.0  0.95243  0.89057  0.06511  1.0000
  H   H6        1.0  0.45243  0.10944  0.43489  1.0000
  H   H7        1.0  0.04757  0.10943  0.93489  1.0000
  H   H8        1.0  0.54757  0.89057  0.56511  1.0000
  H   H9        1.0  0.08850  0.63408  0.02878  1.0000
  H   H10       1.0  0.58850  0.36593  0.47122  1.0000
  H   H11       1.0  0.91149  0.36592  0.97122  1.0000
  H   H12       1.0  0.41149  0.63408  0.52878  1.0000
  H   H13       1.0  0.10373  0.72837  0.18722  1.0000
  H   H14       1.0  0.60373  0.27163  0.31278  1.0000
  H   H15       1.0  0.89627  0.27163  0.81278  1.0000
  H   H16       1.0  0.39627  0.72837  0.68722  1.0000
  H   H17       1.0  0.86372  0.65170  0.32373  1.0000
  H   H18       1.0  0.36372  0.34830  0.17627  1.0000
  H   H19       1.0  0.13628  0.34830  0.67627  1.0000
  H   H20       1.0  0.63628  0.65170  0.82373  1.0000
  H   H21       1.0  0.67896  0.50901  0.25947  1.0000
  H   H22       1.0  0.17896  0.49099  0.24053  1.0000
  H   H23       1.0  0.32104  0.49099  0.74053  1.0000
  H   H24       1.0  0.82104  0.50901  0.75947  1.0000
  H   H25       1.0  0.49102  0.75002  0.32647  1.0000
  H   H26       1.0  0.99102  0.24998  0.17353  1.0000
  H   H27       1.0  0.50898  0.24998  0.67353  1.0000
  H   H28       1.0  0.00898  0.75002  0.82647  1.0000
  H   H29       1.0  0.47534  0.67962  0.16492  1.0000
  H   H30       1.0  0.97534  0.32038  0.33508  1.0000
  H   H31       1.0  0.52466  0.32038  0.83508  1.0000
  H   H32       1.0  0.02466  0.67962  0.66492  1.0000
  C   C1        1.0  0.85602  0.80367  0.08646  1.0000
  C   C2        1.0  0.35602  0.19633  0.41354  1.0000
  C   C3        1.0  0.14398  0.19633  0.91354  1.0000
  C   C4        1.0  0.64398  0.80367  0.58646  1.0000
  C   C5        1.0  0.99481  0.68285  0.11051  1.0000
  C   C6        1.0  0.49482  0.31715  0.38949  1.0000
  C   C7        1.0  0.00518  0.31715  0.88949  1.0000
  C   C8        1.0  0.50518  0.68285  0.61051  1.0000
  C   C9        1.0  0.75495  0.60848  0.24653  1.0000
  C   C10       1.0  0.25495  0.39152  0.25347  1.0000
  C   C11       1.0  0.24505  0.39152  0.75347  1.0000
  C   C12       1.0  0.74504  0.60849  0.74653  1.0000
  C   C13       1.0  0.58399  0.72019  0.24189  1.0000
  C   C14       1.0  0.08399  0.27981  0.25811  1.0000
  C   C15       1.0  0.41601  0.27981  0.75811  1.0000
  C   C16       1.0  0.91601  0.72019  0.74189  1.0000
  S   S1        1.0  0.69836  0.88939  0.21994  1.0000
  S   S2        1.0  0.19836  0.11061  0.28006  1.0000
  S   S3        1.0  0.30164  0.11061  0.78006  1.0000
  S   S4        1.0  0.80164  0.88939  0.71994  1.0000
  Cl  Cl1       1.0  0.34511  0.84476  0.95665  1.0000
  Cl  Cl2       1.0  0.84511  0.15523  0.54335  1.0000
  Cl  Cl3       1.0  0.65489  0.15523  0.04335  1.0000
  Cl  Cl4       1.0  0.15489  0.84476  0.45665  1.0000
  O   O1        1.0  0.87353  0.56542  0.13559  1.0000
  O   O2        1.0  0.37353  0.43459  0.36441  1.0000
  O   O3        1.0  0.12646  0.43458  0.86441  1.0000
  O   O4        1.0  0.62646  0.56542  0.63559  1.0000
