data_image0
_chemical_formula_structural       Zn2H32C46I4Br4N4O8
_chemical_formula_sum              "Zn2 H32 C46 I4 Br4 N4 O8"
_cell_length_a       10.2585
_cell_length_b       11.3656
_cell_length_c       12.7878
_cell_angle_alpha    102.817
_cell_angle_beta     94.6096
_cell_angle_gamma    96.4794

_space_group_name_H-M_alt    "P 1"
_space_group_IT_number       1

loop_
  _space_group_symop_operation_xyz
  'x, y, z'

loop_
  _atom_site_type_symbol
  _atom_site_label
  _atom_site_symmetry_multiplicity
  _atom_site_fract_x
  _atom_site_fract_y
  _atom_site_fract_z
  _atom_site_occupancy
  Zn  Zn1       1.0  0.02558  0.19328  0.32589  1.0000
  Zn  Zn2       1.0  0.97441  0.80673  0.67412  1.0000
  H   H1        1.0  0.05261  0.18704  0.56021  1.0000
  H   H2        1.0  0.94737  0.81296  0.43980  1.0000
  H   H3        1.0  0.18741  0.08865  0.68131  1.0000
  H   H4        1.0  0.81258  0.91133  0.31870  1.0000
  H   H5        1.0  0.34811  0.90216  0.39841  1.0000
  H   H6        1.0  0.65189  0.09786  0.60159  1.0000
  H   H7        1.0  0.20296  0.00469  0.28843  1.0000
  H   H8        1.0  0.79705  0.99534  0.71158  1.0000
  H   H9        1.0  0.28239  0.78620  0.80873  1.0000
  H   H10       1.0  0.71763  0.21381  0.19127  1.0000
  H   H11       1.0  0.30742  0.65965  0.94663  1.0000
  H   H12       1.0  0.69256  0.34035  0.05335  1.0000
  H   H13       1.0  0.66388  0.72309  0.16389  1.0000
  H   H14       1.0  0.33610  0.27688  0.83611  1.0000
  H   H15       1.0  0.76065  0.88235  0.07433  1.0000
  H   H16       1.0  0.23935  0.11763  0.92567  1.0000
  H   H17       1.0  0.73611  0.00692  0.94050  1.0000
  H   H18       1.0  0.26391  0.99307  0.05951  1.0000
  H   H19       1.0  0.59688  0.06483  0.79539  1.0000
  H   H20       1.0  0.40314  0.93517  0.20463  1.0000
  H   H21       1.0  0.07776  0.46663  0.40798  1.0000
  H   H22       1.0  0.92227  0.53339  0.59205  1.0000
  H   H23       1.0  0.20144  0.64292  0.35414  1.0000
  H   H24       1.0  0.79859  0.35708  0.64586  1.0000
  H   H25       1.0  0.36863  0.38323  0.11964  1.0000
  H   H26       1.0  0.63132  0.61675  0.88034  1.0000
  H   H27       1.0  0.23744  0.21767  0.18220  1.0000
  H   H28       1.0  0.76253  0.78231  0.81780  1.0000
  H   H29       1.0  0.70475  0.46169  0.43195  1.0000
  H   H30       1.0  0.29524  0.53831  0.56805  1.0000
  H   H31       1.0  0.57537  0.44196  0.32289  1.0000
  H   H32       1.0  0.42462  0.55805  0.67711  1.0000
  C   C1        1.0  0.11966  0.12329  0.52849  1.0000
  C   C2        1.0  0.88032  0.87671  0.47152  1.0000
  C   C3        1.0  0.19527  0.06953  0.59501  1.0000
  C   C4        1.0  0.80472  0.93046  0.40498  1.0000
  C   C5        1.0  0.28087  0.99053  0.54854  1.0000
  C   C6        1.0  0.71912  0.00947  0.45146  1.0000
  C   C7        1.0  0.28457  0.96534  0.43690  1.0000
  C   C8        1.0  0.71542  0.03467  0.56310  1.0000
  C   C9        1.0  0.20501  0.02180  0.37592  1.0000
  C   C10       1.0  0.79500  0.97822  0.62409  1.0000
  C   C11       1.0  0.37233  0.93481  0.61411  1.0000
  C   C12       1.0  0.62768  0.06519  0.38589  1.0000
  C   C13       1.0  0.43537  0.92412  0.79409  1.0000
  C   C14       1.0  0.56465  0.07589  0.20591  1.0000
  C   C15       1.0  0.38258  0.83117  0.83695  1.0000
  C   C16       1.0  0.61743  0.16884  0.16305  1.0000
  C   C17       1.0  0.45800  0.79923  0.92179  1.0000
  C   C18       1.0  0.54200  0.20077  0.07821  1.0000
  C   C19       1.0  0.40600  0.70903  0.97376  1.0000
  C   C20       1.0  0.59399  0.29096  0.02623  1.0000
  C   C21       1.0  0.48048  0.68598  0.05933  1.0000
  C   C22       1.0  0.51951  0.31401  0.94066  1.0000
  C   C23       1.0  0.60899  0.74619  0.09639  1.0000
  C   C24       1.0  0.39100  0.25379  0.90361  1.0000
  C   C25       1.0  0.66195  0.83316  0.04608  1.0000
  C   C26       1.0  0.33806  0.16681  0.95391  1.0000
  C   C27       1.0  0.58811  0.86328  0.95934  1.0000
  C   C28       1.0  0.41190  0.13669  0.04066  1.0000
  C   C29       1.0  0.63799  0.95738  0.91053  1.0000
  C   C30       1.0  0.36203  0.04260  0.08947  1.0000
  C   C31       1.0  0.56275  0.98830  0.82907  1.0000
  C   C32       1.0  0.43727  0.01170  0.17094  1.0000
  C   C33       1.0  0.35666  0.63219  0.19380  1.0000
  C   C34       1.0  0.64333  0.36779  0.80618  1.0000
  C   C35       1.0  0.14401  0.45249  0.34508  1.0000
  C   C36       1.0  0.85601  0.54752  0.65493  1.0000
  C   C37       1.0  0.21233  0.54992  0.31461  1.0000
  C   C38       1.0  0.78767  0.45009  0.68539  1.0000
  C   C39       1.0  0.29315  0.52646  0.23152  1.0000
  C   C40       1.0  0.70684  0.47353  0.76847  1.0000
  C   C41       1.0  0.30627  0.40557  0.18416  1.0000
  C   C42       1.0  0.69370  0.59441  0.81582  1.0000
  C   C43       1.0  0.23411  0.31321  0.21908  1.0000
  C   C44       1.0  0.76587  0.68677  0.78091  1.0000
  C   C45       1.0  0.65525  0.50491  0.37465  1.0000
  C   C46       1.0  0.34473  0.49509  0.62535  1.0000
  I   I1        1.0  0.80159  0.54853  0.27247  1.0000
  I   I2        1.0  0.19841  0.45147  0.72754  1.0000
  I   I3        1.0  0.57358  0.65777  0.46148  1.0000
  I   I4        1.0  0.42641  0.34223  0.53852  1.0000
  Br  Br1       1.0  0.87369  0.29074  0.43476  1.0000
  Br  Br2       1.0  0.12636  0.70936  0.56528  1.0000
  Br  Br3       1.0  0.97300  0.05841  0.15450  1.0000
  Br  Br4       1.0  0.02698  0.94161  0.84551  1.0000
  N   N1        1.0  0.12555  0.10083  0.42118  1.0000
  N   N2        1.0  0.87445  0.89918  0.57883  1.0000
  N   N3        1.0  0.15329  0.33607  0.29697  1.0000
  N   N4        1.0  0.84671  0.66393  0.70304  1.0000
  O   O1        1.0  0.45613  0.87393  0.57770  1.0000
  O   O2        1.0  0.54389  0.12608  0.42229  1.0000
  O   O3        1.0  0.35337  0.96484  0.71995  1.0000
  O   O4        1.0  0.64666  0.03517  0.28005  1.0000
  O   O5        1.0  0.42756  0.59510  0.10950  1.0000
  O   O6        1.0  0.57243  0.40488  0.89047  1.0000
  O   O7        1.0  0.34327  0.73799  0.23152  1.0000
  O   O8        1.0  0.65673  0.26199  0.76847  1.0000
