data_image0
_chemical_formula_structural       Fe2H8C16O10
_chemical_formula_sum              "Fe2 H8 C16 O10"
_cell_length_a       6.46811
_cell_length_b       11.1214
_cell_length_c       11.1214
_cell_angle_alpha    90.3573
_cell_angle_beta     106.777
_cell_angle_gamma    106.777

_space_group_name_H-M_alt    "P 1"
_space_group_IT_number       1

loop_
  _space_group_symop_operation_xyz
  'x, y, z'

loop_
  _atom_site_type_symbol
  _atom_site_label
  _atom_site_symmetry_multiplicity
  _atom_site_fract_x
  _atom_site_fract_y
  _atom_site_fract_z
  _atom_site_occupancy
  Fe  Fe1       1.0  0.50001  0.00001  0.00001  1.0000
  Fe  Fe2       1.0  0.00001  0.00001  0.00001  1.0000
  H   H1        1.0  0.89086  0.61730  0.00017  1.0000
  H   H2        1.0  0.10914  0.99983  0.38270  1.0000
  H   H3        1.0  0.10914  0.38270  0.99983  1.0000
  H   H4        1.0  0.89085  0.00017  0.61730  1.0000
  H   H5        1.0  0.77138  0.38056  0.00082  1.0000
  H   H6        1.0  0.22862  0.99918  0.61944  1.0000
  H   H7        1.0  0.22863  0.61944  0.99918  1.0000
  H   H8        1.0  0.77138  0.00083  0.38056  1.0000
  C   C1        1.0  0.56620  0.63102  0.00004  1.0000
  C   C2        1.0  0.43380  0.99996  0.36897  1.0000
  C   C3        1.0  0.43380  0.36898  0.99996  1.0000
  C   C4        1.0  0.56619  0.00004  0.63102  1.0000
  C   C5        1.0  0.72056  0.56470  0.00028  1.0000
  C   C6        1.0  0.27944  0.99972  0.43530  1.0000
  C   C7        1.0  0.27944  0.43530  0.99972  1.0000
  C   C8        1.0  0.72056  0.00028  0.56470  1.0000
  C   C9        1.0  0.65453  0.43418  0.00021  1.0000
  C   C10       1.0  0.34547  0.99979  0.56582  1.0000
  C   C11       1.0  0.34548  0.56582  0.99979  1.0000
  C   C12       1.0  0.65453  0.00021  0.43418  1.0000
  C   C13       1.0  0.63600  0.77144  0.99900  1.0000
  C   C14       1.0  0.36400  0.00099  0.22856  1.0000
  C   C15       1.0  0.36400  0.22857  0.00100  1.0000
  C   C16       1.0  0.63600  0.99901  0.77144  1.0000
  O   O1        1.0  0.83923  0.82289  0.99778  1.0000
  O   O2        1.0  0.16076  0.00219  0.17710  1.0000
  O   O3        1.0  0.16078  0.17711  0.00222  1.0000
  O   O4        1.0  0.83925  0.99781  0.82289  1.0000
  O   O5        1.0  0.48298  0.82313  0.99782  1.0000
  O   O6        1.0  0.51701  0.00215  0.17687  1.0000
  O   O7        1.0  0.51702  0.17687  0.00218  1.0000
  O   O8        1.0  0.48299  0.99785  0.82313  1.0000
  O   O9        1.0  0.20778  0.95748  0.95745  1.0000
  O   O10       1.0  0.79219  0.04249  0.04251  1.0000
