data_image0
_chemical_formula_structural       Sr4H16C32O16
_chemical_formula_sum              "Sr4 H16 C32 O16"
_cell_length_a       5.4095
_cell_length_b       7.29885
_cell_length_c       19.4271
_cell_angle_alpha    91.754
_cell_angle_beta     90.0004
_cell_angle_gamma    89.9999

_space_group_name_H-M_alt    "P 1"
_space_group_IT_number       1

loop_
  _space_group_symop_operation_xyz
  'x, y, z'

loop_
  _atom_site_type_symbol
  _atom_site_label
  _atom_site_symmetry_multiplicity
  _atom_site_fract_x
  _atom_site_fract_y
  _atom_site_fract_z
  _atom_site_occupancy
  Sr  Sr1       1.0  0.83875  0.24973  0.99974  1.0000
  Sr  Sr2       1.0  0.33875  0.25027  0.50027  1.0000
  Sr  Sr3       1.0  0.16127  0.75030  0.00026  1.0000
  Sr  Sr4       1.0  0.66123  0.74970  0.49974  1.0000
  H   H1        1.0  0.56802  0.07996  0.66367  1.0000
  H   H2        1.0  0.06805  0.42002  0.83633  1.0000
  H   H3        1.0  0.43195  0.92002  0.33632  1.0000
  H   H4        1.0  0.93194  0.57998  0.16367  1.0000
  H   H5        1.0  0.86927  0.83531  0.71164  1.0000
  H   H6        1.0  0.36927  0.66468  0.78837  1.0000
  H   H7        1.0  0.13072  0.16469  0.28837  1.0000
  H   H8        1.0  0.63072  0.33531  0.21163  1.0000
  H   H9        1.0  0.62892  0.16476  0.78784  1.0000
  H   H10       1.0  0.12890  0.33524  0.71216  1.0000
  H   H11       1.0  0.37111  0.83524  0.21215  1.0000
  H   H12       1.0  0.87109  0.66475  0.28785  1.0000
  H   H13       1.0  0.93040  0.92000  0.83585  1.0000
  H   H14       1.0  0.43038  0.58001  0.66415  1.0000
  H   H15       1.0  0.06964  0.08002  0.16415  1.0000
  H   H16       1.0  0.56961  0.41998  0.33585  1.0000
  C   C1        1.0  0.17036  0.90624  0.60505  1.0000
  C   C2        1.0  0.67039  0.59374  0.89496  1.0000
  C   C3        1.0  0.82960  0.09372  0.39495  1.0000
  C   C4        1.0  0.32960  0.40627  0.10504  1.0000
  C   C5        1.0  0.21366  0.95310  0.67985  1.0000
  C   C6        1.0  0.71367  0.54688  0.82015  1.0000
  C   C7        1.0  0.78635  0.04685  0.32015  1.0000
  C   C8        1.0  0.28634  0.45314  0.17985  1.0000
  C   C9        1.0  0.42821  0.04582  0.70151  1.0000
  C   C10       1.0  0.92823  0.45416  0.79849  1.0000
  C   C11       1.0  0.57179  0.95416  0.29848  1.0000
  C   C12       1.0  0.07176  0.54584  0.20151  1.0000
  C   C13       1.0  0.03521  0.90734  0.72873  1.0000
  C   C14       1.0  0.53523  0.59266  0.77128  1.0000
  C   C15       1.0  0.96480  0.09265  0.27128  1.0000
  C   C16       1.0  0.46477  0.40734  0.22872  1.0000
  C   C17       1.0  0.46294  0.09277  0.77074  1.0000
  C   C18       1.0  0.96294  0.40724  0.72926  1.0000
  C   C19       1.0  0.53707  0.90725  0.22925  1.0000
  C   C20       1.0  0.03706  0.59275  0.27075  1.0000
  C   C21       1.0  0.06994  0.95427  0.79797  1.0000
  C   C22       1.0  0.56993  0.54574  0.70203  1.0000
  C   C23       1.0  0.93008  0.04575  0.20203  1.0000
  C   C24       1.0  0.43006  0.45426  0.29797  1.0000
  C   C25       1.0  0.28462  0.04682  0.81963  1.0000
  C   C26       1.0  0.78460  0.45318  0.68037  1.0000
  C   C27       1.0  0.71540  0.95320  0.18036  1.0000
  C   C28       1.0  0.21538  0.54681  0.31964  1.0000
  C   C29       1.0  0.32833  0.09308  0.89444  1.0000
  C   C30       1.0  0.82831  0.40693  0.60556  1.0000
  C   C31       1.0  0.67171  0.90696  0.10555  1.0000
  C   C32       1.0  0.17169  0.59305  0.39445  1.0000
  O   O1        1.0  0.34179  0.94849  0.56187  1.0000
  O   O2        1.0  0.84182  0.55150  0.93813  1.0000
  O   O3        1.0  0.65816  0.05147  0.43813  1.0000
  O   O4        1.0  0.15817  0.44853  0.06187  1.0000
  O   O5        1.0  0.97036  0.82941  0.58772  1.0000
  O   O6        1.0  0.47038  0.67057  0.91227  1.0000
  O   O7        1.0  0.02958  0.17059  0.41228  1.0000
  O   O8        1.0  0.52960  0.32943  0.08772  1.0000
  O   O9        1.0  0.15699  0.05078  0.93763  1.0000
  O   O10       1.0  0.65696  0.44923  0.56237  1.0000
  O   O11       1.0  0.84306  0.94925  0.06236  1.0000
  O   O12       1.0  0.34303  0.55075  0.43763  1.0000
  O   O13       1.0  0.52863  0.16933  0.91183  1.0000
  O   O14       1.0  0.02861  0.33069  0.58817  1.0000
  O   O15       1.0  0.47143  0.83069  0.08816  1.0000
  O   O16       1.0  0.97140  0.66931  0.41184  1.0000
