data_image0
_chemical_formula_structural       Ag4H20C24S4N8O8
_chemical_formula_sum              "Ag4 H20 C24 S4 N8 O8"
_cell_length_a       5.02444
_cell_length_b       7.30894
_cell_length_c       19.8997
_cell_angle_alpha    89.9993
_cell_angle_beta     90
_cell_angle_gamma    90.0008

_space_group_name_H-M_alt    "P 1"
_space_group_IT_number       1

loop_
  _space_group_symop_operation_xyz
  'x, y, z'

loop_
  _atom_site_type_symbol
  _atom_site_label
  _atom_site_symmetry_multiplicity
  _atom_site_fract_x
  _atom_site_fract_y
  _atom_site_fract_z
  _atom_site_occupancy
  Ag  Ag1       1.0  0.92405  0.13051  0.29513  1.0000
  Ag  Ag2       1.0  0.57597  0.86951  0.79513  1.0000
  Ag  Ag3       1.0  0.42400  0.36951  0.70486  1.0000
  Ag  Ag4       1.0  0.07601  0.63049  0.20487  1.0000
  H   H1        1.0  0.99141  0.17967  0.97582  1.0000
  H   H2        1.0  0.50855  0.82031  0.47583  1.0000
  H   H3        1.0  0.49143  0.32030  0.02417  1.0000
  H   H4        1.0  0.00856  0.67969  0.52417  1.0000
  H   H5        1.0  0.34408  0.93739  0.97173  1.0000
  H   H6        1.0  0.15588  0.06259  0.47173  1.0000
  H   H7        1.0  0.84409  0.56259  0.02827  1.0000
  H   H8        1.0  0.65590  0.43740  0.52827  1.0000
  H   H9        1.0  0.37034  0.71743  0.07242  1.0000
  H   H10       1.0  0.12964  0.28256  0.57241  1.0000
  H   H11       1.0  0.87036  0.78256  0.92759  1.0000
  H   H12       1.0  0.62966  0.21743  0.42759  1.0000
  H   H13       1.0  0.37023  0.17431  0.12009  1.0000
  H   H14       1.0  0.12975  0.82569  0.62009  1.0000
  H   H15       1.0  0.87021  0.32568  0.87991  1.0000
  H   H16       1.0  0.62980  0.67432  0.37992  1.0000
  H   H17       1.0  0.30799  0.18667  0.20772  1.0000
  H   H18       1.0  0.19200  0.81333  0.70772  1.0000
  H   H19       1.0  0.80797  0.31333  0.79227  1.0000
  H   H20       1.0  0.69207  0.68667  0.29228  1.0000
  C   C1        1.0  0.86790  0.97335  0.11782  1.0000
  C   C2        1.0  0.63208  0.02664  0.61781  1.0000
  C   C3        1.0  0.36790  0.52664  0.88218  1.0000
  C   C4        1.0  0.13212  0.47337  0.38219  1.0000
  C   C5        1.0  0.01116  0.08043  0.01647  1.0000
  C   C6        1.0  0.48881  0.91956  0.51647  1.0000
  C   C7        1.0  0.51117  0.41955  0.98353  1.0000
  C   C8        1.0  0.98883  0.58044  0.48353  1.0000
  C   C9        1.0  0.20921  0.94664  0.01430  1.0000
  C   C10       1.0  0.29076  0.05334  0.51430  1.0000
  C   C11       1.0  0.70921  0.55334  0.98569  1.0000
  C   C12       1.0  0.79078  0.44665  0.48569  1.0000
  C   C13       1.0  0.62206  0.36494  0.17339  1.0000
  C   C14       1.0  0.87793  0.63506  0.67339  1.0000
  C   C15       1.0  0.12203  0.13505  0.82661  1.0000
  C   C16       1.0  0.37802  0.86497  0.32661  1.0000
  C   C17       1.0  0.22243  0.82627  0.06842  1.0000
  C   C18       1.0  0.27755  0.17372  0.56841  1.0000
  C   C19       1.0  0.72243  0.67372  0.93158  1.0000
  C   C20       1.0  0.77757  0.32628  0.43158  1.0000
  C   C21       1.0  0.46628  0.18515  0.16926  1.0000
  C   C22       1.0  0.03371  0.81486  0.66926  1.0000
  C   C23       1.0  0.96625  0.31485  0.83074  1.0000
  C   C24       1.0  0.53378  0.68517  0.33074  1.0000
  S   S1        1.0  0.65241  0.97999  0.18669  1.0000
  S   S2        1.0  0.84758  0.02001  0.68668  1.0000
  S   S3        1.0  0.15240  0.52001  0.81332  1.0000
  S   S4        1.0  0.34762  0.48002  0.31332  1.0000
  N   N1        1.0  0.84055  0.09511  0.06794  1.0000
  N   N2        1.0  0.65943  0.90487  0.56794  1.0000
  N   N3        1.0  0.34055  0.40487  0.93206  1.0000
  N   N4        1.0  0.15945  0.59513  0.43206  1.0000
  N   N5        1.0  0.05155  0.83829  0.12026  1.0000
  N   N6        1.0  0.44844  0.16170  0.62026  1.0000
  N   N7        1.0  0.55154  0.66170  0.87974  1.0000
  N   N8        1.0  0.94847  0.33831  0.37974  1.0000
  O   O1        1.0  0.84024  0.36453  0.20680  1.0000
  O   O2        1.0  0.65974  0.63548  0.70680  1.0000
  O   O3        1.0  0.34021  0.13547  0.79320  1.0000
  O   O4        1.0  0.15985  0.86456  0.29320  1.0000
  O   O5        1.0  0.51978  0.50200  0.14535  1.0000
  O   O6        1.0  0.98020  0.49800  0.64535  1.0000
  O   O7        1.0  0.01977  0.99799  0.85465  1.0000
  O   O8        1.0  0.48028  0.00203  0.35466  1.0000
