data_image0
_chemical_formula_structural       Cd3H38C28O16F12
_chemical_formula_sum              "Cd3 H38 C28 O16 F12"
_cell_length_a       9.53824
_cell_length_b       9.64838
_cell_length_c       12.3863
_cell_angle_alpha    69.5218
_cell_angle_beta     70.7804
_cell_angle_gamma    87.5425

_space_group_name_H-M_alt    "P 1"
_space_group_IT_number       1

loop_
  _space_group_symop_operation_xyz
  'x, y, z'

loop_
  _atom_site_type_symbol
  _atom_site_label
  _atom_site_symmetry_multiplicity
  _atom_site_fract_x
  _atom_site_fract_y
  _atom_site_fract_z
  _atom_site_occupancy
  Cd  Cd1       1.0  0.19413  0.55497  0.34247  1.0000
  Cd  Cd2       1.0  0.80586  0.44503  0.65753  1.0000
  Cd  Cd3       1.0  0.50000  0.50000  0.50000  1.0000
  H   H1        1.0  0.27380  0.60082  0.69577  1.0000
  H   H2        1.0  0.72620  0.39918  0.30423  1.0000
  H   H3        1.0  0.08391  0.52040  0.77383  1.0000
  H   H4        1.0  0.91609  0.47960  0.22617  1.0000
  H   H5        1.0  0.12029  0.71378  0.69633  1.0000
  H   H6        1.0  0.87971  0.28622  0.30367  1.0000
  H   H7        1.0  0.26555  0.94215  0.21317  1.0000
  H   H8        1.0  0.73445  0.05785  0.78683  1.0000
  H   H9        1.0  0.20054  0.86858  0.37649  1.0000
  H   H10       1.0  0.79946  0.13142  0.62351  1.0000
  H   H11       1.0  0.01970  0.03992  0.38927  1.0000
  H   H12       1.0  0.98030  0.96008  0.61073  1.0000
  H   H13       1.0  0.10400  0.13539  0.22989  1.0000
  H   H14       1.0  0.89600  0.86461  0.77011  1.0000
  H   H15       1.0  0.93790  0.00372  0.18096  1.0000
  H   H16       1.0  0.06210  0.99628  0.81904  1.0000
  H   H17       1.0  0.81552  0.00179  0.32551  1.0000
  H   H18       1.0  0.18448  0.99821  0.67449  1.0000
  H   H19       1.0  0.88403  0.75541  0.43082  1.0000
  H   H20       1.0  0.11597  0.24459  0.56918  1.0000
  H   H21       1.0  0.87736  0.73810  0.29263  1.0000
  H   H22       1.0  0.12264  0.26190  0.70737  1.0000
  H   H23       1.0  0.23277  0.36494  0.14267  1.0000
  H   H24       1.0  0.76723  0.63506  0.85733  1.0000
  H   H25       1.0  0.38644  0.49992  0.08515  1.0000
  H   H26       1.0  0.61355  0.50008  0.91485  1.0000
  H   H27       1.0  0.19796  0.45162  0.94660  1.0000
  H   H28       1.0  0.80204  0.54838  0.05340  1.0000
  H   H29       1.0  0.37452  0.55071  0.88919  1.0000
  H   H30       1.0  0.62548  0.44929  0.11081  1.0000
  H   H31       1.0  0.24260  0.76997  0.85779  1.0000
  H   H32       1.0  0.75740  0.23002  0.14221  1.0000
  H   H33       1.0  0.07010  0.66381  0.94992  1.0000
  H   H34       1.0  0.92990  0.33619  0.05008  1.0000
  H   H35       1.0  0.29493  0.77596  0.03573  1.0000
  H   H36       1.0  0.70507  0.22404  0.96427  1.0000
  H   H37       1.0  0.09621  0.77674  0.08913  1.0000
  H   H38       1.0  0.90379  0.22326  0.91087  1.0000
  C   C1        1.0  0.39950  0.27376  0.37988  1.0000
  C   C2        1.0  0.60049  0.72623  0.62012  1.0000
  C   C3        1.0  0.43709  0.12965  0.34955  1.0000
  C   C4        1.0  0.56291  0.87035  0.65045  1.0000
  C   C5        1.0  0.55042  0.70914  0.21517  1.0000
  C   C6        1.0  0.44958  0.29086  0.78483  1.0000
  C   C7        1.0  0.65684  0.82831  0.09653  1.0000
  C   C8        1.0  0.34316  0.17169  0.90347  1.0000
  C   C9        1.0  0.14936  0.58924  0.58054  1.0000
  C   C10       1.0  0.85064  0.41076  0.41946  1.0000
  C   C11       1.0  0.16035  0.60623  0.69345  1.0000
  C   C12       1.0  0.83965  0.39378  0.30655  1.0000
  C   C13       1.0  0.16605  0.90741  0.29528  1.0000
  C   C14       1.0  0.83395  0.09259  0.70472  1.0000
  C   C15       1.0  0.05472  0.02704  0.29967  1.0000
  C   C16       1.0  0.94528  0.97295  0.70033  1.0000
  C   C17       1.0  0.92230  0.96725  0.27906  1.0000
  C   C18       1.0  0.07770  0.03275  0.72094  1.0000
  C   C19       1.0  0.92980  0.80036  0.33021  1.0000
  C   C20       1.0  0.07020  0.19964  0.66979  1.0000
  C   C21       1.0  0.27232  0.48113  0.08723  1.0000
  C   C22       1.0  0.72768  0.51887  0.91277  1.0000
  C   C23       1.0  0.26275  0.53362  0.95770  1.0000
  C   C24       1.0  0.73725  0.46638  0.04230  1.0000
  C   C25       1.0  0.18590  0.68035  0.94435  1.0000
  C   C26       1.0  0.81410  0.31965  0.05565  1.0000
  C   C27       1.0  0.18919  0.71625  0.05382  1.0000
  C   C28       1.0  0.81081  0.28375  0.94618  1.0000
  O   O1        1.0  0.29256  0.33380  0.34807  1.0000
  O   O2        1.0  0.70744  0.66620  0.65193  1.0000
  O   O3        1.0  0.47654  0.30733  0.43328  1.0000
  O   O4        1.0  0.52346  0.69267  0.56672  1.0000
  O   O5        1.0  0.42553  0.68393  0.20930  1.0000
  O   O6        1.0  0.57447  0.31608  0.79070  1.0000
  O   O7        1.0  0.60409  0.65943  0.30029  1.0000
  O   O8        1.0  0.39591  0.34057  0.69971  1.0000
  O   O9        1.0  0.26738  0.57286  0.49826  1.0000
  O   O10       1.0  0.73263  0.42714  0.50174  1.0000
  O   O11       1.0  0.02520  0.59459  0.56390  1.0000
  O   O12       1.0  0.97480  0.40541  0.43610  1.0000
  O   O13       1.0  0.08886  0.78286  0.29078  1.0000
  O   O14       1.0  0.91114  0.21714  0.70922  1.0000
  O   O15       1.0  0.17573  0.57123  0.14854  1.0000
  O   O16       1.0  0.82427  0.42876  0.85146  1.0000
  F   F1        1.0  0.33666  0.01454  0.43481  1.0000
  F   F2        1.0  0.66334  0.98546  0.56519  1.0000
  F   F3        1.0  0.57508  0.08837  0.34884  1.0000
  F   F4        1.0  0.42492  0.91163  0.65117  1.0000
  F   F5        1.0  0.42951  0.14594  0.23772  1.0000
  F   F6        1.0  0.57049  0.85406  0.76228  1.0000
  F   F7        1.0  0.80439  0.80770  0.07906  1.0000
  F   F8        1.0  0.19562  0.19231  0.92094  1.0000
  F   F9        1.0  0.63459  0.96568  0.10458  1.0000
  F   F10       1.0  0.36541  0.03432  0.89542  1.0000
  F   F11       1.0  0.63268  0.83138  0.99343  1.0000
  F   F12       1.0  0.36732  0.16862  0.00657  1.0000
