data_image0
_chemical_formula_structural       K8H12C24N28O16
_chemical_formula_sum              "K8 H12 C24 N28 O16"
_cell_length_a       7.44244
_cell_length_b       9.57861
_cell_length_c       15.4826
_cell_angle_alpha    90
_cell_angle_beta     90
_cell_angle_gamma    109.171

_space_group_name_H-M_alt    "P 1"
_space_group_IT_number       1

loop_
  _space_group_symop_operation_xyz
  'x, y, z'

loop_
  _atom_site_type_symbol
  _atom_site_label
  _atom_site_symmetry_multiplicity
  _atom_site_fract_x
  _atom_site_fract_y
  _atom_site_fract_z
  _atom_site_occupancy
  K   K1        1.0  0.95030  0.89436  0.66043  1.0000
  K   K2        1.0  0.54969  0.60564  0.16043  1.0000
  K   K3        1.0  0.04969  0.10564  0.33957  1.0000
  K   K4        1.0  0.45031  0.39436  0.83957  1.0000
  K   K5        1.0  0.53091  0.06422  0.69404  1.0000
  K   K6        1.0  0.96909  0.43579  0.19404  1.0000
  K   K7        1.0  0.46910  0.93579  0.30596  1.0000
  K   K8        1.0  0.03091  0.56421  0.80596  1.0000
  H   H1        1.0  0.92849  0.70912  0.30531  1.0000
  H   H2        1.0  0.57151  0.79088  0.80531  1.0000
  H   H3        1.0  0.07151  0.29088  0.69469  1.0000
  H   H4        1.0  0.42849  0.20912  0.19469  1.0000
  H   H5        1.0  0.35218  0.13571  0.53999  1.0000
  H   H6        1.0  0.14782  0.36429  0.03999  1.0000
  H   H7        1.0  0.64782  0.86429  0.46001  1.0000
  H   H8        1.0  0.85218  0.63571  0.96001  1.0000
  H   H9        1.0  0.23873  0.97568  0.51210  1.0000
  H   H10       1.0  0.26127  0.52432  0.01210  1.0000
  H   H11       1.0  0.76127  0.02433  0.48790  1.0000
  H   H12       1.0  0.73873  0.47568  0.98791  1.0000
  C   C1        1.0  0.60863  0.37528  0.50034  1.0000
  C   C2        1.0  0.89137  0.12472  0.00034  1.0000
  C   C3        1.0  0.39137  0.62472  0.49966  1.0000
  C   C4        1.0  0.10863  0.87528  0.99966  1.0000
  C   C5        1.0  0.70872  0.42484  0.64284  1.0000
  C   C6        1.0  0.79128  0.07516  0.14284  1.0000
  C   C7        1.0  0.29129  0.57516  0.35716  1.0000
  C   C8        1.0  0.20871  0.92484  0.85716  1.0000
  C   C9        1.0  0.86955  0.59697  0.53948  1.0000
  C   C10       1.0  0.63045  0.90303  0.03948  1.0000
  C   C11       1.0  0.13045  0.40303  0.46052  1.0000
  C   C12       1.0  0.36955  0.09697  0.96052  1.0000
  C   C13       1.0  0.02365  0.76390  0.43289  1.0000
  C   C14       1.0  0.47635  0.73610  0.93289  1.0000
  C   C15       1.0  0.97635  0.23610  0.56711  1.0000
  C   C16       1.0  0.52365  0.26390  0.06711  1.0000
  C   C17       1.0  0.77282  0.54280  0.38892  1.0000
  C   C18       1.0  0.72718  0.95719  0.88892  1.0000
  C   C19       1.0  0.22718  0.45720  0.61108  1.0000
  C   C20       1.0  0.27282  0.04280  0.11108  1.0000
  C   C21       1.0  0.53307  0.32676  0.35524  1.0000
  C   C22       1.0  0.96693  0.17324  0.85524  1.0000
  C   C23       1.0  0.46693  0.67324  0.64476  1.0000
  C   C24       1.0  0.03307  0.82676  0.14476  1.0000
  N   N1        1.0  0.75331  0.50575  0.47563  1.0000
  N   N2        1.0  0.74669  0.99425  0.97563  1.0000
  N   N3        1.0  0.24669  0.49425  0.52437  1.0000
  N   N4        1.0  0.25331  0.00575  0.02437  1.0000
  N   N5        1.0  0.58470  0.33872  0.58309  1.0000
  N   N6        1.0  0.91530  0.16128  0.08309  1.0000
  N   N7        1.0  0.41530  0.66128  0.41691  1.0000
  N   N8        1.0  0.08470  0.83872  0.91691  1.0000
  N   N9        1.0  0.84793  0.55634  0.62145  1.0000
  N   N10       1.0  0.65207  0.94366  0.12145  1.0000
  N   N11       1.0  0.15207  0.44366  0.37855  1.0000
  N   N12       1.0  0.34793  0.05634  0.87855  1.0000
  N   N13       1.0  0.00303  0.72289  0.51657  1.0000
  N   N14       1.0  0.49697  0.77711  0.01657  1.0000
  N   N15       1.0  0.99697  0.27711  0.48343  1.0000
  N   N16       1.0  0.50303  0.22289  0.98343  1.0000
  N   N17       1.0  0.90688  0.67398  0.37019  1.0000
  N   N18       1.0  0.59312  0.82602  0.87019  1.0000
  N   N19       1.0  0.09312  0.32602  0.62981  1.0000
  N   N20       1.0  0.40688  0.17398  0.12981  1.0000
  N   N21       1.0  0.67076  0.45700  0.32832  1.0000
  N   N22       1.0  0.82924  0.04300  0.82831  1.0000
  N   N23       1.0  0.32924  0.54300  0.67168  1.0000
  N   N24       1.0  0.17076  0.95700  0.17168  1.0000
  N   N25       1.0  0.49702  0.29089  0.44026  1.0000
  N   N26       1.0  0.00298  0.20911  0.94026  1.0000
  N   N27       1.0  0.50298  0.70911  0.55974  1.0000
  N   N28       1.0  0.99702  0.79089  0.05974  1.0000
  O   O1        1.0  0.69703  0.38174  0.72035  1.0000
  O   O2        1.0  0.80297  0.11826  0.22035  1.0000
  O   O3        1.0  0.30297  0.61826  0.27965  1.0000
  O   O4        1.0  0.19703  0.88174  0.77965  1.0000
  O   O5        1.0  0.14729  0.88140  0.40850  1.0000
  O   O6        1.0  0.35271  0.61860  0.90850  1.0000
  O   O7        1.0  0.85271  0.11860  0.59150  1.0000
  O   O8        1.0  0.64729  0.38140  0.09150  1.0000
  O   O9        1.0  0.43514  0.23845  0.29889  1.0000
  O   O10       1.0  0.06485  0.26155  0.79889  1.0000
  O   O11       1.0  0.56486  0.76155  0.70111  1.0000
  O   O12       1.0  0.93515  0.73845  0.20111  1.0000
  O   O13       1.0  0.27271  0.04017  0.56352  1.0000
  O   O14       1.0  0.22729  0.45983  0.06352  1.0000
  O   O15       1.0  0.72729  0.95983  0.43648  1.0000
  O   O16       1.0  0.77271  0.54017  0.93648  1.0000
