data_image0
_chemical_formula_structural       Cd2H8C4O12
_chemical_formula_sum              "Cd2 H8 C4 O12"
_cell_length_a       5.98605
_cell_length_b       6.34528
_cell_length_c       8.9688
_cell_angle_alpha    76.1497
_cell_angle_beta     72.523
_cell_angle_gamma    78.8747

_space_group_name_H-M_alt    "P 1"
_space_group_IT_number       1

loop_
  _space_group_symop_operation_xyz
  'x, y, z'

loop_
  _atom_site_type_symbol
  _atom_site_label
  _atom_site_symmetry_multiplicity
  _atom_site_fract_x
  _atom_site_fract_y
  _atom_site_fract_z
  _atom_site_occupancy
  Cd  Cd1       1.0  0.70765  0.05483  0.35326  1.0000
  Cd  Cd2       1.0  0.61291  0.43901  0.93883  1.0000
  H   H1        1.0  0.97844  0.70499  0.19988  1.0000
  H   H2        1.0  0.75866  0.59389  0.32949  1.0000
  H   H3        1.0  0.26917  0.91653  0.45879  1.0000
  H   H4        1.0  0.42551  0.76072  0.57474  1.0000
  H   H5        1.0  0.90118  0.72589  0.71175  1.0000
  H   H6        1.0  0.05746  0.56633  0.82422  1.0000
  H   H7        1.0  0.63263  0.73694  0.11901  1.0000
  H   H8        1.0  0.58874  0.88241  0.96114  1.0000
  C   C1        1.0  0.63197  0.36310  0.59533  1.0000
  C   C2        1.0  0.69830  0.13232  0.69301  1.0000
  C   C3        1.0  0.22940  0.16452  0.20534  1.0000
  C   C4        1.0  0.09550  0.31021  0.08409  1.0000
  O   O1        1.0  0.67040  0.37945  0.44484  1.0000
  O   O2        1.0  0.54646  0.51825  0.66869  1.0000
  O   O3        1.0  0.77503  0.97561  0.61972  1.0000
  O   O4        1.0  0.66955  0.11753  0.84157  1.0000
  O   O5        1.0  0.43384  0.20812  0.19071  1.0000
  O   O6        1.0  0.12447  0.01703  0.30941  1.0000
  O   O7        1.0  0.19699  0.46143  0.98203  1.0000
  O   O8        1.0  0.89001  0.26819  0.09957  1.0000
  O   O9        1.0  0.80835  0.72984  0.24741  1.0000
  O   O10       1.0  0.37976  0.91391  0.52276  1.0000
  O   O11       1.0  0.94871  0.57099  0.75893  1.0000
  O   O12       1.0  0.53625  0.75135  0.04343  1.0000
