data_image0
_chemical_formula_structural       Cd2H8C4O12
_chemical_formula_sum              "Cd2 H8 C4 O12"
_cell_length_a       6.05466
_cell_length_b       6.41102
_cell_length_c       8.86969
_cell_angle_alpha    74.8075
_cell_angle_beta     73.2142
_cell_angle_gamma    79.4063

_space_group_name_H-M_alt    "P 1"
_space_group_IT_number       1

loop_
  _space_group_symop_operation_xyz
  'x, y, z'

loop_
  _atom_site_type_symbol
  _atom_site_label
  _atom_site_symmetry_multiplicity
  _atom_site_fract_x
  _atom_site_fract_y
  _atom_site_fract_z
  _atom_site_occupancy
  Cd  Cd1       1.0  0.04004  0.31376  0.70844  1.0000
  Cd  Cd2       1.0  0.95996  0.68623  0.29157  1.0000
  H   H1        1.0  0.09698  0.86368  0.68159  1.0000
  H   H2        1.0  0.90300  0.13633  0.31841  1.0000
  H   H3        1.0  0.33706  0.95739  0.64165  1.0000
  H   H4        1.0  0.66293  0.04262  0.35834  1.0000
  H   H5        1.0  0.76625  0.01060  0.93322  1.0000
  H   H6        1.0  0.23376  0.98938  0.06679  1.0000
  H   H7        1.0  0.60741  0.17386  0.82113  1.0000
  H   H8        1.0  0.39257  0.82613  0.17888  1.0000
  C   C1        1.0  0.96244  0.61431  0.95025  1.0000
  C   C2        1.0  0.03757  0.38569  0.04974  1.0000
  C   C3        1.0  0.43335  0.57479  0.43842  1.0000
  C   C4        1.0  0.56667  0.42519  0.56158  1.0000
  O   O1        1.0  0.98603  0.63402  0.79968  1.0000
  O   O2        1.0  0.01396  0.36600  0.20031  1.0000
  O   O3        1.0  0.88477  0.76594  0.02426  1.0000
  O   O4        1.0  0.11523  0.23409  0.97573  1.0000
  O   O5        1.0  0.22743  0.53685  0.45678  1.0000
  O   O6        1.0  0.77257  0.46312  0.54322  1.0000
  O   O7        1.0  0.53878  0.72005  0.33027  1.0000
  O   O8        1.0  0.46122  0.27992  0.66974  1.0000
  O   O9        1.0  0.18468  0.99084  0.61884  1.0000
  O   O10       1.0  0.81532  0.00919  0.38114  1.0000
  O   O11       1.0  0.71908  0.16608  0.88584  1.0000
  O   O12       1.0  0.28091  0.83395  0.11418  1.0000
