data_image0
_chemical_formula_structural       Ag8H8C8N24O52
_chemical_formula_sum              "Ag8 H8 C8 N24 O52"
_cell_length_a       8.6604
_cell_length_b       8.9623
_cell_length_c       15.2849
_cell_angle_alpha    89.9999
_cell_angle_beta     90.0001
_cell_angle_gamma    89.9999

_space_group_name_H-M_alt    "P 1"
_space_group_IT_number       1

loop_
  _space_group_symop_operation_xyz
  'x, y, z'

loop_
  _atom_site_type_symbol
  _atom_site_label
  _atom_site_symmetry_multiplicity
  _atom_site_fract_x
  _atom_site_fract_y
  _atom_site_fract_z
  _atom_site_occupancy
  Ag  Ag1       1.0  0.91210  0.49658  0.57930  1.0000
  Ag  Ag2       1.0  0.08790  0.50342  0.07930  1.0000
  Ag  Ag3       1.0  0.41210  0.00342  0.57930  1.0000
  Ag  Ag4       1.0  0.58789  0.99658  0.07930  1.0000
  Ag  Ag5       1.0  0.61075  0.75022  0.78877  1.0000
  Ag  Ag6       1.0  0.38925  0.24979  0.28877  1.0000
  Ag  Ag7       1.0  0.11074  0.74978  0.78877  1.0000
  Ag  Ag8       1.0  0.88925  0.25022  0.28877  1.0000
  H   H1        1.0  0.36018  0.64913  0.89524  1.0000
  H   H2        1.0  0.63982  0.35087  0.39524  1.0000
  H   H3        1.0  0.86018  0.85087  0.89524  1.0000
  H   H4        1.0  0.13982  0.14913  0.39524  1.0000
  H   H5        1.0  0.35914  0.82042  0.90727  1.0000
  H   H6        1.0  0.64087  0.17958  0.40727  1.0000
  H   H7        1.0  0.85913  0.67958  0.90727  1.0000
  H   H8        1.0  0.14086  0.32042  0.40727  1.0000
  C   C1        1.0  0.40404  0.50586  0.58411  1.0000
  C   C2        1.0  0.59596  0.49413  0.08411  1.0000
  C   C3        1.0  0.90404  0.99413  0.58411  1.0000
  C   C4        1.0  0.09596  0.00587  0.08411  1.0000
  C   C5        1.0  0.97980  0.71249  0.32779  1.0000
  C   C6        1.0  0.02021  0.28751  0.82779  1.0000
  C   C7        1.0  0.47979  0.78751  0.32779  1.0000
  C   C8        1.0  0.52020  0.21249  0.82779  1.0000
  N   N1        1.0  0.94520  0.64064  0.40544  1.0000
  N   N2        1.0  0.05481  0.35936  0.90544  1.0000
  N   N3        1.0  0.44520  0.85936  0.40544  1.0000
  N   N4        1.0  0.55480  0.14064  0.90544  1.0000
  N   N5        1.0  0.56632  0.50363  0.58225  1.0000
  N   N6        1.0  0.43368  0.49637  0.08226  1.0000
  N   N7        1.0  0.06632  0.99637  0.58226  1.0000
  N   N8        1.0  0.93368  0.00363  0.08226  1.0000
  N   N9        1.0  0.02445  0.63805  0.25223  1.0000
  N   N10       1.0  0.97555  0.36195  0.75223  1.0000
  N   N11       1.0  0.52445  0.86195  0.25223  1.0000
  N   N12       1.0  0.47555  0.13805  0.75223  1.0000
  N   N13       1.0  0.32923  0.60917  0.63880  1.0000
  N   N14       1.0  0.67077  0.39083  0.13880  1.0000
  N   N15       1.0  0.82923  0.89083  0.63880  1.0000
  N   N16       1.0  0.17077  0.10917  0.13879  1.0000
  N   N17       1.0  0.98486  0.87350  0.32694  1.0000
  N   N18       1.0  0.01515  0.12650  0.82694  1.0000
  N   N19       1.0  0.48485  0.62650  0.32694  1.0000
  N   N20       1.0  0.51514  0.37350  0.82694  1.0000
  N   N21       1.0  0.32211  0.40934  0.52803  1.0000
  N   N22       1.0  0.67789  0.59066  0.02803  1.0000
  N   N23       1.0  0.82211  0.09065  0.52803  1.0000
  N   N24       1.0  0.17789  0.90935  0.02803  1.0000
  O   O1        1.0  0.94057  0.71834  0.47447  1.0000
  O   O2        1.0  0.05943  0.28166  0.97447  1.0000
  O   O3        1.0  0.44057  0.78166  0.47447  1.0000
  O   O4        1.0  0.55943  0.21834  0.97447  1.0000
  O   O5        1.0  0.92054  0.50250  0.40684  1.0000
  O   O6        1.0  0.07946  0.49750  0.90684  1.0000
  O   O7        1.0  0.42054  0.99750  0.40684  1.0000
  O   O8        1.0  0.57946  0.00250  0.90684  1.0000
  O   O9        1.0  0.64046  0.53768  0.64985  1.0000
  O   O10       1.0  0.35955  0.46233  0.14985  1.0000
  O   O11       1.0  0.14045  0.96233  0.64985  1.0000
  O   O12       1.0  0.85954  0.03767  0.14985  1.0000
  O   O13       1.0  0.06451  0.50422  0.25494  1.0000
  O   O14       1.0  0.93549  0.49577  0.75494  1.0000
  O   O15       1.0  0.56451  0.99578  0.25494  1.0000
  O   O16       1.0  0.43548  0.00422  0.75494  1.0000
  O   O17       1.0  0.63462  0.46790  0.51290  1.0000
  O   O18       1.0  0.36538  0.53210  0.01290  1.0000
  O   O19       1.0  0.13462  0.03210  0.51290  1.0000
  O   O20       1.0  0.86538  0.96790  0.01290  1.0000
  O   O21       1.0  0.10585  0.93253  0.30029  1.0000
  O   O22       1.0  0.89416  0.06747  0.80029  1.0000
  O   O23       1.0  0.60584  0.56747  0.30029  1.0000
  O   O24       1.0  0.39415  0.43253  0.80029  1.0000
  O   O25       1.0  0.40219  0.72173  0.66402  1.0000
  O   O26       1.0  0.59781  0.27826  0.16402  1.0000
  O   O27       1.0  0.90219  0.77826  0.66402  1.0000
  O   O28       1.0  0.09781  0.22174  0.16402  1.0000
  O   O29       1.0  0.86909  0.94260  0.35267  1.0000
  O   O30       1.0  0.13091  0.05739  0.85268  1.0000
  O   O31       1.0  0.36908  0.55740  0.35267  1.0000
  O   O32       1.0  0.63091  0.44260  0.85267  1.0000
  O   O33       1.0  0.19144  0.58484  0.66108  1.0000
  O   O34       1.0  0.80856  0.41516  0.16108  1.0000
  O   O35       1.0  0.69144  0.91516  0.66108  1.0000
  O   O36       1.0  0.30856  0.08485  0.16108  1.0000
  O   O37       1.0  0.18613  0.44306  0.50606  1.0000
  O   O38       1.0  0.81387  0.55694  0.00606  1.0000
  O   O39       1.0  0.68613  0.05694  0.50606  1.0000
  O   O40       1.0  0.31387  0.94306  0.00607  1.0000
  O   O41       1.0  0.02202  0.71131  0.18129  1.0000
  O   O42       1.0  0.97798  0.28869  0.68129  1.0000
  O   O43       1.0  0.52202  0.78869  0.18129  1.0000
  O   O44       1.0  0.47798  0.21131  0.68129  1.0000
  O   O45       1.0  0.38826  0.29472  0.50084  1.0000
  O   O46       1.0  0.61174  0.70528  0.00084  1.0000
  O   O47       1.0  0.88826  0.20528  0.50084  1.0000
  O   O48       1.0  0.11174  0.79472  0.00084  1.0000
  O   O49       1.0  0.36092  0.74213  0.86160  1.0000
  O   O50       1.0  0.63908  0.25787  0.36160  1.0000
  O   O51       1.0  0.86092  0.75787  0.86160  1.0000
  O   O52       1.0  0.13908  0.24213  0.36160  1.0000
