data_image0
_chemical_formula_structural       Cd3P2H20C16N6Cl2O10
_chemical_formula_sum              "Cd3 P2 H20 C16 N6 Cl2 O10"
_cell_length_a       7.72184
_cell_length_b       9.34466
_cell_length_c       10.0969
_cell_angle_alpha    89.4072
_cell_angle_beta     103.026
_cell_angle_gamma    110.648

_space_group_name_H-M_alt    "P 1"
_space_group_IT_number       1

loop_
  _space_group_symop_operation_xyz
  'x, y, z'

loop_
  _atom_site_type_symbol
  _atom_site_label
  _atom_site_symmetry_multiplicity
  _atom_site_fract_x
  _atom_site_fract_y
  _atom_site_fract_z
  _atom_site_occupancy
  Cd  Cd1       1.0  0.50000  0.00000  0.50000  1.0000
  Cd  Cd2       1.0  0.69904  0.66451  0.50952  1.0000
  Cd  Cd3       1.0  0.30096  0.33549  0.49049  1.0000
  P   P1        1.0  0.65183  0.33377  0.31570  1.0000
  P   P2        1.0  0.34817  0.66623  0.68430  1.0000
  H   H1        1.0  0.92889  0.59834  0.37485  1.0000
  H   H2        1.0  0.07111  0.40166  0.62515  1.0000
  H   H3        1.0  0.08817  0.72541  0.49527  1.0000
  H   H4        1.0  0.91183  0.27459  0.50473  1.0000
  H   H5        1.0  0.95722  0.55999  0.71371  1.0000
  H   H6        1.0  0.04278  0.44001  0.28629  1.0000
  H   H7        1.0  0.73949  0.45211  0.70166  1.0000
  H   H8        1.0  0.26051  0.54789  0.29834  1.0000
  H   H9        1.0  0.48843  0.02850  0.16838  1.0000
  H   H10       1.0  0.51157  0.97150  0.83162  1.0000
  H   H11       1.0  0.23857  0.92044  0.95669  1.0000
  H   H12       1.0  0.76143  0.07956  0.04331  1.0000
  H   H13       1.0  0.18443  0.36322  0.89935  1.0000
  H   H14       1.0  0.81557  0.63677  0.10065  1.0000
  H   H15       1.0  0.42055  0.46549  0.11851  1.0000
  H   H16       1.0  0.57945  0.53451  0.88149  1.0000
  H   H17       1.0  0.85596  0.19077  0.79340  1.0000
  H   H18       1.0  0.14404  0.80923  0.20660  1.0000
  H   H19       1.0  0.13959  0.89582  0.71678  1.0000
  H   H20       1.0  0.86041  0.10418  0.28322  1.0000
  C   C1        1.0  0.47302  0.25491  0.15800  1.0000
  C   C2        1.0  0.52698  0.74509  0.84200  1.0000
  C   C3        1.0  0.42272  0.10235  0.10983  1.0000
  C   C4        1.0  0.57728  0.89765  0.89017  1.0000
  C   C5        1.0  0.28266  0.04107  0.99064  1.0000
  C   C6        1.0  0.71734  0.95893  0.00935  1.0000
  C   C7        1.0  0.19602  0.13476  0.91665  1.0000
  C   C8        1.0  0.80398  0.86524  0.08335  1.0000
  C   C9        1.0  0.24659  0.28855  0.96046  1.0000
  C   C10       1.0  0.75341  0.71145  0.03953  1.0000
  C   C11       1.0  0.38322  0.34673  0.08209  1.0000
  C   C12       1.0  0.61677  0.65327  0.91791  1.0000
  C   C13       1.0  0.88864  0.10076  0.74997  1.0000
  C   C14       1.0  0.11136  0.89924  0.25003  1.0000
  C   C15       1.0  0.03224  0.94715  0.71309  1.0000
  C   C16       1.0  0.96776  0.05285  0.28691  1.0000
  N   N1        1.0  0.86824  0.90729  0.62226  1.0000
  N   N2        1.0  0.13176  0.09271  0.37774  1.0000
  N   N3        1.0  0.77769  0.00348  0.64583  1.0000
  N   N4        1.0  0.22231  0.99652  0.35417  1.0000
  N   N5        1.0  0.04951  0.06810  0.79704  1.0000
  N   N6        1.0  0.95049  0.93190  0.20296  1.0000
  Cl  Cl1       1.0  0.50391  0.78528  0.32189  1.0000
  Cl  Cl2       1.0  0.49609  0.21473  0.67811  1.0000
  O   O1        1.0  0.56633  0.42024  0.39785  1.0000
  O   O2        1.0  0.43367  0.57976  0.60215  1.0000
  O   O3        1.0  0.83084  0.44485  0.27716  1.0000
  O   O4        1.0  0.16916  0.55515  0.72284  1.0000
  O   O5        1.0  0.69122  0.19878  0.38954  1.0000
  O   O6        1.0  0.30878  0.80123  0.61047  1.0000
  O   O7        1.0  0.96246  0.69886  0.42864  1.0000
  O   O8        1.0  0.03754  0.30114  0.57136  1.0000
  O   O9        1.0  0.82483  0.55959  0.70589  1.0000
  O   O10       1.0  0.17517  0.44041  0.29411  1.0000
