data_image0
_chemical_formula_structural       Mn2H22C22N2O14F8
_chemical_formula_sum              "Mn2 H22 C22 N2 O14 F8"
_cell_length_a       6.16576
_cell_length_b       7.4076
_cell_length_c       15.6413
_cell_angle_alpha    82.8467
_cell_angle_beta     89.752
_cell_angle_gamma    82.1459

_space_group_name_H-M_alt    "P 1"
_space_group_IT_number       1

loop_
  _space_group_symop_operation_xyz
  'x, y, z'

loop_
  _atom_site_type_symbol
  _atom_site_label
  _atom_site_symmetry_multiplicity
  _atom_site_fract_x
  _atom_site_fract_y
  _atom_site_fract_z
  _atom_site_occupancy
  Mn  Mn1       1.0  0.07988  0.72890  0.10283  1.0000
  Mn  Mn2       1.0  0.92011  0.27111  0.89717  1.0000
  H   H1        1.0  0.65178  0.78030  0.21508  1.0000
  H   H2        1.0  0.34822  0.21969  0.78492  1.0000
  H   H3        1.0  0.02116  0.61428  0.39455  1.0000
  H   H4        1.0  0.97885  0.38572  0.60545  1.0000
  H   H5        1.0  0.79664  0.59614  0.46754  1.0000
  H   H6        1.0  0.20337  0.40387  0.53246  1.0000
  H   H7        1.0  0.90373  0.80804  0.44494  1.0000
  H   H8        1.0  0.09627  0.19196  0.55506  1.0000
  H   H9        1.0  0.39253  0.81912  0.30199  1.0000
  H   H10       1.0  0.60748  0.18089  0.69801  1.0000
  H   H11       1.0  0.46714  0.91664  0.39488  1.0000
  H   H12       1.0  0.53288  0.08338  0.60511  1.0000
  H   H13       1.0  0.42159  0.68249  0.40467  1.0000
  H   H14       1.0  0.57840  0.31753  0.59533  1.0000
  H   H15       1.0  0.72934  0.70197  0.00556  1.0000
  H   H16       1.0  0.27065  0.29802  0.99444  1.0000
  H   H17       1.0  0.78721  0.50464  0.06033  1.0000
  H   H18       1.0  0.21279  0.49536  0.93967  1.0000
  H   H19       1.0  0.39458  0.96789  0.10294  1.0000
  H   H20       1.0  0.60541  0.03212  0.89705  1.0000
  H   H21       1.0  0.51405  0.76203  0.09769  1.0000
  H   H22       1.0  0.48594  0.23798  0.90231  1.0000
  C   C1        1.0  0.38486  0.31894  0.13585  1.0000
  C   C2        1.0  0.61514  0.68108  0.86416  1.0000
  C   C3        1.0  0.56064  0.27863  0.20544  1.0000
  C   C4        1.0  0.43936  0.72138  0.79456  1.0000
  C   C5        1.0  0.51491  0.31512  0.28962  1.0000
  C   C6        1.0  0.48510  0.68488  0.71038  1.0000
  C   C7        1.0  0.67284  0.26928  0.35514  1.0000
  C   C8        1.0  0.32718  0.73071  0.64486  1.0000
  C   C9        1.0  0.88176  0.18839  0.33663  1.0000
  C   C10       1.0  0.11825  0.81159  0.66337  1.0000
  C   C11       1.0  0.92979  0.15453  0.25252  1.0000
  C   C12       1.0  0.07020  0.84546  0.74748  1.0000
  C   C13       1.0  0.77317  0.19712  0.18675  1.0000
  C   C14       1.0  0.22683  0.80288  0.81325  1.0000
  C   C15       1.0  0.83450  0.15320  0.09656  1.0000
  C   C16       1.0  0.16549  0.84679  0.90344  1.0000
  C   C17       1.0  0.78504  0.73920  0.26310  1.0000
  C   C18       1.0  0.21496  0.26080  0.73690  1.0000
  C   C19       1.0  0.86840  0.68574  0.41715  1.0000
  C   C20       1.0  0.13160  0.31426  0.58285  1.0000
  C   C21       1.0  0.48669  0.79177  0.36252  1.0000
  C   C22       1.0  0.51332  0.20825  0.63748  1.0000
  N   N1        1.0  0.71612  0.73556  0.34478  1.0000
  N   N2        1.0  0.28388  0.26444  0.65522  1.0000
  O   O1        1.0  0.25401  0.46559  0.13413  1.0000
  O   O2        1.0  0.74599  0.53443  0.86588  1.0000
  O   O3        1.0  0.38309  0.20080  0.08349  1.0000
  O   O4        1.0  0.61690  0.79923  0.91651  1.0000
  O   O5        1.0  0.83574  0.28899  0.03819  1.0000
  O   O6        1.0  0.16426  0.71100  0.96181  1.0000
  O   O7        1.0  0.88042  0.98669  0.08674  1.0000
  O   O8        1.0  0.11957  0.01329  0.91327  1.0000
  O   O9        1.0  0.98061  0.69995  0.24229  1.0000
  O   O10       1.0  0.01939  0.30003  0.75771  1.0000
  O   O11       1.0  0.76781  0.63946  0.06619  1.0000
  O   O12       1.0  0.23218  0.36053  0.93381  1.0000
  O   O13       1.0  0.38307  0.83519  0.11953  1.0000
  O   O14       1.0  0.61692  0.16482  0.88046  1.0000
  F   F1        1.0  0.31428  0.39046  0.31254  1.0000
  F   F2        1.0  0.68574  0.60956  0.68747  1.0000
  F   F3        1.0  0.62303  0.30098  0.43698  1.0000
  F   F4        1.0  0.37699  0.69901  0.56303  1.0000
  F   F5        1.0  0.03470  0.14133  0.40017  1.0000
  F   F6        1.0  0.96531  0.85863  0.59983  1.0000
  F   F7        1.0  0.13564  0.07688  0.23727  1.0000
  F   F8        1.0  0.86435  0.92309  0.76272  1.0000
