data_image0
_chemical_formula_structural       Cd2H20C20N8O8
_chemical_formula_sum              "Cd2 H20 C20 N8 O8"
_cell_length_a       5.20398
_cell_length_b       8.40577
_cell_length_c       12.3698
_cell_angle_alpha    93.8688
_cell_angle_beta     89.9999
_cell_angle_gamma    90.0006

_space_group_name_H-M_alt    "P 1"
_space_group_IT_number       1

loop_
  _space_group_symop_operation_xyz
  'x, y, z'

loop_
  _atom_site_type_symbol
  _atom_site_label
  _atom_site_symmetry_multiplicity
  _atom_site_fract_x
  _atom_site_fract_y
  _atom_site_fract_z
  _atom_site_occupancy
  Cd  Cd1       1.0  0.00000  0.00000  0.00000  1.0000
  Cd  Cd2       1.0  0.50000  0.49999  0.50000  1.0000
  H   H1        1.0  0.57658  0.31144  0.99276  1.0000
  H   H2        1.0  0.07658  0.18856  0.50724  1.0000
  H   H3        1.0  0.42343  0.68856  0.00724  1.0000
  H   H4        1.0  0.92341  0.81143  0.49276  1.0000
  H   H5        1.0  0.70057  0.59377  0.89146  1.0000
  H   H6        1.0  0.20059  0.90623  0.60853  1.0000
  H   H7        1.0  0.29943  0.40623  0.10854  1.0000
  H   H8        1.0  0.79940  0.09376  0.39147  1.0000
  H   H9        1.0  0.26409  0.24171  0.81661  1.0000
  H   H10       1.0  0.76408  0.25831  0.68339  1.0000
  H   H11       1.0  0.73592  0.75830  0.18339  1.0000
  H   H12       1.0  0.23591  0.74168  0.31660  1.0000
  H   H13       1.0  0.34321  0.51521  0.75089  1.0000
  H   H14       1.0  0.84321  0.98480  0.74911  1.0000
  H   H15       1.0  0.65679  0.48480  0.24912  1.0000
  H   H16       1.0  0.15679  0.01520  0.25088  1.0000
  H   H17       1.0  0.15867  0.67517  0.81125  1.0000
  H   H18       1.0  0.65867  0.82485  0.68875  1.0000
  H   H19       1.0  0.84132  0.32485  0.18876  1.0000
  H   H20       1.0  0.34132  0.17515  0.31124  1.0000
  C   C1        1.0  0.73603  0.34083  0.94128  1.0000
  C   C2        1.0  0.23603  0.15917  0.55872  1.0000
  C   C3        1.0  0.26398  0.65917  0.05873  1.0000
  C   C4        1.0  0.76396  0.84082  0.44128  1.0000
  C   C5        1.0  0.79166  0.47784  0.89116  1.0000
  C   C6        1.0  0.29167  0.02216  0.60884  1.0000
  C   C7        1.0  0.20833  0.52218  0.10884  1.0000
  C   C8        1.0  0.70832  0.97783  0.39117  1.0000
  C   C9        1.0  0.09181  0.29663  0.85101  1.0000
  C   C10       1.0  0.59182  0.20338  0.64899  1.0000
  C   C11       1.0  0.90819  0.70338  0.14899  1.0000
  C   C12       1.0  0.40818  0.79661  0.35101  1.0000
  C   C13       1.0  0.14666  0.55731  0.76691  1.0000
  C   C14       1.0  0.64666  0.94270  0.73309  1.0000
  C   C15       1.0  0.85334  0.44270  0.23309  1.0000
  C   C16       1.0  0.35334  0.05729  0.26691  1.0000
  C   C17       1.0  0.00853  0.58284  0.65953  1.0000
  C   C18       1.0  0.50852  0.91716  0.84047  1.0000
  C   C19       1.0  0.99148  0.41716  0.34047  1.0000
  C   C20       1.0  0.49148  0.08284  0.15953  1.0000
  N   N1        1.0  0.92509  0.22890  0.91572  1.0000
  N   N2        1.0  0.42508  0.27110  0.58428  1.0000
  N   N3        1.0  0.07491  0.77110  0.08428  1.0000
  N   N4        1.0  0.57491  0.72889  0.41571  1.0000
  N   N5        1.0  0.01701  0.44779  0.83459  1.0000
  N   N6        1.0  0.51702  0.05221  0.66541  1.0000
  N   N7        1.0  0.98299  0.55221  0.16541  1.0000
  N   N8        1.0  0.48297  0.94778  0.33459  1.0000
  O   O1        1.0  0.14551  0.63805  0.58586  1.0000
  O   O2        1.0  0.64549  0.86197  0.91414  1.0000
  O   O3        1.0  0.85450  0.36195  0.41414  1.0000
  O   O4        1.0  0.35452  0.13803  0.08586  1.0000
  O   O5        1.0  0.76890  0.55659  0.65496  1.0000
  O   O6        1.0  0.26890  0.94341  0.84503  1.0000
  O   O7        1.0  0.23110  0.44340  0.34503  1.0000
  O   O8        1.0  0.73112  0.05660  0.15498  1.0000
