data_image0
_chemical_formula_structural       Ag4H20C20N8O8
_chemical_formula_sum              "Ag4 H20 C20 N8 O8"
_cell_length_a       5.0813
_cell_length_b       8.86272
_cell_length_c       13.5465
_cell_angle_alpha    90.0001
_cell_angle_beta     90.0011
_cell_angle_gamma    106.021

_space_group_name_H-M_alt    "P 1"
_space_group_IT_number       1

loop_
  _space_group_symop_operation_xyz
  'x, y, z'

loop_
  _atom_site_type_symbol
  _atom_site_label
  _atom_site_symmetry_multiplicity
  _atom_site_fract_x
  _atom_site_fract_y
  _atom_site_fract_z
  _atom_site_occupancy
  Ag  Ag1       1.0  0.19291  0.26982  0.31557  1.0000
  Ag  Ag2       1.0  0.30709  0.73019  0.81558  1.0000
  Ag  Ag3       1.0  0.80709  0.73018  0.68442  1.0000
  Ag  Ag4       1.0  0.69291  0.26981  0.18442  1.0000
  H   H1        1.0  0.52218  0.76024  0.47593  1.0000
  H   H2        1.0  0.97785  0.23977  0.97593  1.0000
  H   H3        1.0  0.47782  0.23976  0.52407  1.0000
  H   H4        1.0  0.02216  0.76023  0.02407  1.0000
  H   H5        1.0  0.62271  0.07676  0.42182  1.0000
  H   H6        1.0  0.87731  0.92325  0.92182  1.0000
  H   H7        1.0  0.37728  0.92325  0.57819  1.0000
  H   H8        1.0  0.12269  0.07674  0.07818  1.0000
  H   H9        1.0  0.23491  0.89593  0.29923  1.0000
  H   H10       1.0  0.26510  0.10408  0.79923  1.0000
  H   H11       1.0  0.76508  0.10407  0.70077  1.0000
  H   H12       1.0  0.73493  0.89592  0.20076  1.0000
  H   H13       1.0  0.98584  0.61873  0.47936  1.0000
  H   H14       1.0  0.51417  0.38127  0.97936  1.0000
  H   H15       1.0  0.01417  0.38127  0.52064  1.0000
  H   H16       1.0  0.48583  0.61872  0.02064  1.0000
  H   H17       1.0  0.11001  0.62491  0.35732  1.0000
  H   H18       1.0  0.38999  0.37509  0.85732  1.0000
  H   H19       1.0  0.88997  0.37509  0.64268  1.0000
  H   H20       1.0  0.61001  0.62490  0.14268  1.0000
  C   C1        1.0  0.68067  0.83637  0.43085  1.0000
  C   C2        1.0  0.81934  0.16365  0.93085  1.0000
  C   C3        1.0  0.31931  0.16363  0.56916  1.0000
  C   C4        1.0  0.18066  0.83635  0.06915  1.0000
  C   C5        1.0  0.73411  0.99202  0.40506  1.0000
  C   C6        1.0  0.76589  0.00798  0.90506  1.0000
  C   C7        1.0  0.26587  0.00798  0.59494  1.0000
  C   C8        1.0  0.23411  0.99202  0.09494  1.0000
  C   C9        1.0  0.05393  0.90471  0.33833  1.0000
  C   C10       1.0  0.44608  0.09530  0.83833  1.0000
  C   C11       1.0  0.94606  0.09529  0.66168  1.0000
  C   C12       1.0  0.55393  0.90470  0.16167  1.0000
  C   C13       1.0  0.93137  0.63004  0.40149  1.0000
  C   C14       1.0  0.56865  0.36996  0.90150  1.0000
  C   C15       1.0  0.06863  0.36995  0.59851  1.0000
  C   C16       1.0  0.43137  0.63004  0.09851  1.0000
  C   C17       1.0  0.69658  0.48816  0.37365  1.0000
  C   C18       1.0  0.80343  0.51185  0.87365  1.0000
  C   C19       1.0  0.30342  0.51184  0.62635  1.0000
  C   C20       1.0  0.19658  0.48816  0.12635  1.0000
  N   N1        1.0  0.88438  0.78311  0.38772  1.0000
  N   N2        1.0  0.61563  0.21689  0.88772  1.0000
  N   N3        1.0  0.11560  0.21688  0.61228  1.0000
  N   N4        1.0  0.38440  0.78311  0.11228  1.0000
  N   N5        1.0  0.96784  0.03335  0.34744  1.0000
  N   N6        1.0  0.53218  0.96667  0.84745  1.0000
  N   N7        1.0  0.03215  0.96666  0.65256  1.0000
  N   N8        1.0  0.46783  0.03333  0.15255  1.0000
  O   O1        1.0  0.47873  0.50807  0.33538  1.0000
  O   O2        1.0  0.02127  0.49195  0.83538  1.0000
  O   O3        1.0  0.52128  0.49193  0.66462  1.0000
  O   O4        1.0  0.97872  0.50806  0.16462  1.0000
  O   O5        1.0  0.73871  0.35654  0.39151  1.0000
  O   O6        1.0  0.76129  0.64347  0.89152  1.0000
  O   O7        1.0  0.26128  0.64346  0.60849  1.0000
  O   O8        1.0  0.23871  0.35653  0.10849  1.0000
