data_image0
_chemical_formula_structural       Zn2H20C20N8O8
_chemical_formula_sum              "Zn2 H20 C20 N8 O8"
_cell_length_a       9.11434
_cell_length_b       9.20906
_cell_length_c       9.34644
_cell_angle_alpha    76.8484
_cell_angle_beta     60.8181
_cell_angle_gamma    62.1837

_space_group_name_H-M_alt    "P 1"
_space_group_IT_number       1

loop_
  _space_group_symop_operation_xyz
  'x, y, z'

loop_
  _atom_site_type_symbol
  _atom_site_label
  _atom_site_symmetry_multiplicity
  _atom_site_fract_x
  _atom_site_fract_y
  _atom_site_fract_z
  _atom_site_occupancy
  Zn  Zn1       1.0  0.84456  0.68360  0.78406  1.0000
  Zn  Zn2       1.0  0.62862  0.18362  0.21594  1.0000
  H   H1        1.0  0.60629  0.00127  0.99329  1.0000
  H   H2        1.0  0.59957  0.50130  0.00670  1.0000
  H   H3        1.0  0.26339  0.23046  0.00518  1.0000
  H   H4        1.0  0.26855  0.73047  0.99482  1.0000
  H   H5        1.0  0.48484  0.83329  0.69770  1.0000
  H   H6        1.0  0.18254  0.33331  0.30231  1.0000
  H   H7        1.0  0.17353  0.07191  0.72709  1.0000
  H   H8        1.0  0.90062  0.57190  0.27291  1.0000
  H   H9        1.0  0.10682  0.25680  0.81370  1.0000
  H   H10       1.0  0.92051  0.75680  0.18630  1.0000
  H   H11       1.0  0.25436  0.67712  0.67201  1.0000
  H   H12       1.0  0.92636  0.17712  0.32799  1.0000
  H   H13       1.0  0.90118  0.85195  0.44317  1.0000
  H   H14       1.0  0.34434  0.35194  0.55684  1.0000
  H   H15       1.0  0.22094  0.89530  0.23098  1.0000
  H   H16       1.0  0.45193  0.39529  0.76902  1.0000
  H   H17       1.0  0.55801  0.73650  0.24514  1.0000
  H   H18       1.0  0.80315  0.23648  0.75486  1.0000
  H   H19       1.0  0.53724  0.71565  0.44627  1.0000
  H   H20       1.0  0.98350  0.21563  0.55374  1.0000
  C   C1        1.0  0.52869  0.00116  0.93489  1.0000
  C   C2        1.0  0.46357  0.50118  0.06511  1.0000
  C   C3        1.0  0.35888  0.11272  0.94456  1.0000
  C   C4        1.0  0.30342  0.61274  0.05544  1.0000
  C   C5        1.0  0.47101  0.90930  0.78059  1.0000
  C   C6        1.0  0.25160  0.40932  0.21942  1.0000
  C   C7        1.0  0.15161  0.12383  0.83435  1.0000
  C   C8        1.0  0.98595  0.62383  0.16565  1.0000
  C   C9        1.0  0.99766  0.09381  0.99082  1.0000
  C   C10       1.0  0.98848  0.59380  0.00918  1.0000
  C   C11       1.0  0.19839  0.73387  0.58400  1.0000
  C   C12       1.0  0.78239  0.23386  0.41600  1.0000
  C   C13       1.0  0.02153  0.82349  0.45970  1.0000
  C   C14       1.0  0.48122  0.32348  0.54031  1.0000
  C   C15       1.0  0.17957  0.84496  0.35369  1.0000
  C   C16       1.0  0.53325  0.34495  0.64632  1.0000
  C   C17       1.0  0.46854  0.79091  0.36843  1.0000
  C   C18       1.0  0.83697  0.29089  0.63157  1.0000
  C   C19       1.0  0.45442  0.96561  0.35656  1.0000
  C   C20       1.0  0.81097  0.46560  0.64344  1.0000
  N   N1        1.0  0.59715  0.87455  0.83207  1.0000
  N   N2        1.0  0.42922  0.37458  0.16793  1.0000
  N   N3        1.0  0.32488  0.05327  0.84620  1.0000
  N   N4        1.0  0.17107  0.55328  0.15380  1.0000
  N   N5        1.0  0.03511  0.75381  0.60291  1.0000
  N   N6        1.0  0.63801  0.25381  0.39710  1.0000
  N   N7        1.0  0.28973  0.78711  0.43382  1.0000
  N   N8        1.0  0.72355  0.28709  0.56619  1.0000
  O   O1        1.0  0.03276  0.00428  0.10237  1.0000
  O   O2        1.0  0.13512  0.50428  0.89763  1.0000
  O   O3        1.0  0.83602  0.17128  0.99402  1.0000
  O   O4        1.0  0.83003  0.67126  0.00598  1.0000
  O   O5        1.0  0.30301  0.08418  0.42517  1.0000
  O   O6        1.0  0.72815  0.58416  0.57485  1.0000
  O   O7        1.0  0.61370  0.97094  0.26923  1.0000
  O   O8        1.0  0.88297  0.47092  0.73074  1.0000
