data_image0
_chemical_formula_structural       Zn4P4H44C12N8Cl8O12
_chemical_formula_sum              "Zn4 P4 H44 C12 N8 Cl8 O12"
_cell_length_a       8.2257
_cell_length_b       8.34128
_cell_length_c       15.0673
_cell_angle_alpha    102.842
_cell_angle_beta     89.9999
_cell_angle_gamma    90.0001

_space_group_name_H-M_alt    "P 1"
_space_group_IT_number       1

loop_
  _space_group_symop_operation_xyz
  'x, y, z'

loop_
  _atom_site_type_symbol
  _atom_site_label
  _atom_site_symmetry_multiplicity
  _atom_site_fract_x
  _atom_site_fract_y
  _atom_site_fract_z
  _atom_site_occupancy
  Zn  Zn1       1.0  0.84319  0.29773  0.74770  1.0000
  Zn  Zn2       1.0  0.34319  0.70227  0.75230  1.0000
  Zn  Zn3       1.0  0.15681  0.70227  0.25230  1.0000
  Zn  Zn4       1.0  0.65681  0.29773  0.24770  1.0000
  P   P1        1.0  0.53788  0.40033  0.63822  1.0000
  P   P2        1.0  0.03788  0.59967  0.86178  1.0000
  P   P3        1.0  0.46212  0.59967  0.36178  1.0000
  P   P4        1.0  0.96212  0.40033  0.13822  1.0000
  H   H1        1.0  0.56246  0.19397  0.49456  1.0000
  H   H2        1.0  0.06246  0.80603  0.00544  1.0000
  H   H3        1.0  0.43754  0.80603  0.50544  1.0000
  H   H4        1.0  0.93754  0.19397  0.99456  1.0000
  H   H5        1.0  0.43841  0.12615  0.57729  1.0000
  H   H6        1.0  0.93841  0.87385  0.92271  1.0000
  H   H7        1.0  0.56159  0.87385  0.42271  1.0000
  H   H8        1.0  0.06159  0.12615  0.07729  1.0000
  H   H9        1.0  0.23530  0.32134  0.55356  1.0000
  H   H10       1.0  0.73530  0.67867  0.94644  1.0000
  H   H11       1.0  0.76470  0.67866  0.44644  1.0000
  H   H12       1.0  0.26470  0.32134  0.05356  1.0000
  H   H13       1.0  0.34298  0.36954  0.46642  1.0000
  H   H14       1.0  0.84298  0.63046  0.03358  1.0000
  H   H15       1.0  0.65702  0.63046  0.53358  1.0000
  H   H16       1.0  0.15702  0.36954  0.96642  1.0000
  H   H17       1.0  0.33619  0.07478  0.38934  1.0000
  H   H18       1.0  0.83619  0.92522  0.11066  1.0000
  H   H19       1.0  0.66381  0.92522  0.61066  1.0000
  H   H20       1.0  0.16381  0.07478  0.88934  1.0000
  H   H21       1.0  0.20591  0.04258  0.47864  1.0000
  H   H22       1.0  0.70591  0.95743  0.02137  1.0000
  H   H23       1.0  0.79409  0.95742  0.52136  1.0000
  H   H24       1.0  0.29410  0.04258  0.97863  1.0000
  H   H25       1.0  0.02052  0.27218  0.43683  1.0000
  H   H26       1.0  0.52052  0.72782  0.06317  1.0000
  H   H27       1.0  0.97948  0.72782  0.56317  1.0000
  H   H28       1.0  0.47948  0.27218  0.93683  1.0000
  H   H29       1.0  0.01836  0.07200  0.36628  1.0000
  H   H30       1.0  0.51836  0.92800  0.13372  1.0000
  H   H31       1.0  0.98164  0.92800  0.63372  1.0000
  H   H32       1.0  0.48164  0.07200  0.86628  1.0000
  H   H33       1.0  0.19711  0.15826  0.26234  1.0000
  H   H34       1.0  0.69711  0.84174  0.23766  1.0000
  H   H35       1.0  0.80289  0.84174  0.73766  1.0000
  H   H36       1.0  0.30289  0.15826  0.76234  1.0000
  H   H37       1.0  0.03583  0.28155  0.27779  1.0000
  H   H38       1.0  0.53583  0.71844  0.22221  1.0000
  H   H39       1.0  0.96417  0.71845  0.72221  1.0000
  H   H40       1.0  0.46417  0.28156  0.77779  1.0000
  H   H41       1.0  0.21680  0.35123  0.33042  1.0000
  H   H42       1.0  0.71680  0.64877  0.16958  1.0000
  H   H43       1.0  0.78320  0.64877  0.66958  1.0000
  H   H44       1.0  0.28320  0.35123  0.83042  1.0000
  C   C1        1.0  0.46830  0.23032  0.54670  1.0000
  C   C2        1.0  0.96830  0.76968  0.95330  1.0000
  C   C3        1.0  0.53170  0.76968  0.45330  1.0000
  C   C4        1.0  0.03170  0.23032  0.04670  1.0000
  C   C5        1.0  0.24236  0.13111  0.43840  1.0000
  C   C6        1.0  0.74236  0.86889  0.06160  1.0000
  C   C7        1.0  0.75764  0.86889  0.56160  1.0000
  C   C8        1.0  0.25763  0.13111  0.93840  1.0000
  C   C9        1.0  0.09457  0.18073  0.39047  1.0000
  C   C10       1.0  0.59457  0.81927  0.10953  1.0000
  C   C11       1.0  0.90543  0.81928  0.60953  1.0000
  C   C12       1.0  0.40543  0.18073  0.89047  1.0000
  N   N1        1.0  0.31850  0.27480  0.50229  1.0000
  N   N2        1.0  0.81850  0.72520  0.99771  1.0000
  N   N3        1.0  0.68150  0.72520  0.49771  1.0000
  N   N4        1.0  0.18150  0.27480  0.00229  1.0000
  N   N5        1.0  0.14010  0.24865  0.31064  1.0000
  N   N6        1.0  0.64010  0.75135  0.18936  1.0000
  N   N7        1.0  0.85990  0.75135  0.68936  1.0000
  N   N8        1.0  0.35990  0.24865  0.81064  1.0000
  Cl  Cl1       1.0  0.83580  0.10089  0.83064  1.0000
  Cl  Cl2       1.0  0.33579  0.89911  0.66936  1.0000
  Cl  Cl3       1.0  0.16420  0.89911  0.16936  1.0000
  Cl  Cl4       1.0  0.66420  0.10089  0.33064  1.0000
  Cl  Cl5       1.0  0.01335  0.23966  0.62789  1.0000
  Cl  Cl6       1.0  0.51335  0.76034  0.87211  1.0000
  Cl  Cl7       1.0  0.98665  0.76034  0.37211  1.0000
  Cl  Cl8       1.0  0.48665  0.23966  0.12789  1.0000
  O   O1        1.0  0.65794  0.50851  0.60139  1.0000
  O   O2        1.0  0.15794  0.49149  0.89861  1.0000
  O   O3        1.0  0.34206  0.49149  0.39861  1.0000
  O   O4        1.0  0.84206  0.50851  0.10139  1.0000
  O   O5        1.0  0.61526  0.31296  0.70840  1.0000
  O   O6        1.0  0.11526  0.68704  0.79160  1.0000
  O   O7        1.0  0.38474  0.68704  0.29160  1.0000
  O   O8        1.0  0.88474  0.31296  0.20840  1.0000
  O   O9        1.0  0.87712  0.51617  0.82567  1.0000
  O   O10       1.0  0.37712  0.48383  0.67433  1.0000
  O   O11       1.0  0.12288  0.48383  0.17433  1.0000
  O   O12       1.0  0.62288  0.51617  0.32567  1.0000
