data_image0
_chemical_formula_structural       Cu2H16C18S2N8O6F6
_chemical_formula_sum              "Cu2 H16 C18 S2 N8 O6 F6"
_cell_length_a       8.15916
_cell_length_b       8.21753
_cell_length_c       10.8188
_cell_angle_alpha    91.5014
_cell_angle_beta     92.6191
_cell_angle_gamma    113.925

_space_group_name_H-M_alt    "P 1"
_space_group_IT_number       1

loop_
  _space_group_symop_operation_xyz
  'x, y, z'

loop_
  _atom_site_type_symbol
  _atom_site_label
  _atom_site_symmetry_multiplicity
  _atom_site_fract_x
  _atom_site_fract_y
  _atom_site_fract_z
  _atom_site_occupancy
  Cu  Cu1       1.0  0.24289  0.44722  0.24224  1.0000
  Cu  Cu2       1.0  0.75712  0.55276  0.75775  1.0000
  H   H1        1.0  0.93077  0.26315  0.39846  1.0000
  H   H2        1.0  0.06923  0.73685  0.60155  1.0000
  H   H3        1.0  0.60840  0.05426  0.35338  1.0000
  H   H4        1.0  0.39160  0.94574  0.64662  1.0000
  H   H5        1.0  0.68371  0.08218  0.97533  1.0000
  H   H6        1.0  0.31629  0.91782  0.02467  1.0000
  H   H7        1.0  0.00419  0.29391  0.01946  1.0000
  H   H8        1.0  0.99580  0.70609  0.98054  1.0000
  H   H9        1.0  0.41794  0.74107  0.43824  1.0000
  H   H10       1.0  0.58205  0.25892  0.56176  1.0000
  H   H11       1.0  0.36590  0.21727  0.38086  1.0000
  H   H12       1.0  0.63410  0.78272  0.61914  1.0000
  H   H13       1.0  0.33839  0.20757  0.08111  1.0000
  H   H14       1.0  0.66161  0.79242  0.91889  1.0000
  H   H15       1.0  0.45982  0.75157  0.09536  1.0000
  H   H16       1.0  0.54018  0.24843  0.90463  1.0000
  C   C1        1.0  0.93557  0.73892  0.31985  1.0000
  C   C2        1.0  0.06444  0.26110  0.68016  1.0000
  C   C3        1.0  0.87543  0.22371  0.30358  1.0000
  C   C4        1.0  0.12457  0.77630  0.69642  1.0000
  C   C5        1.0  0.69646  0.10717  0.27789  1.0000
  C   C6        1.0  0.30354  0.89284  0.72211  1.0000
  C   C7        1.0  0.73750  0.12242  0.07070  1.0000
  C   C8        1.0  0.26250  0.87758  0.92930  1.0000
  C   C9        1.0  0.91618  0.24008  0.09463  1.0000
  C   C10       1.0  0.08382  0.75993  0.90537  1.0000
  C   C11       1.0  0.45519  0.63323  0.46529  1.0000
  C   C12       1.0  0.54480  0.36675  0.53469  1.0000
  C   C13       1.0  0.42678  0.34461  0.43334  1.0000
  C   C14       1.0  0.57322  0.65538  0.56665  1.0000
  C   C15       1.0  0.41034  0.33827  0.04425  1.0000
  C   C16       1.0  0.58965  0.66173  0.95575  1.0000
  C   C17       1.0  0.47648  0.63876  0.05163  1.0000
  C   C18       1.0  0.52352  0.36122  0.94837  1.0000
  S   S1        1.0  0.17558  0.85464  0.28276  1.0000
  S   S2        1.0  0.82443  0.14537  0.71724  1.0000
  N   N1        1.0  0.98613  0.29152  0.21166  1.0000
  N   N2        1.0  0.01387  0.70848  0.78835  1.0000
  N   N3        1.0  0.62603  0.05572  0.16169  1.0000
  N   N4        1.0  0.37396  0.94428  0.83831  1.0000
  N   N5        1.0  0.38024  0.47750  0.39677  1.0000
  N   N6        1.0  0.61976  0.52249  0.60322  1.0000
  N   N7        1.0  0.38519  0.47695  0.09687  1.0000
  N   N8        1.0  0.61481  0.52305  0.90312  1.0000
  O   O1        1.0  0.20694  0.71545  0.21306  1.0000
  O   O2        1.0  0.79306  0.28455  0.78695  1.0000
  O   O3        1.0  0.17635  0.00151  0.20994  1.0000
  O   O4        1.0  0.82365  0.99849  0.79006  1.0000
  O   O5        1.0  0.27103  0.90580  0.40456  1.0000
  O   O6        1.0  0.72898  0.09420  0.59545  1.0000
  F   F1        1.0  0.87958  0.85173  0.38053  1.0000
  F   F2        1.0  0.12043  0.14830  0.61947  1.0000
  F   F3        1.0  0.91153  0.59984  0.39348  1.0000
  F   F4        1.0  0.08847  0.40018  0.60653  1.0000
  F   F5        1.0  0.82716  0.67259  0.21489  1.0000
  F   F6        1.0  0.17283  0.32742  0.78512  1.0000
