data_image0
_chemical_formula_structural       Cu4H20C16S12N8
_chemical_formula_sum              "Cu4 H20 C16 S12 N8"
_cell_length_a       5.80281
_cell_length_b       6.75795
_cell_length_c       19.6631
_cell_angle_alpha    89.9996
_cell_angle_beta     89.9998
_cell_angle_gamma    106.709

_space_group_name_H-M_alt    "P 1"
_space_group_IT_number       1

loop_
  _space_group_symop_operation_xyz
  'x, y, z'

loop_
  _atom_site_type_symbol
  _atom_site_label
  _atom_site_symmetry_multiplicity
  _atom_site_fract_x
  _atom_site_fract_y
  _atom_site_fract_z
  _atom_site_occupancy
  Cu  Cu1       1.0  0.81589  0.79923  0.69820  1.0000
  Cu  Cu2       1.0  0.18410  0.70077  0.19820  1.0000
  Cu  Cu3       1.0  0.18410  0.20076  0.30180  1.0000
  Cu  Cu4       1.0  0.81589  0.29923  0.80180  1.0000
  H   H1        1.0  0.51919  0.30577  0.70125  1.0000
  H   H2        1.0  0.48081  0.19424  0.20125  1.0000
  H   H3        1.0  0.48081  0.69422  0.29875  1.0000
  H   H4        1.0  0.51919  0.80576  0.79875  1.0000
  H   H5        1.0  0.35238  0.41660  0.59650  1.0000
  H   H6        1.0  0.64763  0.08341  0.09650  1.0000
  H   H7        1.0  0.64762  0.58340  0.40351  1.0000
  H   H8        1.0  0.35237  0.91658  0.90350  1.0000
  H   H9        1.0  0.27877  0.14172  0.59166  1.0000
  H   H10       1.0  0.72124  0.35828  0.09166  1.0000
  H   H11       1.0  0.72124  0.85828  0.40834  1.0000
  H   H12       1.0  0.27876  0.64172  0.90834  1.0000
  H   H13       1.0  0.69739  0.46173  0.52085  1.0000
  H   H14       1.0  0.30263  0.03828  0.02085  1.0000
  H   H15       1.0  0.30262  0.53828  0.47916  1.0000
  H   H16       1.0  0.69737  0.96171  0.97915  1.0000
  H   H17       1.0  0.49988  0.22602  0.48729  1.0000
  H   H18       1.0  0.50013  0.27399  0.98729  1.0000
  H   H19       1.0  0.50013  0.77399  0.51271  1.0000
  H   H20       1.0  0.49987  0.72600  0.01271  1.0000
  C   C1        1.0  0.76623  0.21514  0.64463  1.0000
  C   C2        1.0  0.23377  0.28486  0.14463  1.0000
  C   C3        1.0  0.23377  0.78485  0.35537  1.0000
  C   C4        1.0  0.76623  0.71514  0.85537  1.0000
  C   C5        1.0  0.42787  0.28580  0.59342  1.0000
  C   C6        1.0  0.57213  0.21421  0.09342  1.0000
  C   C7        1.0  0.57213  0.71421  0.40658  1.0000
  C   C8        1.0  0.42787  0.78578  0.90658  1.0000
  C   C9        1.0  0.59537  0.30177  0.53263  1.0000
  C   C10       1.0  0.40464  0.19824  0.03263  1.0000
  C   C11       1.0  0.40463  0.69824  0.46737  1.0000
  C   C12       1.0  0.59536  0.80176  0.96737  1.0000
  C   C13       1.0  0.29828  0.74483  0.64892  1.0000
  C   C14       1.0  0.70169  0.75517  0.14892  1.0000
  C   C15       1.0  0.70170  0.25517  0.35108  1.0000
  C   C16       1.0  0.29831  0.24483  0.85108  1.0000
  S   S1        1.0  0.94669  0.17516  0.70764  1.0000
  S   S2        1.0  0.05330  0.32483  0.20764  1.0000
  S   S3        1.0  0.05330  0.82484  0.29236  1.0000
  S   S4        1.0  0.94670  0.67516  0.79236  1.0000
  S   S5        1.0  0.81303  0.16838  0.55918  1.0000
  S   S6        1.0  0.18697  0.33162  0.05918  1.0000
  S   S7        1.0  0.18697  0.83162  0.44082  1.0000
  S   S8        1.0  0.81303  0.66838  0.94082  1.0000
  S   S9        1.0  0.04912  0.74042  0.60932  1.0000
  S   S10       1.0  0.95088  0.75959  0.10932  1.0000
  S   S11       1.0  0.95086  0.25958  0.39068  1.0000
  S   S12       1.0  0.04912  0.24042  0.89068  1.0000
  N   N1        1.0  0.57467  0.28247  0.65330  1.0000
  N   N2        1.0  0.42534  0.21753  0.15329  1.0000
  N   N3        1.0  0.42533  0.71752  0.34671  1.0000
  N   N4        1.0  0.57467  0.78247  0.84671  1.0000
  N   N5        1.0  0.48199  0.74645  0.67567  1.0000
  N   N6        1.0  0.51800  0.75355  0.17567  1.0000
  N   N7        1.0  0.51799  0.25355  0.32433  1.0000
  N   N8        1.0  0.48199  0.24646  0.82433  1.0000
