data_image0
_chemical_formula_structural       Ca2P4H56C24O12
_chemical_formula_sum              "Ca2 P4 H56 C24 O12"
_cell_length_a       5.56824
_cell_length_b       7.27313
_cell_length_c       20.7605
_cell_angle_alpha    96.767
_cell_angle_beta     95.1277
_cell_angle_gamma    90.3848

_space_group_name_H-M_alt    "P 1"
_space_group_IT_number       1

loop_
  _space_group_symop_operation_xyz
  'x, y, z'

loop_
  _atom_site_type_symbol
  _atom_site_label
  _atom_site_symmetry_multiplicity
  _atom_site_fract_x
  _atom_site_fract_y
  _atom_site_fract_z
  _atom_site_occupancy
  Ca  Ca1       1.0  0.13165  0.75112  0.99995  1.0000
  Ca  Ca2       1.0  0.86836  0.24888  0.00005  1.0000
  P   P1        1.0  0.29070  0.10930  0.90199  1.0000
  P   P2        1.0  0.70931  0.89070  0.09801  1.0000
  P   P3        1.0  0.64328  0.60745  0.90329  1.0000
  P   P4        1.0  0.35672  0.39255  0.09671  1.0000
  H   H1        1.0  0.26610  0.42570  0.90457  1.0000
  H   H2        1.0  0.73390  0.57431  0.09543  1.0000
  H   H3        1.0  0.66962  0.92237  0.90487  1.0000
  H   H4        1.0  0.33038  0.07763  0.09513  1.0000
  H   H5        1.0  0.39493  0.97907  0.79832  1.0000
  H   H6        1.0  0.60508  0.02094  0.20168  1.0000
  H   H7        1.0  0.23007  0.82182  0.83681  1.0000
  H   H8        1.0  0.76995  0.17818  0.16318  1.0000
  H   H9        1.0  0.84805  0.99943  0.80947  1.0000
  H   H10       1.0  0.15196  0.00057  0.19053  1.0000
  H   H11       1.0  0.01808  0.14343  0.76723  1.0000
  H   H12       1.0  0.98193  0.85657  0.23277  1.0000
  H   H13       1.0  0.13725  0.86100  0.69484  1.0000
  H   H14       1.0  0.86275  0.13900  0.30516  1.0000
  H   H15       1.0  0.96529  0.72025  0.73732  1.0000
  H   H16       1.0  0.03471  0.27975  0.26268  1.0000
  H   H17       1.0  0.58906  0.88094  0.70085  1.0000
  H   H18       1.0  0.41094  0.11906  0.29915  1.0000
  H   H19       1.0  0.75889  0.02607  0.65933  1.0000
  H   H20       1.0  0.24111  0.97393  0.34067  1.0000
  H   H21       1.0  0.89447  0.74807  0.58905  1.0000
  H   H22       1.0  0.10552  0.25193  0.41095  1.0000
  H   H23       1.0  0.72915  0.60211  0.63114  1.0000
  H   H24       1.0  0.27083  0.39790  0.36885  1.0000
  H   H25       1.0  0.34214  0.75446  0.59262  1.0000
  H   H26       1.0  0.65785  0.24556  0.40738  1.0000
  H   H27       1.0  0.51058  0.89703  0.54891  1.0000
  H   H28       1.0  0.48942  0.10298  0.45109  1.0000
  H   H29       1.0  0.49628  0.65370  0.52651  1.0000
  H   H30       1.0  0.50371  0.34631  0.47349  1.0000
  H   H31       1.0  0.84331  0.48197  0.81263  1.0000
  H   H32       1.0  0.15669  0.51803  0.18737  1.0000
  H   H33       1.0  0.65278  0.31738  0.83874  1.0000
  H   H34       1.0  0.34722  0.68262  0.16126  1.0000
  H   H35       1.0  0.48738  0.63621  0.76031  1.0000
  H   H36       1.0  0.51262  0.36379  0.23969  1.0000
  H   H37       1.0  0.28836  0.49291  0.79409  1.0000
  H   H38       1.0  0.71163  0.50709  0.20591  1.0000
  H   H39       1.0  0.45481  0.21325  0.72884  1.0000
  H   H40       1.0  0.54520  0.78675  0.27116  1.0000
  H   H41       1.0  0.62598  0.36386  0.68978  1.0000
  H   H42       1.0  0.37401  0.63614  0.31022  1.0000
  H   H43       1.0  0.07480  0.36675  0.69119  1.0000
  H   H44       1.0  0.92519  0.63323  0.30882  1.0000
  H   H45       1.0  0.24166  0.51805  0.65143  1.0000
  H   H46       1.0  0.75832  0.48194  0.34857  1.0000
  H   H47       1.0  0.38446  0.24737  0.57899  1.0000
  H   H48       1.0  0.61554  0.75263  0.42101  1.0000
  H   H49       1.0  0.22250  0.09495  0.61963  1.0000
  H   H50       1.0  0.77750  0.90505  0.38037  1.0000
  H   H51       1.0  0.98654  0.15703  0.51565  1.0000
  H   H52       1.0  0.01346  0.84296  0.48435  1.0000
  H   H53       1.0  0.99511  0.39804  0.54260  1.0000
  H   H54       1.0  0.00489  0.60195  0.45740  1.0000
  H   H55       1.0  0.83215  0.24460  0.58352  1.0000
  H   H56       1.0  0.16785  0.75539  0.41648  1.0000
  C   C1        1.0  0.23428  0.96500  0.82484  1.0000
  C   C2        1.0  0.76573  0.03501  0.17516  1.0000
  C   C3        1.0  0.00671  0.00322  0.78175  1.0000
  C   C4        1.0  0.99329  0.99678  0.21825  1.0000
  C   C5        1.0  0.97446  0.85954  0.72154  1.0000
  C   C6        1.0  0.02554  0.14045  0.27846  1.0000
  C   C7        1.0  0.75313  0.88642  0.67489  1.0000
  C   C8        1.0  0.24687  0.11358  0.32511  1.0000
  C   C9        1.0  0.73104  0.74113  0.61505  1.0000
  C   C10       1.0  0.26896  0.25887  0.38495  1.0000
  C   C11       1.0  0.50863  0.76261  0.56819  1.0000
  C   C12       1.0  0.49137  0.23740  0.43181  1.0000
  C   C13       1.0  0.66124  0.46102  0.82745  1.0000
  C   C14       1.0  0.33876  0.53898  0.17255  1.0000
  C   C15       1.0  0.46490  0.49613  0.77423  1.0000
  C   C16       1.0  0.53510  0.50387  0.22577  1.0000
  C   C17       1.0  0.45832  0.35370  0.71387  1.0000
  C   C18       1.0  0.54168  0.64630  0.28613  1.0000
  C   C19       1.0  0.23968  0.37688  0.66581  1.0000
  C   C20       1.0  0.76032  0.62311  0.33419  1.0000
  C   C21       1.0  0.22178  0.23572  0.60498  1.0000
  C   C22       1.0  0.77822  0.76427  0.39502  1.0000
  C   C23       1.0  0.99735  0.25976  0.55908  1.0000
  C   C24       1.0  0.00265  0.74023  0.44092  1.0000
  O   O1        1.0  0.56492  0.12206  0.92000  1.0000
  O   O2        1.0  0.43507  0.87795  0.08000  1.0000
  O   O3        1.0  0.17909  0.30199  0.88831  1.0000
  O   O4        1.0  0.82091  0.69802  0.11169  1.0000
  O   O5        1.0  0.15240  0.03706  0.95438  1.0000
  O   O6        1.0  0.84760  0.96294  0.04562  1.0000
  O   O7        1.0  0.37947  0.62224  0.91947  1.0000
  O   O8        1.0  0.62053  0.37776  0.08053  1.0000
  O   O9        1.0  0.74766  0.80047  0.88916  1.0000
  O   O10       1.0  0.25234  0.19953  0.11084  1.0000
  O   O11       1.0  0.81217  0.53784  0.95680  1.0000
  O   O12       1.0  0.18783  0.46217  0.04320  1.0000
