data_image0
_chemical_formula_structural       Ag4H32C48N8O8
_chemical_formula_sum              "Ag4 H32 C48 N8 O8"
_cell_length_a       6.77901
_cell_length_b       13.253
_cell_length_c       14.1486
_cell_angle_alpha    117.937
_cell_angle_beta     100.214
_cell_angle_gamma    89.9753

_space_group_name_H-M_alt    "P 1"
_space_group_IT_number       1

loop_
  _space_group_symop_operation_xyz
  'x, y, z'

loop_
  _atom_site_type_symbol
  _atom_site_label
  _atom_site_symmetry_multiplicity
  _atom_site_fract_x
  _atom_site_fract_y
  _atom_site_fract_z
  _atom_site_occupancy
  Ag  Ag1       1.0  0.89067  0.39495  0.92387  1.0000
  Ag  Ag2       1.0  0.60951  0.47108  0.07612  1.0000
  Ag  Ag3       1.0  0.10932  0.60506  0.07613  1.0000
  Ag  Ag4       1.0  0.39049  0.52891  0.92388  1.0000
  H   H1        1.0  0.65980  0.48975  0.67040  1.0000
  H   H2        1.0  0.83993  0.81944  0.32961  1.0000
  H   H3        1.0  0.34020  0.51025  0.32960  1.0000
  H   H4        1.0  0.16007  0.18055  0.67038  1.0000
  H   H5        1.0  0.53109  0.77260  0.60842  1.0000
  H   H6        1.0  0.96865  0.16424  0.39161  1.0000
  H   H7        1.0  0.46892  0.22739  0.39157  1.0000
  H   H8        1.0  0.03134  0.83575  0.60837  1.0000
  H   H9        1.0  0.69057  0.91082  0.80283  1.0000
  H   H10       1.0  0.80922  0.10803  0.19717  1.0000
  H   H11       1.0  0.30944  0.08918  0.19716  1.0000
  H   H12       1.0  0.19078  0.89196  0.80281  1.0000
  H   H13       1.0  0.84193  0.83353  0.92826  1.0000
  H   H14       1.0  0.65787  0.90537  0.07175  1.0000
  H   H15       1.0  0.15808  0.16647  0.07173  1.0000
  H   H16       1.0  0.34213  0.09462  0.92824  1.0000
  H   H17       1.0  0.64213  0.34060  0.69448  1.0000
  H   H18       1.0  0.85798  0.64609  0.30548  1.0000
  H   H19       1.0  0.35787  0.65940  0.30552  1.0000
  H   H20       1.0  0.14201  0.35391  0.69452  1.0000
  H   H21       1.0  0.48417  0.18510  0.51144  1.0000
  H   H22       1.0  0.01585  0.67364  0.48856  1.0000
  H   H23       1.0  0.51583  0.81490  0.48856  1.0000
  H   H24       1.0  0.98416  0.32635  0.51144  1.0000
  H   H25       1.0  0.62729  0.94609  0.63631  1.0000
  H   H26       1.0  0.87281  0.30978  0.36372  1.0000
  H   H27       1.0  0.37272  0.05391  0.36369  1.0000
  H   H28       1.0  0.12720  0.69022  0.63627  1.0000
  H   H29       1.0  0.77492  0.11271  0.81385  1.0000
  H   H30       1.0  0.72529  0.29885  0.18615  1.0000
  H   H31       1.0  0.22508  0.88730  0.18615  1.0000
  H   H32       1.0  0.27472  0.70114  0.81385  1.0000
  C   C1        1.0  0.84473  0.60983  0.88185  1.0000
  C   C2        1.0  0.65524  0.72801  0.11815  1.0000
  C   C3        1.0  0.15527  0.39018  0.11815  1.0000
  C   C4        1.0  0.34476  0.27198  0.88184  1.0000
  C   C5        1.0  0.75821  0.65729  0.80705  1.0000
  C   C6        1.0  0.74167  0.85031  0.19295  1.0000
  C   C7        1.0  0.24179  0.34271  0.19295  1.0000
  C   C8        1.0  0.25832  0.14969  0.80704  1.0000
  C   C9        1.0  0.66954  0.58165  0.69921  1.0000
  C   C10       1.0  0.83024  0.88253  0.30081  1.0000
  C   C11       1.0  0.33046  0.41835  0.30079  1.0000
  C   C12       1.0  0.16975  0.11746  0.69918  1.0000
  C   C13       1.0  0.59270  0.62354  0.62705  1.0000
  C   C14       1.0  0.90712  0.99657  0.37299  1.0000
  C   C15       1.0  0.40730  0.37645  0.37295  1.0000
  C   C16       1.0  0.09288  0.00343  0.62701  1.0000
  C   C17       1.0  0.59919  0.74239  0.66514  1.0000
  C   C18       1.0  0.90062  0.07731  0.33488  1.0000
  C   C19       1.0  0.40082  0.25761  0.33485  1.0000
  C   C20       1.0  0.09937  0.92269  0.66511  1.0000
  C   C21       1.0  0.68687  0.81851  0.77340  1.0000
  C   C22       1.0  0.81300  0.04515  0.22662  1.0000
  C   C23       1.0  0.31314  0.18149  0.22659  1.0000
  C   C24       1.0  0.18700  0.95485  0.77337  1.0000
  C   C25       1.0  0.76920  0.77616  0.84390  1.0000
  C   C26       1.0  0.73068  0.93232  0.15610  1.0000
  C   C27       1.0  0.23081  0.22384  0.15609  1.0000
  C   C28       1.0  0.26931  0.06767  0.84389  1.0000
  C   C29       1.0  0.63548  0.25118  0.67709  1.0000
  C   C30       1.0  0.86463  0.57408  0.32289  1.0000
  C   C31       1.0  0.36451  0.74882  0.32291  1.0000
  C   C32       1.0  0.13538  0.42592  0.67710  1.0000
  C   C33       1.0  0.54796  0.16282  0.57456  1.0000
  C   C34       1.0  0.95211  0.58827  0.42545  1.0000
  C   C35       1.0  0.45204  0.83718  0.42544  1.0000
  C   C36       1.0  0.04789  0.41173  0.57454  1.0000
  C   C37       1.0  0.54320  0.04846  0.55447  1.0000
  C   C38       1.0  0.95682  0.49397  0.44553  1.0000
  C   C39       1.0  0.45680  0.95154  0.44553  1.0000
  C   C40       1.0  0.04318  0.50603  0.55447  1.0000
  C   C41       1.0  0.62521  0.03148  0.64371  1.0000
  C   C42       1.0  0.87487  0.38775  0.35630  1.0000
  C   C43       1.0  0.37479  0.96852  0.35629  1.0000
  C   C44       1.0  0.12514  0.61224  0.64369  1.0000
  C   C45       1.0  0.70926  0.12471  0.74400  1.0000
  C   C46       1.0  0.79088  0.38071  0.25601  1.0000
  C   C47       1.0  0.29074  0.87529  0.25600  1.0000
  C   C48       1.0  0.20912  0.61928  0.74399  1.0000
  N   N1        1.0  0.50082  0.55348  0.51623  1.0000
  N   N2        1.0  0.99902  0.03729  0.48380  1.0000
  N   N3        1.0  0.49918  0.44651  0.48377  1.0000
  N   N4        1.0  0.00097  0.96271  0.51619  1.0000
  N   N5        1.0  0.71723  0.23331  0.76114  1.0000
  N   N6        1.0  0.78293  0.47215  0.23885  1.0000
  N   N7        1.0  0.28277  0.76669  0.23886  1.0000
  N   N8        1.0  0.21707  0.52784  0.76114  1.0000
  O   O1        1.0  0.78228  0.50626  0.85043  1.0000
  O   O2        1.0  0.71770  0.65589  0.14965  1.0000
  O   O3        1.0  0.21773  0.49374  0.14957  1.0000
  O   O4        1.0  0.28230  0.34411  0.85035  1.0000
  O   O5        1.0  0.97224  0.67571  0.96718  1.0000
  O   O6        1.0  0.52777  0.70852  0.03279  1.0000
  O   O7        1.0  0.02776  0.32430  0.03282  1.0000
  O   O8        1.0  0.47222  0.29147  0.96720  1.0000
