data_image0
_chemical_formula_structural       Cu4H36C36N4O16
_chemical_formula_sum              "Cu4 H36 C36 N4 O16"
_cell_length_a       6.64325
_cell_length_b       9.27283
_cell_length_c       16.4373
_cell_angle_alpha    76.5636
_cell_angle_beta     78.3757
_cell_angle_gamma    68.9745

_space_group_name_H-M_alt    "P 1"
_space_group_IT_number       1

loop_
  _space_group_symop_operation_xyz
  'x, y, z'

loop_
  _atom_site_type_symbol
  _atom_site_label
  _atom_site_symmetry_multiplicity
  _atom_site_fract_x
  _atom_site_fract_y
  _atom_site_fract_z
  _atom_site_occupancy
  Cu  Cu1       1.0  0.03476  0.96088  0.79757  1.0000
  Cu  Cu2       1.0  0.79244  0.53945  0.70253  1.0000
  Cu  Cu3       1.0  0.96524  0.03913  0.20243  1.0000
  Cu  Cu4       1.0  0.20757  0.46054  0.29747  1.0000
  H   H1        1.0  0.25830  0.13226  0.70575  1.0000
  H   H2        1.0  0.09582  0.36787  0.79438  1.0000
  H   H3        1.0  0.74170  0.86773  0.29425  1.0000
  H   H4        1.0  0.90418  0.63213  0.20562  1.0000
  H   H5        1.0  0.01304  0.21201  0.67952  1.0000
  H   H6        1.0  0.90419  0.28827  0.82065  1.0000
  H   H7        1.0  0.98696  0.78799  0.32048  1.0000
  H   H8        1.0  0.09581  0.71173  0.17935  1.0000
  H   H9        1.0  0.21631  0.57499  0.93739  1.0000
  H   H10       1.0  0.72745  0.92532  0.56257  1.0000
  H   H11       1.0  0.78369  0.42502  0.06261  1.0000
  H   H12       1.0  0.27256  0.07468  0.43743  1.0000
  H   H13       1.0  0.03086  0.59218  0.86727  1.0000
  H   H14       1.0  0.48936  0.90815  0.63273  1.0000
  H   H15       1.0  0.96914  0.40782  0.13273  1.0000
  H   H16       1.0  0.51065  0.09184  0.36727  1.0000
  H   H17       1.0  0.92674  0.73228  0.02175  1.0000
  H   H18       1.0  0.68049  0.76755  0.47815  1.0000
  H   H19       1.0  0.07325  0.26773  0.97825  1.0000
  H   H20       1.0  0.31952  0.23244  0.52186  1.0000
  H   H21       1.0  0.68834  0.87425  0.11606  1.0000
  H   H22       1.0  0.67848  0.62550  0.38397  1.0000
  H   H23       1.0  0.31166  0.12575  0.88394  1.0000
  H   H24       1.0  0.32152  0.37450  0.61604  1.0000
  H   H25       1.0  0.44259  0.12309  0.16235  1.0000
  H   H26       1.0  0.72802  0.37667  0.33774  1.0000
  H   H27       1.0  0.55741  0.87692  0.83765  1.0000
  H   H28       1.0  0.27197  0.62333  0.66226  1.0000
  H   H29       1.0  0.38857  0.37401  0.06098  1.0000
  H   H30       1.0  0.82440  0.12574  0.43914  1.0000
  H   H31       1.0  0.61143  0.62600  0.93901  1.0000
  H   H32       1.0  0.17559  0.87426  0.56086  1.0000
  H   H33       1.0  0.57626  0.37551  0.91261  1.0000
  H   H34       1.0  0.86545  0.12435  0.58752  1.0000
  H   H35       1.0  0.42374  0.62449  0.08739  1.0000
  H   H36       1.0  0.13454  0.87565  0.41248  1.0000
  C   C1        1.0  0.30774  0.65373  0.80408  1.0000
  C   C2        1.0  0.76508  0.84651  0.69586  1.0000
  C   C3        1.0  0.69225  0.34627  0.19592  1.0000
  C   C4        1.0  0.23493  0.15349  0.30414  1.0000
  C   C5        1.0  0.13833  0.64739  0.88183  1.0000
  C   C6        1.0  0.66666  0.85287  0.61813  1.0000
  C   C7        1.0  0.86167  0.35261  0.11817  1.0000
  C   C8        1.0  0.33335  0.14712  0.38187  1.0000
  C   C9        1.0  0.91106  0.83254  0.96937  1.0000
  C   C10       1.0  0.71263  0.66747  0.53063  1.0000
  C   C11       1.0  0.08894  0.16746  0.03063  1.0000
  C   C12       1.0  0.28738  0.33253  0.46937  1.0000
  C   C13       1.0  0.77739  0.98316  0.99003  1.0000
  C   C14       1.0  0.75060  0.51677  0.51004  1.0000
  C   C15       1.0  0.22261  0.01685  0.00997  1.0000
  C   C16       1.0  0.24940  0.48323  0.48996  1.0000
  C   C17       1.0  0.66781  0.98605  0.07291  1.0000
  C   C18       1.0  0.72684  0.51374  0.42715  1.0000
  C   C19       1.0  0.33218  0.01396  0.92709  1.0000
  C   C20       1.0  0.27315  0.48626  0.57285  1.0000
  C   C21       1.0  0.53080  0.12403  0.09917  1.0000
  C   C22       1.0  0.75424  0.37573  0.40092  1.0000
  C   C23       1.0  0.46920  0.87598  0.90083  1.0000
  C   C24       1.0  0.24575  0.62427  0.59908  1.0000
  C   C25       1.0  0.49903  0.26484  0.04106  1.0000
  C   C26       1.0  0.80559  0.23494  0.45904  1.0000
  C   C27       1.0  0.50097  0.73517  0.95894  1.0000
  C   C28       1.0  0.19440  0.76505  0.54096  1.0000
  C   C29       1.0  0.60456  0.26721  0.95893  1.0000
  C   C30       1.0  0.83143  0.23266  0.54118  1.0000
  C   C31       1.0  0.39544  0.73280  0.04106  1.0000
  C   C32       1.0  0.16856  0.76734  0.45882  1.0000
  C   C33       1.0  0.74763  0.12742  0.93126  1.0000
  C   C34       1.0  0.80648  0.37255  0.56886  1.0000
  C   C35       1.0  0.25237  0.87259  0.06874  1.0000
  C   C36       1.0  0.19352  0.62745  0.43114  1.0000
  N   N1        1.0  0.00997  0.80540  0.89562  1.0000
  N   N2        1.0  0.71027  0.69485  0.60439  1.0000
  N   N3        1.0  0.99003  0.19460  0.10438  1.0000
  N   N4        1.0  0.28973  0.30515  0.39562  1.0000
  O   O1        1.0  0.84872  0.13716  0.85271  1.0000
  O   O2        1.0  0.83833  0.36295  0.64748  1.0000
  O   O3        1.0  0.15128  0.86284  0.14729  1.0000
  O   O4        1.0  0.16167  0.63705  0.35252  1.0000
  O   O5        1.0  0.27925  0.78819  0.75508  1.0000
  O   O6        1.0  0.82213  0.71208  0.74491  1.0000
  O   O7        1.0  0.72074  0.21181  0.24492  1.0000
  O   O8        1.0  0.17788  0.28791  0.25509  1.0000
  O   O9        1.0  0.77797  0.96974  0.71012  1.0000
  O   O10       1.0  0.45797  0.53041  0.78977  1.0000
  O   O11       1.0  0.22205  0.03026  0.28988  1.0000
  O   O12       1.0  0.54203  0.46959  0.21022  1.0000
  O   O13       1.0  0.13395  0.10803  0.69731  1.0000
  O   O14       1.0  0.93876  0.39220  0.80289  1.0000
  O   O15       1.0  0.86605  0.89197  0.30269  1.0000
  O   O16       1.0  0.06125  0.60780  0.19711  1.0000
