data_image0
_chemical_formula_structural       CdH18C16N4O6
_chemical_formula_sum              "Cd1 H18 C16 N4 O6"
_cell_length_a       7.10523
_cell_length_b       8.28743
_cell_length_c       9.30242
_cell_angle_alpha    94.1907
_cell_angle_beta     117.187
_cell_angle_gamma    102.775

_space_group_name_H-M_alt    "P 1"
_space_group_IT_number       1

loop_
  _space_group_symop_operation_xyz
  'x, y, z'

loop_
  _atom_site_type_symbol
  _atom_site_label
  _atom_site_symmetry_multiplicity
  _atom_site_fract_x
  _atom_site_fract_y
  _atom_site_fract_z
  _atom_site_occupancy
  Cd  Cd1       1.0  0.00002  0.00001  0.00000  1.0000
  H   H1        1.0  0.69195  0.73446  0.65326  1.0000
  H   H2        1.0  0.30808  0.26555  0.34676  1.0000
  H   H3        1.0  0.50469  0.72682  0.34653  1.0000
  H   H4        1.0  0.49530  0.27317  0.65349  1.0000
  H   H5        1.0  0.60118  0.98954  0.24637  1.0000
  H   H6        1.0  0.39880  0.01043  0.75363  1.0000
  H   H7        1.0  0.02795  0.24068  0.75655  1.0000
  H   H8        1.0  0.97207  0.75932  0.24343  1.0000
  H   H9        1.0  0.82891  0.27855  0.30687  1.0000
  H   H10       1.0  0.17108  0.72144  0.69310  1.0000
  H   H11       1.0  0.46019  0.44000  0.82568  1.0000
  H   H12       1.0  0.53981  0.56002  0.17432  1.0000
  H   H13       1.0  0.28160  0.52589  0.87169  1.0000
  H   H14       1.0  0.71840  0.47412  0.12832  1.0000
  H   H15       1.0  0.09266  0.69865  0.97393  1.0000
  H   H16       1.0  0.90735  0.30135  0.02608  1.0000
  H   H17       1.0  0.32563  0.80960  0.99494  1.0000
  H   H18       1.0  0.67438  0.19041  0.00506  1.0000
  C   C1        1.0  0.72474  0.84534  0.60256  1.0000
  C   C2        1.0  0.27527  0.15466  0.39745  1.0000
  C   C3        1.0  0.62402  0.84178  0.43369  1.0000
  C   C4        1.0  0.37599  0.15820  0.56634  1.0000
  C   C5        1.0  0.67574  0.98776  0.37785  1.0000
  C   C6        1.0  0.32424  0.01222  0.62214  1.0000
  C   C7        1.0  0.82309  0.13561  0.49412  1.0000
  C   C8        1.0  0.17689  0.86438  0.50586  1.0000
  C   C9        1.0  0.91435  0.12854  0.66218  1.0000
  C   C10       1.0  0.08565  0.87146  0.33780  1.0000
  C   C11       1.0  0.87846  0.28992  0.43843  1.0000
  C   C12       1.0  0.12152  0.71007  0.56154  1.0000
  C   C13       1.0  0.59246  0.70488  0.93493  1.0000
  C   C14       1.0  0.40755  0.29513  0.06508  1.0000
  C   C15       1.0  0.45442  0.52803  0.91660  1.0000
  C   C16       1.0  0.54558  0.47198  0.08340  1.0000
  N   N1        1.0  0.86806  0.98670  0.71474  1.0000
  N   N2        1.0  0.13195  0.01331  0.28526  1.0000
  N   N3        1.0  0.97986  0.43505  0.53904  1.0000
  N   N4        1.0  0.02012  0.56494  0.46093  1.0000
  O   O1        1.0  0.77179  0.71758  0.92935  1.0000
  O   O2        1.0  0.22822  0.28244  0.07066  1.0000
  O   O3        1.0  0.53032  0.83117  0.95962  1.0000
  O   O4        1.0  0.46967  0.16884  0.04038  1.0000
  O   O5        1.0  0.21191  0.80291  0.03325  1.0000
  O   O6        1.0  0.78810  0.19710  0.96675  1.0000
