data_image0
_chemical_formula_structural       CuH16C10N16Cl2O6
_chemical_formula_sum              "Cu1 H16 C10 N16 Cl2 O6"
_cell_length_a       6.81011
_cell_length_b       8.11893
_cell_length_c       10.1571
_cell_angle_alpha    107.556
_cell_angle_beta     101.047
_cell_angle_gamma    90.9381

_space_group_name_H-M_alt    "P 1"
_space_group_IT_number       1

loop_
  _space_group_symop_operation_xyz
  'x, y, z'

loop_
  _atom_site_type_symbol
  _atom_site_label
  _atom_site_symmetry_multiplicity
  _atom_site_fract_x
  _atom_site_fract_y
  _atom_site_fract_z
  _atom_site_occupancy
  Cu  Cu1       1.0  0.50000  1.00000  0.50000  1.0000
  H   H1        1.0  0.67800  0.40247  0.56291  1.0000
  H   H2        1.0  0.32201  0.59752  0.43709  1.0000
  H   H3        1.0  0.84153  0.67740  0.74300  1.0000
  H   H4        1.0  0.15847  0.32260  0.25700  1.0000
  H   H5        1.0  0.02900  0.63581  0.87566  1.0000
  H   H6        1.0  0.97100  0.36419  0.12434  1.0000
  H   H7        1.0  0.82532  0.87542  0.97882  1.0000
  H   H8        1.0  0.17468  0.12458  0.02117  1.0000
  H   H9        1.0  0.81453  0.70084  0.04715  1.0000
  H   H10       1.0  0.18547  0.29916  0.95284  1.0000
  H   H11       1.0  0.48279  0.78841  0.01603  1.0000
  H   H12       1.0  0.51722  0.21158  0.98397  1.0000
  H   H13       1.0  0.47423  0.58994  0.87981  1.0000
  H   H14       1.0  0.52577  0.41006  0.12019  1.0000
  H   H15       1.0  0.11373  0.97762  0.65553  1.0000
  H   H16       1.0  0.88627  0.02238  0.34447  1.0000
  C   C1        1.0  0.70379  0.35412  0.65312  1.0000
  C   C2        1.0  0.29622  0.64588  0.34688  1.0000
  C   C3        1.0  0.86728  0.63169  0.83540  1.0000
  C   C4        1.0  0.13272  0.36831  0.16460  1.0000
  C   C5        1.0  0.76769  0.73961  0.95192  1.0000
  C   C6        1.0  0.23231  0.26039  0.04807  1.0000
  C   C7        1.0  0.53918  0.72535  0.92040  1.0000
  C   C8        1.0  0.46083  0.27465  0.07960  1.0000
  C   C9        1.0  0.24628  0.92337  0.69789  1.0000
  C   C10       1.0  0.75372  0.07663  0.30211  1.0000
  N   N1        1.0  0.78908  0.44988  0.78455  1.0000
  N   N2        1.0  0.21093  0.55012  0.21545  1.0000
  N   N3        1.0  0.79684  0.35021  0.87095  1.0000
  N   N4        1.0  0.20316  0.64979  0.12905  1.0000
  N   N5        1.0  0.71858  0.19710  0.79335  1.0000
  N   N6        1.0  0.28142  0.80290  0.20666  1.0000
  N   N7        1.0  0.66024  0.19561  0.65709  1.0000
  N   N8        1.0  0.33976  0.80439  0.34291  1.0000
  N   N9        1.0  0.26604  0.86368  0.80796  1.0000
  N   N10       1.0  0.73396  0.13632  0.19205  1.0000
  N   N11       1.0  0.45143  0.80967  0.81648  1.0000
  N   N12       1.0  0.54857  0.19033  0.18352  1.0000
  N   N13       1.0  0.54386  0.83112  0.71983  1.0000
  N   N14       1.0  0.45613  0.16887  0.28017  1.0000
  N   N15       1.0  0.41490  0.90417  0.64394  1.0000
  N   N16       1.0  0.58510  0.09583  0.35606  1.0000
  Cl  Cl1       1.0  0.16766  0.34212  0.60221  1.0000
  Cl  Cl2       1.0  0.83233  0.65788  0.39778  1.0000
  O   O1        1.0  0.19354  0.16555  0.50489  1.0000
  O   O2        1.0  0.80647  0.83446  0.49511  1.0000
  O   O3        1.0  0.30055  0.47291  0.57543  1.0000
  O   O4        1.0  0.69945  0.52709  0.42457  1.0000
  O   O5        1.0  0.24432  0.34271  0.75113  1.0000
  O   O6        1.0  0.75567  0.65730  0.24887  1.0000
