data_image0
_chemical_formula_structural       Co2H32C30N2O14
_chemical_formula_sum              "Co2 H32 C30 N2 O14"
_cell_length_a       9.9319
_cell_length_b       9.98341
_cell_length_c       11.8206
_cell_angle_alpha    65.6827
_cell_angle_beta     61.9244
_cell_angle_gamma    65.2649

_space_group_name_H-M_alt    "P 1"
_space_group_IT_number       1

loop_
  _space_group_symop_operation_xyz
  'x, y, z'

loop_
  _atom_site_type_symbol
  _atom_site_label
  _atom_site_symmetry_multiplicity
  _atom_site_fract_x
  _atom_site_fract_y
  _atom_site_fract_z
  _atom_site_occupancy
  Co  Co1       1.0  0.34668  0.73681  0.07336  1.0000
  Co  Co2       1.0  0.65332  0.26319  0.92664  1.0000
  H   H1        1.0  0.88089  0.76516  0.05513  1.0000
  H   H2        1.0  0.11911  0.23484  0.94487  1.0000
  H   H3        1.0  0.29933  0.58951  0.74752  1.0000
  H   H4        1.0  0.70068  0.41049  0.25248  1.0000
  H   H5        1.0  0.83697  0.62329  0.77822  1.0000
  H   H6        1.0  0.16304  0.37671  0.22178  1.0000
  H   H7        1.0  0.98980  0.43043  0.67860  1.0000
  H   H8        1.0  0.01021  0.56957  0.32139  1.0000
  H   H9        1.0  0.14928  0.45362  0.51902  1.0000
  H   H10       1.0  0.85072  0.54638  0.48098  1.0000
  H   H11       1.0  0.98747  0.61654  0.56184  1.0000
  H   H12       1.0  0.01254  0.38345  0.43815  1.0000
  H   H13       1.0  0.05242  0.93745  0.16478  1.0000
  H   H14       1.0  0.94757  0.06256  0.83521  1.0000
  H   H15       1.0  0.88412  0.07442  0.33774  1.0000
  H   H16       1.0  0.11588  0.92559  0.66225  1.0000
  H   H17       1.0  0.23808  0.81401  0.52157  1.0000
  H   H18       1.0  0.76191  0.18598  0.47843  1.0000
  H   H19       1.0  0.42489  0.54221  0.33892  1.0000
  H   H20       1.0  0.57510  0.45780  0.66108  1.0000
  H   H21       1.0  0.44493  0.61738  0.44170  1.0000
  H   H22       1.0  0.55504  0.38263  0.55831  1.0000
  H   H23       1.0  0.53134  0.68083  0.26482  1.0000
  H   H24       1.0  0.46864  0.31917  0.73518  1.0000
  H   H25       1.0  0.35714  0.45184  0.12232  1.0000
  H   H26       1.0  0.64286  0.54816  0.87768  1.0000
  H   H27       1.0  0.48434  0.43069  0.16968  1.0000
  H   H28       1.0  0.51566  0.56931  0.83032  1.0000
  H   H29       1.0  0.35436  0.94257  0.86153  1.0000
  H   H30       1.0  0.64564  0.05743  0.13848  1.0000
  H   H31       1.0  0.35169  0.03782  0.94660  1.0000
  H   H32       1.0  0.64832  0.96217  0.05341  1.0000
  C   C1        1.0  0.66431  0.73772  0.99290  1.0000
  C   C2        1.0  0.33570  0.26227  0.00711  1.0000
  C   C3        1.0  0.84073  0.70047  0.92212  1.0000
  C   C4        1.0  0.15928  0.29953  0.07788  1.0000
  C   C5        1.0  0.93458  0.72067  0.96900  1.0000
  C   C6        1.0  0.06543  0.27933  0.03100  1.0000
  C   C7        1.0  0.09983  0.68210  0.90465  1.0000
  C   C8        1.0  0.90017  0.31790  0.09535  1.0000
  C   C9        1.0  0.17068  0.62091  0.79628  1.0000
  C   C10       1.0  0.82932  0.37909  0.20372  1.0000
  C   C11       1.0  0.07687  0.59603  0.75227  1.0000
  C   C12       1.0  0.92313  0.40397  0.24773  1.0000
  C   C13       1.0  0.91138  0.63922  0.81306  1.0000
  C   C14       1.0  0.08863  0.36078  0.18694  1.0000
  C   C15       1.0  0.20362  0.70455  0.95037  1.0000
  C   C16       1.0  0.79638  0.29545  0.04963  1.0000
  C   C17       1.0  0.06376  0.50594  0.60067  1.0000
  C   C18       1.0  0.93625  0.49406  0.39933  1.0000
  C   C19       1.0  0.08836  0.91278  0.24695  1.0000
  C   C20       1.0  0.91163  0.08723  0.75305  1.0000
  C   C21       1.0  0.99456  0.98940  0.34500  1.0000
  C   C22       1.0  0.00543  0.01061  0.65500  1.0000
  C   C23       1.0  0.04641  0.95940  0.44733  1.0000
  C   C24       1.0  0.95358  0.04061  0.55267  1.0000
  C   C25       1.0  0.19121  0.84687  0.44438  1.0000
  C   C26       1.0  0.80878  0.15313  0.55562  1.0000
  C   C27       1.0  0.27882  0.76973  0.34514  1.0000
  C   C28       1.0  0.72117  0.23027  0.65485  1.0000
  C   C29       1.0  0.42884  0.64530  0.34831  1.0000
  C   C30       1.0  0.57115  0.35470  0.65169  1.0000
  N   N1        1.0  0.22871  0.80542  0.24471  1.0000
  N   N2        1.0  0.77128  0.19458  0.75529  1.0000
  O   O1        1.0  0.59218  0.83411  0.06054  1.0000
  O   O2        1.0  0.40783  0.16587  0.93947  1.0000
  O   O3        1.0  0.58948  0.66415  0.98555  1.0000
  O   O4        1.0  0.41052  0.33585  0.01445  1.0000
  O   O5        1.0  0.15733  0.52815  0.65029  1.0000
  O   O6        1.0  0.84268  0.47185  0.34971  1.0000
  O   O7        1.0  0.15082  0.71318  0.06982  1.0000
  O   O8        1.0  0.84918  0.28682  0.93017  1.0000
  O   O9        1.0  0.34322  0.71428  0.87040  1.0000
  O   O10       1.0  0.65678  0.28572  0.12960  1.0000
  O   O11       1.0  0.37310  0.49223  0.17765  1.0000
  O   O12       1.0  0.62691  0.50777  0.82235  1.0000
  O   O13       1.0  0.31194  0.95645  0.95008  1.0000
  O   O14       1.0  0.68806  0.04355  0.04993  1.0000
