data_image0
_chemical_formula_structural       Er4H32C24O28
_chemical_formula_sum              "Er4 H32 C24 O28"
_cell_length_a       7.60028
_cell_length_b       10.6425
_cell_length_c       12.6373
_cell_angle_alpha    95.3671
_cell_angle_beta     107.489
_cell_angle_gamma    110.926

_space_group_name_H-M_alt    "P 1"
_space_group_IT_number       1

loop_
  _space_group_symop_operation_xyz
  'x, y, z'

loop_
  _atom_site_type_symbol
  _atom_site_label
  _atom_site_symmetry_multiplicity
  _atom_site_fract_x
  _atom_site_fract_y
  _atom_site_fract_z
  _atom_site_occupancy
  Er  Er1       1.0  0.75681  0.31053  0.77039  1.0000
  Er  Er2       1.0  0.17590  0.18942  0.72966  1.0000
  Er  Er3       1.0  0.24319  0.68947  0.22961  1.0000
  Er  Er4       1.0  0.82410  0.81058  0.27034  1.0000
  H   H1        1.0  0.14884  0.13556  0.04043  1.0000
  H   H2        1.0  0.47296  0.36445  0.45963  1.0000
  H   H3        1.0  0.85117  0.86444  0.95957  1.0000
  H   H4        1.0  0.52704  0.63555  0.54037  1.0000
  H   H5        1.0  0.12549  0.25734  0.13696  1.0000
  H   H6        1.0  0.23132  0.24272  0.36309  1.0000
  H   H7        1.0  0.87451  0.74266  0.86304  1.0000
  H   H8        1.0  0.76868  0.75728  0.63691  1.0000
  H   H9        1.0  0.48988  0.29822  0.15045  1.0000
  H   H10       1.0  0.54122  0.20184  0.34958  1.0000
  H   H11       1.0  0.51012  0.70178  0.84955  1.0000
  H   H12       1.0  0.45877  0.79816  0.65041  1.0000
  H   H13       1.0  0.43313  0.33601  0.01519  1.0000
  H   H14       1.0  0.58191  0.16400  0.48483  1.0000
  H   H15       1.0  0.56687  0.66400  0.98481  1.0000
  H   H16       1.0  0.41809  0.83600  0.51517  1.0000
  H   H17       1.0  0.01931  0.36267  0.46861  1.0000
  H   H18       1.0  0.68801  0.13732  0.03127  1.0000
  H   H19       1.0  0.98069  0.63733  0.53139  1.0000
  H   H20       1.0  0.31199  0.86268  0.96873  1.0000
  H   H21       1.0  0.19699  0.49908  0.58199  1.0000
  H   H22       1.0  0.61582  0.00082  0.91793  1.0000
  H   H23       1.0  0.80301  0.50092  0.41801  1.0000
  H   H24       1.0  0.38418  0.99918  0.08207  1.0000
  H   H25       1.0  0.18889  0.49515  0.85274  1.0000
  H   H26       1.0  0.34096  0.00481  0.64717  1.0000
  H   H27       1.0  0.81110  0.50485  0.14726  1.0000
  H   H28       1.0  0.65904  0.99519  0.35283  1.0000
  H   H29       1.0  0.08436  0.57721  0.91216  1.0000
  H   H30       1.0  0.09497  0.92278  0.58780  1.0000
  H   H31       1.0  0.91565  0.42280  0.08784  1.0000
  H   H32       1.0  0.90503  0.07722  0.41220  1.0000
  C   C1        1.0  0.02794  0.26812  0.96271  1.0000
  C   C2        1.0  0.29706  0.23197  0.53736  1.0000
  C   C3        1.0  0.97206  0.73188  0.03729  1.0000
  C   C4        1.0  0.70294  0.76803  0.46264  1.0000
  C   C5        1.0  0.16969  0.24343  0.06320  1.0000
  C   C6        1.0  0.36312  0.25660  0.43686  1.0000
  C   C7        1.0  0.83031  0.75657  0.93680  1.0000
  C   C8        1.0  0.63687  0.74340  0.56314  1.0000
  C   C9        1.0  0.39266  0.33708  0.09170  1.0000
  C   C10       1.0  0.46388  0.16295  0.40833  1.0000
  C   C11       1.0  0.60734  0.66293  0.90830  1.0000
  C   C12       1.0  0.53612  0.83706  0.59167  1.0000
  C   C13       1.0  0.45143  0.48691  0.14624  1.0000
  C   C14       1.0  0.31825  0.01310  0.35373  1.0000
  C   C15       1.0  0.54857  0.51309  0.85376  1.0000
  C   C16       1.0  0.68175  0.98690  0.64627  1.0000
  C   C17       1.0  0.92341  0.39339  0.60636  1.0000
  C   C18       1.0  0.42355  0.10648  0.89360  1.0000
  C   C19       1.0  0.07659  0.60661  0.39364  1.0000
  C   C20       1.0  0.57645  0.89352  0.10640  1.0000
  C   C21       1.0  0.03482  0.44984  0.52978  1.0000
  C   C22       1.0  0.55517  0.05009  0.97017  1.0000
  C   C23       1.0  0.96518  0.55015  0.47022  1.0000
  C   C24       1.0  0.44483  0.94990  0.02983  1.0000
  O   O1        1.0  0.02398  0.23422  0.86135  1.0000
  O   O2        1.0  0.42833  0.26596  0.63872  1.0000
  O   O3        1.0  0.97602  0.76578  0.13865  1.0000
  O   O4        1.0  0.57167  0.73404  0.36128  1.0000
  O   O5        1.0  0.90527  0.31926  0.97429  1.0000
  O   O6        1.0  0.11166  0.18073  0.52577  1.0000
  O   O7        1.0  0.09473  0.68074  0.02571  1.0000
  O   O8        1.0  0.88834  0.81927  0.47423  1.0000
  O   O9        1.0  0.31453  0.51862  0.16128  1.0000
  O   O10       1.0  0.13455  0.98148  0.33843  1.0000
  O   O11       1.0  0.68547  0.48138  0.83872  1.0000
  O   O12       1.0  0.86545  0.01852  0.66157  1.0000
  O   O13       1.0  0.63588  0.57117  0.17308  1.0000
  O   O14       1.0  0.39168  0.92881  0.32703  1.0000
  O   O15       1.0  0.36412  0.42883  0.82692  1.0000
  O   O16       1.0  0.60832  0.07119  0.67298  1.0000
  O   O17       1.0  0.96477  0.30401  0.66048  1.0000
  O   O18       1.0  0.50012  0.19588  0.83945  1.0000
  O   O19       1.0  0.03523  0.69599  0.33952  1.0000
  O   O20       1.0  0.49988  0.80412  0.16055  1.0000
  O   O21       1.0  0.78985  0.43077  0.61928  1.0000
  O   O22       1.0  0.23973  0.06904  0.88072  1.0000
  O   O23       1.0  0.21015  0.56923  0.38072  1.0000
  O   O24       1.0  0.76027  0.93096  0.11928  1.0000
  O   O25       1.0  0.06509  0.51083  0.84446  1.0000
  O   O26       1.0  0.20981  0.98913  0.65550  1.0000
  O   O27       1.0  0.93491  0.48918  0.15554  1.0000
  O   O28       1.0  0.79019  0.01087  0.34450  1.0000
