data_image0
_chemical_formula_structural       Ga2H10C16O10
_chemical_formula_sum              "Ga2 H10 C16 O10"
_cell_length_a       6.72698
_cell_length_b       6.50374
_cell_length_c       10.4226
_cell_angle_alpha    108.209
_cell_angle_beta     101.76
_cell_angle_gamma    89.9501

_space_group_name_H-M_alt    "P 1"
_space_group_IT_number       1

loop_
  _space_group_symop_operation_xyz
  'x, y, z'

loop_
  _atom_site_type_symbol
  _atom_site_label
  _atom_site_symmetry_multiplicity
  _atom_site_fract_x
  _atom_site_fract_y
  _atom_site_fract_z
  _atom_site_occupancy
  Ga  Ga1       1.0  0.41425  0.10701  0.22437  1.0000
  Ga  Ga2       1.0  0.91422  0.11735  0.22451  1.0000
  H   H1        1.0  0.22189  0.30291  0.90167  1.0000
  H   H2        1.0  0.72241  0.59864  0.90211  1.0000
  H   H3        1.0  0.60124  0.92118  0.54274  1.0000
  H   H4        1.0  0.10034  0.62141  0.54277  1.0000
  H   H5        1.0  0.05616  0.20357  0.65086  1.0000
  H   H6        1.0  0.55602  0.44755  0.65150  1.0000
  H   H7        1.0  0.76753  0.01981  0.79415  1.0000
  H   H8        1.0  0.26711  0.77438  0.79407  1.0000
  H   H9        1.0  0.15357  0.34986  0.16466  1.0000
  H   H10       1.0  0.65436  0.81447  0.16454  1.0000
  C   C1        1.0  0.59629  0.20998  0.01270  1.0000
  C   C2        1.0  0.09647  0.80292  0.01275  1.0000
  C   C3        1.0  0.50520  0.16856  0.86291  1.0000
  C   C4        1.0  0.00511  0.69468  0.86307  1.0000
  C   C5        1.0  0.61215  0.05984  0.76181  1.0000
  C   C6        1.0  0.11174  0.70212  0.76182  1.0000
  C   C7        1.0  0.30441  0.22013  0.82264  1.0000
  C   C8        1.0  0.80449  0.60279  0.82298  1.0000
  C   C9        1.0  0.51924  0.00315  0.62231  1.0000
  C   C10       1.0  0.01847  0.61935  0.62241  1.0000
  C   C11       1.0  0.21153  0.16383  0.68333  1.0000
  C   C12       1.0  0.71112  0.52027  0.68374  1.0000
  C   C13       1.0  0.31882  0.05569  0.58237  1.0000
  C   C14       1.0  0.81810  0.52704  0.58264  1.0000
  C   C15       1.0  0.22848  0.01871  0.43297  1.0000
  C   C16       1.0  0.72783  0.41433  0.43327  1.0000
  O   O1        1.0  0.47888  0.27110  0.09784  1.0000
  O   O2        1.0  0.97956  0.82689  0.09814  1.0000
  O   O3        1.0  0.78383  0.17415  0.04533  1.0000
  O   O4        1.0  0.28396  0.87109  0.04519  1.0000
  O   O5        1.0  0.34269  0.94913  0.34672  1.0000
  O   O6        1.0  0.84198  0.39774  0.34702  1.0000
  O   O7        1.0  0.04523  0.06775  0.40241  1.0000
  O   O8        1.0  0.54481  0.33432  0.40262  1.0000
  O   O9        1.0  0.16623  0.25909  0.22398  1.0000
  O   O10       1.0  0.66649  0.96463  0.22388  1.0000
