data_image0
_chemical_formula_structural       Zn2H26C40N6O8
_chemical_formula_sum              "Zn2 H26 C40 N6 O8"
_cell_length_a       8.21457
_cell_length_b       8.00023
_cell_length_c       12.9098
_cell_angle_alpha    74.9913
_cell_angle_beta     84.089
_cell_angle_gamma    79.3615

_space_group_name_H-M_alt    "P 1"
_space_group_IT_number       1

loop_
  _space_group_symop_operation_xyz
  'x, y, z'

loop_
  _atom_site_type_symbol
  _atom_site_label
  _atom_site_symmetry_multiplicity
  _atom_site_fract_x
  _atom_site_fract_y
  _atom_site_fract_z
  _atom_site_occupancy
  Zn  Zn1       1.0  0.98750  0.38399  0.17863  1.0000
  Zn  Zn2       1.0  0.01250  0.61601  0.82137  1.0000
  H   H1        1.0  0.79825  0.44296  0.02129  1.0000
  H   H2        1.0  0.20175  0.55703  0.97871  1.0000
  H   H3        1.0  0.95498  0.28926  0.00475  1.0000
  H   H4        1.0  0.04503  0.71074  0.99524  1.0000
  H   H5        1.0  0.49091  0.55036  0.33923  1.0000
  H   H6        1.0  0.50909  0.44964  0.66077  1.0000
  H   H7        1.0  0.93586  0.12687  0.69205  1.0000
  H   H8        1.0  0.06414  0.87313  0.30795  1.0000
  H   H9        1.0  0.31847  0.54588  0.19552  1.0000
  H   H10       1.0  0.68153  0.45412  0.80448  1.0000
  H   H11       1.0  0.69651  0.05869  0.61566  1.0000
  H   H12       1.0  0.30348  0.94131  0.38435  1.0000
  H   H13       1.0  0.40187  0.41522  0.53407  1.0000
  H   H14       1.0  0.59813  0.58477  0.46593  1.0000
  H   H15       1.0  0.66676  0.21624  0.26964  1.0000
  H   H16       1.0  0.33323  0.78376  0.73037  1.0000
  H   H17       1.0  0.19248  0.26026  0.66355  1.0000
  H   H18       1.0  0.80752  0.73974  0.33645  1.0000
  H   H19       1.0  0.54682  0.08056  0.44775  1.0000
  H   H20       1.0  0.45318  0.91945  0.55225  1.0000
  H   H21       1.0  0.94255  0.97000  0.09565  1.0000
  H   H22       1.0  0.05745  0.02999  0.90435  1.0000
  H   H23       1.0  0.52798  0.39315  0.07549  1.0000
  H   H24       1.0  0.47203  0.60685  0.92451  1.0000
  H   H25       1.0  0.44464  0.85699  0.16501  1.0000
  H   H26       1.0  0.55536  0.14300  0.83500  1.0000
  C   C1        1.0  0.09826  0.34148  0.39979  1.0000
  C   C2        1.0  0.90174  0.65852  0.60021  1.0000
  C   C3        1.0  0.37882  0.49179  0.36228  1.0000
  C   C4        1.0  0.62117  0.50822  0.63772  1.0000
  C   C5        1.0  0.18540  0.33956  0.48950  1.0000
  C   C6        1.0  0.81460  0.66045  0.51050  1.0000
  C   C7        1.0  0.95036  0.26385  0.41626  1.0000
  C   C8        1.0  0.04963  0.73615  0.58374  1.0000
  C   C9        1.0  0.98264  0.18803  0.61160  1.0000
  C   C10       1.0  0.01736  0.81197  0.38840  1.0000
  C   C11       1.0  0.28259  0.48903  0.27908  1.0000
  C   C12       1.0  0.71741  0.51097  0.72092  1.0000
  C   C13       1.0  0.74339  0.11813  0.53465  1.0000
  C   C14       1.0  0.25661  0.88188  0.46535  1.0000
  C   C15       1.0  0.33012  0.41705  0.46730  1.0000
  C   C16       1.0  0.66987  0.58295  0.53270  1.0000
  C   C17       1.0  0.73000  0.20521  0.34169  1.0000
  C   C18       1.0  0.26999  0.79479  0.65831  1.0000
  C   C19       1.0  0.12410  0.26084  0.59544  1.0000
  C   C20       1.0  0.87590  0.73916  0.40456  1.0000
  C   C21       1.0  0.89196  0.18850  0.52239  1.0000
  C   C22       1.0  0.10803  0.81150  0.47761  1.0000
  C   C23       1.0  0.66319  0.12842  0.44372  1.0000
  C   C24       1.0  0.33680  0.87159  0.55628  1.0000
  C   C25       1.0  0.76035  0.69934  0.15003  1.0000
  C   C26       1.0  0.23966  0.30066  0.84997  1.0000
  C   C27       1.0  0.28305  0.18955  0.13924  1.0000
  C   C28       1.0  0.71695  0.81045  0.86077  1.0000
  C   C29       1.0  0.46628  0.13146  0.12129  1.0000
  C   C30       1.0  0.53373  0.86853  0.87871  1.0000
  C   C31       1.0  0.69948  0.89399  0.12902  1.0000
  C   C32       1.0  0.30052  0.10601  0.87098  1.0000
  C   C33       1.0  0.80913  0.01577  0.10068  1.0000
  C   C34       1.0  0.19088  0.98423  0.89932  1.0000
  C   C35       1.0  0.74767  0.19588  0.08168  1.0000
  C   C36       1.0  0.25234  0.80411  0.91831  1.0000
  C   C37       1.0  0.57570  0.25321  0.08984  1.0000
  C   C38       1.0  0.42430  0.74678  0.91015  1.0000
  C   C39       1.0  0.52891  0.95220  0.14123  1.0000
  C   C40       1.0  0.47109  0.04780  0.85877  1.0000
  N   N1        1.0  0.14686  0.41518  0.29767  1.0000
  N   N2        1.0  0.85314  0.58483  0.70233  1.0000
  N   N3        1.0  0.87076  0.26947  0.32797  1.0000
  N   N4        1.0  0.12923  0.73054  0.67203  1.0000
  N   N5        1.0  0.85851  0.32011  0.05816  1.0000
  N   N6        1.0  0.14149  0.67989  0.94184  1.0000
  O   O1        1.0  0.22003  0.34812  0.09188  1.0000
  O   O2        1.0  0.77997  0.65188  0.90812  1.0000
  O   O3        1.0  0.91809  0.65048  0.13041  1.0000
  O   O4        1.0  0.08191  0.34951  0.86959  1.0000
  O   O5        1.0  0.19830  0.08592  0.20288  1.0000
  O   O6        1.0  0.80171  0.91408  0.79713  1.0000
  O   O7        1.0  0.66010  0.59488  0.18684  1.0000
  O   O8        1.0  0.33989  0.40511  0.81316  1.0000
