data_image0
_chemical_formula_structural       Co2H32C20N12O12
_chemical_formula_sum              "Co2 H32 C20 N12 O12"
_cell_length_a       7.47787
_cell_length_b       7.99884
_cell_length_c       13.6886
_cell_angle_alpha    90.0142
_cell_angle_beta     89.9859
_cell_angle_gamma    111.645

_space_group_name_H-M_alt    "P 1"
_space_group_IT_number       1

loop_
  _space_group_symop_operation_xyz
  'x, y, z'

loop_
  _atom_site_type_symbol
  _atom_site_label
  _atom_site_symmetry_multiplicity
  _atom_site_fract_x
  _atom_site_fract_y
  _atom_site_fract_z
  _atom_site_occupancy
  Co  Co1       1.0  0.00001  0.50000  0.50000  1.0000
  Co  Co2       1.0  0.49999  0.50000  0.99999  1.0000
  H   H1        1.0  0.52411  0.66356  0.24171  1.0000
  H   H2        1.0  0.97593  0.33644  0.74169  1.0000
  H   H3        1.0  0.47588  0.33645  0.75829  1.0000
  H   H4        1.0  0.02409  0.66357  0.25831  1.0000
  H   H5        1.0  0.49738  0.16801  0.12629  1.0000
  H   H6        1.0  0.00256  0.83203  0.62637  1.0000
  H   H7        1.0  0.50260  0.83198  0.87371  1.0000
  H   H8        1.0  0.99744  0.16798  0.37363  1.0000
  H   H9        1.0  0.63982  0.17306  0.38954  1.0000
  H   H10       1.0  0.86009  0.82694  0.88955  1.0000
  H   H11       1.0  0.36019  0.82695  0.61045  1.0000
  H   H12       1.0  0.13990  0.17304  0.11045  1.0000
  H   H13       1.0  0.55556  0.02677  0.28843  1.0000
  H   H14       1.0  0.94445  0.97319  0.78843  1.0000
  H   H15       1.0  0.44445  0.97324  0.71157  1.0000
  H   H16       1.0  0.05553  0.02680  0.21158  1.0000
  H   H17       1.0  0.21531  0.02052  0.32816  1.0000
  H   H18       1.0  0.28467  0.97944  0.82815  1.0000
  H   H19       1.0  0.78469  0.97946  0.67184  1.0000
  H   H20       1.0  0.71531  0.02056  0.17184  1.0000
  H   H21       1.0  0.30722  0.11912  0.44190  1.0000
  H   H22       1.0  0.19270  0.88090  0.94192  1.0000
  H   H23       1.0  0.69278  0.88086  0.55810  1.0000
  H   H24       1.0  0.80730  0.11911  0.05807  1.0000
  H   H25       1.0  0.34558  0.57919  0.46207  1.0000
  H   H26       1.0  0.15448  0.42090  0.96207  1.0000
  H   H27       1.0  0.65446  0.42083  0.53793  1.0000
  H   H28       1.0  0.84551  0.57909  0.03792  1.0000
  H   H29       1.0  0.33862  0.49503  0.56809  1.0000
  H   H30       1.0  0.16141  0.50501  0.06813  1.0000
  H   H31       1.0  0.66140  0.50499  0.43191  1.0000
  H   H32       1.0  0.83858  0.49497  0.93187  1.0000
  C   C1        1.0  0.52488  0.52882  0.23485  1.0000
  C   C2        1.0  0.97522  0.47123  0.73476  1.0000
  C   C3        1.0  0.47511  0.47119  0.76515  1.0000
  C   C4        1.0  0.02480  0.52878  0.26524  1.0000
  C   C5        1.0  0.50988  0.27768  0.17574  1.0000
  C   C6        1.0  0.99007  0.72232  0.67574  1.0000
  C   C7        1.0  0.49011  0.72231  0.82426  1.0000
  C   C8        1.0  0.00994  0.27768  0.32426  1.0000
  C   C9        1.0  0.52501  0.12454  0.33494  1.0000
  C   C10       1.0  0.97498  0.87551  0.83498  1.0000
  C   C11       1.0  0.47499  0.87547  0.66506  1.0000
  C   C12       1.0  0.02500  0.12448  0.16502  1.0000
  C   C13       1.0  0.32855  0.03585  0.38262  1.0000
  C   C14       1.0  0.17141  0.96414  0.88263  1.0000
  C   C15       1.0  0.67145  0.96415  0.61738  1.0000
  C   C16       1.0  0.82857  0.03587  0.11736  1.0000
  C   C17       1.0  0.29375  0.84717  0.42083  1.0000
  C   C18       1.0  0.20626  0.15285  0.92082  1.0000
  C   C19       1.0  0.70629  0.15284  0.57917  1.0000
  C   C20       1.0  0.79371  0.84714  0.07918  1.0000
  N   N1        1.0  0.53280  0.27540  0.27313  1.0000
  N   N2        1.0  0.96720  0.72460  0.77313  1.0000
  N   N3        1.0  0.46720  0.72461  0.72688  1.0000
  N   N4        1.0  0.03280  0.27540  0.22687  1.0000
  N   N5        1.0  0.54217  0.43519  0.31211  1.0000
  N   N6        1.0  0.95787  0.56483  0.81205  1.0000
  N   N7        1.0  0.45783  0.56482  0.68790  1.0000
  N   N8        1.0  0.04211  0.43516  0.18795  1.0000
  N   N9        1.0  0.50445  0.43653  0.14915  1.0000
  N   N10       1.0  0.99556  0.56350  0.64908  1.0000
  N   N11       1.0  0.49554  0.56345  0.85085  1.0000
  N   N12       1.0  0.00445  0.43651  0.35092  1.0000
  O   O1        1.0  0.13597  0.77386  0.46800  1.0000
  O   O2        1.0  0.36402  0.22611  0.96798  1.0000
  O   O3        1.0  0.86406  0.22614  0.53200  1.0000
  O   O4        1.0  0.63596  0.77390  0.03200  1.0000
  O   O5        1.0  0.41613  0.77651  0.40248  1.0000
  O   O6        1.0  0.08396  0.22356  0.90244  1.0000
  O   O7        1.0  0.58391  0.22349  0.59752  1.0000
  O   O8        1.0  0.91601  0.77642  0.09755  1.0000
  O   O9        1.0  0.27034  0.47349  0.50442  1.0000
  O   O10       1.0  0.22973  0.52656  0.00445  1.0000
  O   O11       1.0  0.72969  0.52652  0.49558  1.0000
  O   O12       1.0  0.77025  0.47343  0.99554  1.0000
