data_image0
_chemical_formula_structural       Cu2H12C4N24O12
_chemical_formula_sum              "Cu2 H12 C4 N24 O12"
_cell_length_a       7.98636
_cell_length_b       8.12301
_cell_length_c       8.95374
_cell_angle_alpha    90
_cell_angle_beta     90
_cell_angle_gamma    107.623

_space_group_name_H-M_alt    "P 1"
_space_group_IT_number       1

loop_
  _space_group_symop_operation_xyz
  'x, y, z'

loop_
  _atom_site_type_symbol
  _atom_site_label
  _atom_site_symmetry_multiplicity
  _atom_site_fract_x
  _atom_site_fract_y
  _atom_site_fract_z
  _atom_site_occupancy
  Cu  Cu1       1.0  1.00000  1.00000  0.00000  1.0000
  Cu  Cu2       1.0  0.50000  0.50000  0.50000  1.0000
  H   H1        1.0  0.57533  0.86255  0.94496  1.0000
  H   H2        1.0  0.92467  0.63745  0.44496  1.0000
  H   H3        1.0  0.42467  0.13745  0.05504  1.0000
  H   H4        1.0  0.07533  0.36255  0.55504  1.0000
  H   H5        1.0  0.62745  0.88500  0.50991  1.0000
  H   H6        1.0  0.87255  0.61500  0.00991  1.0000
  H   H7        1.0  0.37255  0.11500  0.49009  1.0000
  H   H8        1.0  0.12745  0.38500  0.99009  1.0000
  H   H9        1.0  0.41893  0.82210  0.43947  1.0000
  H   H10       1.0  0.08107  0.67790  0.93947  1.0000
  H   H11       1.0  0.58107  0.17790  0.56053  1.0000
  H   H12       1.0  0.91893  0.32210  0.06053  1.0000
  C   C1        1.0  0.61222  0.86828  0.06181  1.0000
  C   C2        1.0  0.88777  0.63172  0.56181  1.0000
  C   C3        1.0  0.38777  0.13173  0.93819  1.0000
  C   C4        1.0  0.11223  0.36827  0.43819  1.0000
  N   N1        1.0  0.49818  0.82288  0.17452  1.0000
  N   N2        1.0  0.00182  0.67712  0.67452  1.0000
  N   N3        1.0  0.50182  0.17712  0.82548  1.0000
  N   N4        1.0  0.99818  0.32288  0.32548  1.0000
  N   N5        1.0  0.60527  0.85333  0.29190  1.0000
  N   N6        1.0  0.89473  0.64667  0.79191  1.0000
  N   N7        1.0  0.39473  0.14667  0.70809  1.0000
  N   N8        1.0  0.10527  0.35333  0.20809  1.0000
  N   N9        1.0  0.77404  0.91180  0.26222  1.0000
  N   N10       1.0  0.72596  0.58820  0.76222  1.0000
  N   N11       1.0  0.22596  0.08820  0.73778  1.0000
  N   N12       1.0  0.27404  0.41180  0.23778  1.0000
  N   N13       1.0  0.77898  0.92256  0.11308  1.0000
  N   N14       1.0  0.72103  0.57744  0.61308  1.0000
  N   N15       1.0  0.22103  0.07744  0.88693  1.0000
  N   N16       1.0  0.27897  0.42256  0.38692  1.0000
  N   N17       1.0  0.85232  0.12073  0.72671  1.0000
  N   N18       1.0  0.64769  0.37927  0.22671  1.0000
  N   N19       1.0  0.14768  0.87927  0.27329  1.0000
  N   N20       1.0  0.35231  0.62073  0.77329  1.0000
  N   N21       1.0  0.54250  0.80691  0.43359  1.0000
  N   N22       1.0  0.95750  0.69309  0.93359  1.0000
  N   N23       1.0  0.45750  0.19309  0.56641  1.0000
  N   N24       1.0  0.04250  0.30691  0.06641  1.0000
  O   O1        1.0  0.84875  0.98792  0.80804  1.0000
  O   O2        1.0  0.65125  0.51208  0.30804  1.0000
  O   O3        1.0  0.15125  0.01208  0.19196  1.0000
  O   O4        1.0  0.34875  0.48792  0.69196  1.0000
  O   O5        1.0  0.93011  0.26993  0.76946  1.0000
  O   O6        1.0  0.56990  0.23007  0.26946  1.0000
  O   O7        1.0  0.06990  0.73007  0.23054  1.0000
  O   O8        1.0  0.43011  0.76993  0.73054  1.0000
  O   O9        1.0  0.77491  0.09107  0.60203  1.0000
  O   O10       1.0  0.72509  0.40893  0.10203  1.0000
  O   O11       1.0  0.22509  0.90893  0.39797  1.0000
  O   O12       1.0  0.27491  0.59107  0.89797  1.0000
