data_image0
_chemical_formula_structural       Cu2H12C4N20Cl4
_chemical_formula_sum              "Cu2 H12 C4 N20 Cl4"
_cell_length_a       3.71197
_cell_length_b       6.75519
_cell_length_c       18.4239
_cell_angle_alpha    91.8713
_cell_angle_beta     90.0024
_cell_angle_gamma    89.9995

_space_group_name_H-M_alt    "P 1"
_space_group_IT_number       1

loop_
  _space_group_symop_operation_xyz
  'x, y, z'

loop_
  _atom_site_type_symbol
  _atom_site_label
  _atom_site_symmetry_multiplicity
  _atom_site_fract_x
  _atom_site_fract_y
  _atom_site_fract_z
  _atom_site_occupancy
  Cu  Cu1       1.0  0.00000  0.00000  0.00000  1.0000
  Cu  Cu2       1.0  0.49999  0.00000  0.50000  1.0000
  H   H1        1.0  0.71932  0.43422  0.94156  1.0000
  H   H2        1.0  0.21932  0.56576  0.55846  1.0000
  H   H3        1.0  0.28067  0.56577  0.05844  1.0000
  H   H4        1.0  0.78064  0.43425  0.44155  1.0000
  H   H5        1.0  0.93854  0.13831  0.69817  1.0000
  H   H6        1.0  0.43853  0.86171  0.80184  1.0000
  H   H7        1.0  0.06147  0.86168  0.30183  1.0000
  H   H8        1.0  0.56148  0.13829  0.19816  1.0000
  H   H9        1.0  0.17974  0.35282  0.70760  1.0000
  H   H10       1.0  0.67976  0.64722  0.79242  1.0000
  H   H11       1.0  0.82028  0.64718  0.29240  1.0000
  H   H12       1.0  0.32025  0.35278  0.20758  1.0000
  C   C1        1.0  0.84235  0.34253  0.89904  1.0000
  C   C2        1.0  0.34233  0.65748  0.60097  1.0000
  C   C3        1.0  0.15766  0.65746  0.10095  1.0000
  C   C4        1.0  0.65765  0.34252  0.39904  1.0000
  N   N1        1.0  0.86064  0.39059  0.82956  1.0000
  N   N2        1.0  0.36063  0.60944  0.67045  1.0000
  N   N3        1.0  0.13935  0.60941  0.17043  1.0000
  N   N4        1.0  0.63936  0.39057  0.32956  1.0000
  N   N5        1.0  0.03555  0.23503  0.79917  1.0000
  N   N6        1.0  0.53554  0.76499  0.70084  1.0000
  N   N7        1.0  0.96445  0.76496  0.20082  1.0000
  N   N8        1.0  0.46445  0.23501  0.29916  1.0000
  N   N9        1.0  0.12398  0.09829  0.84553  1.0000
  N   N10       1.0  0.62399  0.90173  0.65448  1.0000
  N   N11       1.0  0.87602  0.90171  0.15447  1.0000
  N   N12       1.0  0.37601  0.09828  0.34552  1.0000
  N   N13       1.0  0.99453  0.16324  0.90911  1.0000
  N   N14       1.0  0.49452  0.83678  0.59090  1.0000
  N   N15       1.0  0.00547  0.83676  0.09089  1.0000
  N   N16       1.0  0.50546  0.16322  0.40910  1.0000
  N   N17       1.0  0.13280  0.21475  0.72774  1.0000
  N   N18       1.0  0.63279  0.78528  0.77228  1.0000
  N   N19       1.0  0.86721  0.78524  0.27226  1.0000
  N   N20       1.0  0.36722  0.21473  0.22773  1.0000
  Cl  Cl1       1.0  0.60570  0.22245  0.05401  1.0000
  Cl  Cl2       1.0  0.10569  0.77756  0.44599  1.0000
  Cl  Cl3       1.0  0.39432  0.77756  0.94599  1.0000
  Cl  Cl4       1.0  0.89433  0.22243  0.55401  1.0000
