data_image0
_chemical_formula_structural       Cu4H24C8N40Cl8
_chemical_formula_sum              "Cu4 H24 C8 N40 Cl8"
_cell_length_a       7.47354
_cell_length_b       10.2739
_cell_length_c       12.1516
_cell_angle_alpha    89.9999
_cell_angle_beta     90.0001
_cell_angle_gamma    91.6468

_space_group_name_H-M_alt    "P 1"
_space_group_IT_number       1

loop_
  _space_group_symop_operation_xyz
  'x, y, z'

loop_
  _atom_site_type_symbol
  _atom_site_label
  _atom_site_symmetry_multiplicity
  _atom_site_fract_x
  _atom_site_fract_y
  _atom_site_fract_z
  _atom_site_occupancy
  Cu  Cu1       1.0  0.61704  0.86592  0.91905  1.0000
  Cu  Cu2       1.0  0.88296  0.63408  0.41905  1.0000
  Cu  Cu3       1.0  0.38296  0.13408  0.08095  1.0000
  Cu  Cu4       1.0  0.11704  0.36592  0.58095  1.0000
  H   H1        1.0  0.51835  0.50330  0.59679  1.0000
  H   H2        1.0  0.98165  0.99670  0.09679  1.0000
  H   H3        1.0  0.48165  0.49670  0.40321  1.0000
  H   H4        1.0  0.01835  0.00330  0.90321  1.0000
  H   H5        1.0  0.21183  0.74541  0.96742  1.0000
  H   H6        1.0  0.28818  0.75459  0.46742  1.0000
  H   H7        1.0  0.78817  0.25459  0.03258  1.0000
  H   H8        1.0  0.71183  0.24541  0.53258  1.0000
  H   H9        1.0  0.13023  0.53988  0.20356  1.0000
  H   H10       1.0  0.36977  0.96012  0.70356  1.0000
  H   H11       1.0  0.86977  0.46012  0.79644  1.0000
  H   H12       1.0  0.63023  0.03988  0.29644  1.0000
  H   H13       1.0  0.12230  0.45355  0.08623  1.0000
  H   H14       1.0  0.37770  0.04646  0.58623  1.0000
  H   H15       1.0  0.87770  0.54645  0.91377  1.0000
  H   H16       1.0  0.62229  0.95355  0.41377  1.0000
  H   H17       1.0  0.70340  0.66912  0.74002  1.0000
  H   H18       1.0  0.79659  0.83088  0.24002  1.0000
  H   H19       1.0  0.29660  0.33088  0.25998  1.0000
  H   H20       1.0  0.20341  0.16912  0.75998  1.0000
  H   H21       1.0  0.62306  0.78345  0.65862  1.0000
  H   H22       1.0  0.87694  0.71655  0.15862  1.0000
  H   H23       1.0  0.37694  0.21655  0.34138  1.0000
  H   H24       1.0  0.12306  0.28345  0.84138  1.0000
  C   C1        1.0  0.41728  0.54760  0.64709  1.0000
  C   C2        1.0  0.08271  0.95240  0.14709  1.0000
  C   C3        1.0  0.58273  0.45240  0.35290  1.0000
  C   C4        1.0  0.91728  0.04760  0.85291  1.0000
  C   C5        1.0  0.31744  0.70040  0.01385  1.0000
  C   C6        1.0  0.18255  0.79960  0.51386  1.0000
  C   C7        1.0  0.68255  0.29960  0.98614  1.0000
  C   C8        1.0  0.81745  0.20040  0.48614  1.0000
  N   N1        1.0  0.59810  0.72959  0.72884  1.0000
  N   N2        1.0  0.90190  0.77041  0.22884  1.0000
  N   N3        1.0  0.40190  0.27040  0.27116  1.0000
  N   N4        1.0  0.09809  0.22959  0.77116  1.0000
  N   N5        1.0  0.44494  0.65239  0.71146  1.0000
  N   N6        1.0  0.05507  0.84761  0.21147  1.0000
  N   N7        1.0  0.55507  0.34760  0.28854  1.0000
  N   N8        1.0  0.94493  0.15240  0.78853  1.0000
  N   N9        1.0  0.29270  0.67583  0.76812  1.0000
  N   N10       1.0  0.20730  0.82417  0.26812  1.0000
  N   N11       1.0  0.70730  0.32416  0.23188  1.0000
  N   N12       1.0  0.79270  0.17583  0.73188  1.0000
  N   N13       1.0  0.17471  0.58872  0.73753  1.0000
  N   N14       1.0  0.32529  0.91128  0.23753  1.0000
  N   N15       1.0  0.82530  0.41128  0.26247  1.0000
  N   N16       1.0  0.67471  0.08872  0.76247  1.0000
  N   N17       1.0  0.49172  0.72920  0.01006  1.0000
  N   N18       1.0  0.00828  0.77079  0.51006  1.0000
  N   N19       1.0  0.50828  0.27080  0.98994  1.0000
  N   N20       1.0  0.99172  0.22921  0.48994  1.0000
  N   N21       1.0  0.57385  0.64965  0.08350  1.0000
  N   N22       1.0  0.92615  0.85035  0.58350  1.0000
  N   N23       1.0  0.42615  0.35035  0.91650  1.0000
  N   N24       1.0  0.07385  0.14965  0.41650  1.0000
  N   N25       1.0  0.45573  0.57321  0.12997  1.0000
  N   N26       1.0  0.04427  0.92679  0.62997  1.0000
  N   N27       1.0  0.54427  0.42679  0.87003  1.0000
  N   N28       1.0  0.95573  0.07321  0.37004  1.0000
  N   N29       1.0  0.29349  0.60413  0.08730  1.0000
  N   N30       1.0  0.20651  0.89587  0.58730  1.0000
  N   N31       1.0  0.70651  0.39587  0.91270  1.0000
  N   N32       1.0  0.79349  0.10413  0.41270  1.0000
  N   N33       1.0  0.13185  0.54653  0.11869  1.0000
  N   N34       1.0  0.36816  0.95347  0.61869  1.0000
  N   N35       1.0  0.86816  0.45347  0.88131  1.0000
  N   N36       1.0  0.63184  0.04653  0.38131  1.0000
  N   N37       1.0  0.24890  0.50726  0.66243  1.0000
  N   N38       1.0  0.25110  0.99275  0.16243  1.0000
  N   N39       1.0  0.75110  0.49274  0.33757  1.0000
  N   N40       1.0  0.74890  0.00725  0.83757  1.0000
  Cl  Cl1       1.0  0.88650  0.76416  0.94292  1.0000
  Cl  Cl2       1.0  0.61350  0.73584  0.44292  1.0000
  Cl  Cl3       1.0  0.11350  0.23584  0.05708  1.0000
  Cl  Cl4       1.0  0.38650  0.26416  0.55708  1.0000
  Cl  Cl5       1.0  0.34859  0.97156  0.89003  1.0000
  Cl  Cl6       1.0  0.15141  0.52844  0.39003  1.0000
  Cl  Cl7       1.0  0.65141  0.02844  0.10997  1.0000
  Cl  Cl8       1.0  0.84859  0.47156  0.60997  1.0000
