data_image0
_chemical_formula_structural       Tl4H12C28N8O24
_chemical_formula_sum              "Tl4 H12 C28 N8 O24"
_cell_length_a       4.94258
_cell_length_b       10.5171
_cell_length_c       17.8652
_cell_angle_alpha    90.0004
_cell_angle_beta     94.17
_cell_angle_gamma    89.9999

_space_group_name_H-M_alt    "P 1"
_space_group_IT_number       1

loop_
  _space_group_symop_operation_xyz
  'x, y, z'

loop_
  _atom_site_type_symbol
  _atom_site_label
  _atom_site_symmetry_multiplicity
  _atom_site_fract_x
  _atom_site_fract_y
  _atom_site_fract_z
  _atom_site_occupancy
  Tl  Tl1       1.0  0.96060  0.17801  0.93540  1.0000
  Tl  Tl2       1.0  0.53941  0.67802  0.56460  1.0000
  Tl  Tl3       1.0  0.03941  0.82198  0.06460  1.0000
  Tl  Tl4       1.0  0.46059  0.32199  0.43540  1.0000
  H   H1        1.0  0.07394  0.91673  0.80368  1.0000
  H   H2        1.0  0.42606  0.41674  0.69632  1.0000
  H   H3        1.0  0.92606  0.08327  0.19632  1.0000
  H   H4        1.0  0.57394  0.58327  0.30368  1.0000
  H   H5        1.0  0.05122  0.50501  0.80748  1.0000
  H   H6        1.0  0.44878  0.00501  0.69252  1.0000
  H   H7        1.0  0.94878  0.49499  0.19252  1.0000
  H   H8        1.0  0.55121  0.99499  0.30748  1.0000
  H   H9        1.0  0.66949  0.70873  0.94221  1.0000
  H   H10       1.0  0.83051  0.20873  0.55779  1.0000
  H   H11       1.0  0.33050  0.29127  0.05779  1.0000
  H   H12       1.0  0.16949  0.79127  0.44221  1.0000
  C   C1        1.0  0.52639  0.94986  0.90005  1.0000
  C   C2        1.0  0.97362  0.44986  0.59995  1.0000
  C   C3        1.0  0.47362  0.05014  0.09995  1.0000
  C   C4        1.0  0.02638  0.55014  0.40005  1.0000
  C   C5        1.0  0.38553  0.82644  0.87620  1.0000
  C   C6        1.0  0.11447  0.32644  0.62380  1.0000
  C   C7        1.0  0.61448  0.17356  0.12380  1.0000
  C   C8        1.0  0.88552  0.67356  0.37620  1.0000
  C   C9        1.0  0.15802  0.82707  0.82493  1.0000
  C   C10       1.0  0.34198  0.32707  0.67507  1.0000
  C   C11       1.0  0.84199  0.17293  0.17507  1.0000
  C   C12       1.0  0.65802  0.67293  0.32493  1.0000
  C   C13       1.0  0.04317  0.71131  0.80138  1.0000
  C   C14       1.0  0.45683  0.21131  0.69862  1.0000
  C   C15       1.0  0.95683  0.28869  0.19862  1.0000
  C   C16       1.0  0.54317  0.78869  0.30138  1.0000
  C   C17       1.0  0.14288  0.59404  0.82715  1.0000
  C   C18       1.0  0.35711  0.09405  0.67285  1.0000
  C   C19       1.0  0.85712  0.40595  0.17285  1.0000
  C   C20       1.0  0.64288  0.90595  0.32715  1.0000
  C   C21       1.0  0.36902  0.59706  0.87821  1.0000
  C   C22       1.0  0.13098  0.09706  0.62179  1.0000
  C   C23       1.0  0.63098  0.40294  0.12179  1.0000
  C   C24       1.0  0.86901  0.90294  0.37821  1.0000
  C   C25       1.0  0.49093  0.71047  0.90294  1.0000
  C   C26       1.0  0.00907  0.21048  0.59706  1.0000
  C   C27       1.0  0.50907  0.28952  0.09706  1.0000
  C   C28       1.0  0.99093  0.78953  0.40294  1.0000
  N   N1        1.0  0.80532  0.71270  0.74733  1.0000
  N   N2        1.0  0.69468  0.21270  0.75267  1.0000
  N   N3        1.0  0.19468  0.28730  0.25267  1.0000
  N   N4        1.0  0.30531  0.78730  0.24733  1.0000
  N   N5        1.0  0.49037  0.47678  0.90524  1.0000
  N   N6        1.0  0.00962  0.97679  0.59476  1.0000
  N   N7        1.0  0.50962  0.52321  0.09476  1.0000
  N   N8        1.0  0.99037  0.02322  0.40524  1.0000
  O   O1        1.0  0.75833  0.93778  0.93554  1.0000
  O   O2        1.0  0.74168  0.43779  0.56446  1.0000
  O   O3        1.0  0.24168  0.06221  0.06446  1.0000
  O   O4        1.0  0.25832  0.56221  0.43554  1.0000
  O   O5        1.0  0.41132  0.05339  0.88114  1.0000
  O   O6        1.0  0.08870  0.55339  0.61886  1.0000
  O   O7        1.0  0.58870  0.94661  0.11886  1.0000
  O   O8        1.0  0.91131  0.44661  0.38114  1.0000
  O   O9        1.0  0.73558  0.81590  0.71823  1.0000
  O   O10       1.0  0.76442  0.31590  0.78177  1.0000
  O   O11       1.0  0.26442  0.18410  0.28177  1.0000
  O   O12       1.0  0.23558  0.68410  0.21823  1.0000
  O   O13       1.0  0.68494  0.61079  0.73371  1.0000
  O   O14       1.0  0.81506  0.11079  0.76629  1.0000
  O   O15       1.0  0.31506  0.38921  0.26629  1.0000
  O   O16       1.0  0.18494  0.88921  0.23371  1.0000
  O   O17       1.0  0.36805  0.37679  0.88828  1.0000
  O   O18       1.0  0.13195  0.87680  0.61172  1.0000
  O   O19       1.0  0.63195  0.62321  0.11172  1.0000
  O   O20       1.0  0.86804  0.12321  0.38828  1.0000
  O   O21       1.0  0.71102  0.48161  0.94334  1.0000
  O   O22       1.0  0.78898  0.98161  0.55666  1.0000
  O   O23       1.0  0.28898  0.51839  0.05666  1.0000
  O   O24       1.0  0.21102  0.01839  0.44334  1.0000
