data_image0
_chemical_formula_structural       Cd2H16C24S4N8O4
_chemical_formula_sum              "Cd2 H16 C24 S4 N8 O4"
_cell_length_a       8.92573
_cell_length_b       9.51606
_cell_length_c       9.51608
_cell_angle_alpha    96.2163
_cell_angle_beta     109.097
_cell_angle_gamma    109.097

_space_group_name_H-M_alt    "P 1"
_space_group_IT_number       1

loop_
  _space_group_symop_operation_xyz
  'x, y, z'

loop_
  _atom_site_type_symbol
  _atom_site_label
  _atom_site_symmetry_multiplicity
  _atom_site_fract_x
  _atom_site_fract_y
  _atom_site_fract_z
  _atom_site_occupancy
  Cd  Cd1       1.0  0.75000  0.21905  0.78095  1.0000
  Cd  Cd2       1.0  0.25000  0.78095  0.21905  1.0000
  H   H1        1.0  0.32927  0.55858  0.64653  1.0000
  H   H2        1.0  0.17074  0.35347  0.44142  1.0000
  H   H3        1.0  0.67073  0.44142  0.35347  1.0000
  H   H4        1.0  0.82926  0.64653  0.55858  1.0000
  H   H5        1.0  0.52740  0.49536  0.86569  1.0000
  H   H6        1.0  0.97260  0.13431  0.50464  1.0000
  H   H7        1.0  0.47260  0.50464  0.13430  1.0000
  H   H8        1.0  0.02739  0.86570  0.49536  1.0000
  H   H9        1.0  0.75838  0.71257  0.08276  1.0000
  H   H10       1.0  0.74161  0.91724  0.28742  1.0000
  H   H11       1.0  0.24162  0.28743  0.91723  1.0000
  H   H12       1.0  0.25839  0.08276  0.71257  1.0000
  H   H13       1.0  0.36691  0.83465  0.66100  1.0000
  H   H14       1.0  0.13309  0.33899  0.16535  1.0000
  H   H15       1.0  0.63309  0.16535  0.33900  1.0000
  H   H16       1.0  0.86691  0.66101  0.83465  1.0000
  C   C1        1.0  0.68383  0.88374  0.98856  1.0000
  C   C2        1.0  0.81617  0.01144  0.11626  1.0000
  C   C3        1.0  0.31617  0.11626  0.01144  1.0000
  C   C4        1.0  0.18383  0.98856  0.88374  1.0000
  C   C5        1.0  0.42981  0.64751  0.74502  1.0000
  C   C6        1.0  0.07019  0.25498  0.35249  1.0000
  C   C7        1.0  0.57019  0.35249  0.25498  1.0000
  C   C8        1.0  0.92981  0.74502  0.64751  1.0000
  C   C9        1.0  0.53869  0.61288  0.86637  1.0000
  C   C10       1.0  0.96131  0.13363  0.38712  1.0000
  C   C11       1.0  0.46131  0.38712  0.13363  1.0000
  C   C12       1.0  0.03869  0.86637  0.61288  1.0000
  C   C13       1.0  0.66611  0.73274  0.98779  1.0000
  C   C14       1.0  0.83388  0.01221  0.26726  1.0000
  C   C15       1.0  0.33389  0.26726  0.01221  1.0000
  C   C16       1.0  0.16611  0.98779  0.73274  1.0000
  C   C17       1.0  0.44700  0.79764  0.74941  1.0000
  C   C18       1.0  0.05300  0.25059  0.20236  1.0000
  C   C19       1.0  0.55300  0.20236  0.25059  1.0000
  C   C20       1.0  0.94700  0.74941  0.79764  1.0000
  C   C21       1.0  0.62092  0.89046  0.51198  1.0000
  C   C22       1.0  0.87910  0.48803  0.10955  1.0000
  C   C23       1.0  0.37909  0.10955  0.48803  1.0000
  C   C24       1.0  0.12091  0.51197  0.89045  1.0000
  S   S1        1.0  0.51067  0.71815  0.39966  1.0000
  S   S2        1.0  0.98933  0.60034  0.28184  1.0000
  S   S3        1.0  0.48933  0.28184  0.60034  1.0000
  S   S4        1.0  0.01067  0.39966  0.71816  1.0000
  N   N1        1.0  0.56941  0.91352  0.87075  1.0000
  N   N2        1.0  0.93060  0.12925  0.08648  1.0000
  N   N3        1.0  0.43060  0.08648  0.12925  1.0000
  N   N4        1.0  0.06940  0.87075  0.91352  1.0000
  N   N5        1.0  0.70387  0.01532  0.59187  1.0000
  N   N6        1.0  0.79612  0.40812  0.98467  1.0000
  N   N7        1.0  0.29612  0.98467  0.40813  1.0000
  N   N8        1.0  0.20388  0.59187  0.01533  1.0000
  O   O1        1.0  0.57268  0.05292  0.87695  1.0000
  O   O2        1.0  0.92732  0.12304  0.94708  1.0000
  O   O3        1.0  0.42732  0.94708  0.12304  1.0000
  O   O4        1.0  0.07268  0.87696  0.05292  1.0000
