data_image0
_chemical_formula_structural       Sn4H32C16O16
_chemical_formula_sum              "Sn4 H32 C16 O16"
_cell_length_a       5.8475
_cell_length_b       9.38516
_cell_length_c       12.4763
_cell_angle_alpha    90.0004
_cell_angle_beta     89.9997
_cell_angle_gamma    90

_space_group_name_H-M_alt    "P 1"
_space_group_IT_number       1

loop_
  _space_group_symop_operation_xyz
  'x, y, z'

loop_
  _atom_site_type_symbol
  _atom_site_label
  _atom_site_symmetry_multiplicity
  _atom_site_fract_x
  _atom_site_fract_y
  _atom_site_fract_z
  _atom_site_occupancy
  Sn  Sn1       1.0  0.59886  0.75001  0.80203  1.0000
  Sn  Sn2       1.0  0.09885  0.25001  0.69797  1.0000
  Sn  Sn3       1.0  0.90113  0.75000  0.30204  1.0000
  Sn  Sn4       1.0  0.40112  0.25000  0.19796  1.0000
  H   H1        1.0  0.76449  0.75000  0.59786  1.0000
  H   H2        1.0  0.26449  0.25000  0.90214  1.0000
  H   H3        1.0  0.73550  0.75000  0.09786  1.0000
  H   H4        1.0  0.23549  0.25000  0.40215  1.0000
  H   H5        1.0  0.95123  0.84585  0.68598  1.0000
  H   H6        1.0  0.45124  0.15414  0.81403  1.0000
  H   H7        1.0  0.54877  0.65414  0.18598  1.0000
  H   H8        1.0  0.04876  0.34586  0.31402  1.0000
  H   H9        1.0  0.04876  0.15415  0.31402  1.0000
  H   H10       1.0  0.54875  0.84586  0.18597  1.0000
  H   H11       1.0  0.45123  0.34585  0.81402  1.0000
  H   H12       1.0  0.95124  0.65414  0.68598  1.0000
  H   H13       1.0  0.18636  0.74999  0.89407  1.0000
  H   H14       1.0  0.68637  0.25000  0.60594  1.0000
  H   H15       1.0  0.31363  0.75000  0.39406  1.0000
  H   H16       1.0  0.81364  0.25000  0.10593  1.0000
  H   H17       1.0  0.38527  0.84595  0.97696  1.0000
  H   H18       1.0  0.88527  0.15404  0.52305  1.0000
  H   H19       1.0  0.11473  0.65404  0.47695  1.0000
  H   H20       1.0  0.61474  0.34595  0.02304  1.0000
  H   H21       1.0  0.61473  0.15405  0.02305  1.0000
  H   H22       1.0  0.11473  0.84595  0.47695  1.0000
  H   H23       1.0  0.88526  0.34595  0.52305  1.0000
  H   H24       1.0  0.38526  0.65405  0.97696  1.0000
  H   H25       1.0  0.52084  0.92157  0.57610  1.0000
  H   H26       1.0  0.02086  0.07842  0.92391  1.0000
  H   H27       1.0  0.97913  0.57842  0.07610  1.0000
  H   H28       1.0  0.47917  0.42157  0.42390  1.0000
  H   H29       1.0  0.47917  0.07843  0.42390  1.0000
  H   H30       1.0  0.97914  0.92158  0.07610  1.0000
  H   H31       1.0  0.02085  0.42157  0.92390  1.0000
  H   H32       1.0  0.52087  0.57842  0.57610  1.0000
  C   C1        1.0  0.84718  0.75000  0.67656  1.0000
  C   C2        1.0  0.34717  0.25000  0.82343  1.0000
  C   C3        1.0  0.65281  0.75000  0.17657  1.0000
  C   C4        1.0  0.15282  0.25000  0.32344  1.0000
  C   C5        1.0  0.35771  0.75000  0.92893  1.0000
  C   C6        1.0  0.85771  0.25000  0.57107  1.0000
  C   C7        1.0  0.14229  0.75000  0.42892  1.0000
  C   C8        1.0  0.64229  0.25000  0.07107  1.0000
  C   C9        1.0  0.40641  0.97613  0.63362  1.0000
  C   C10       1.0  0.90640  0.02386  0.86638  1.0000
  C   C11       1.0  0.09358  0.52387  0.13362  1.0000
  C   C12       1.0  0.59360  0.47613  0.36637  1.0000
  C   C13       1.0  0.59360  0.02387  0.36637  1.0000
  C   C14       1.0  0.09359  0.97613  0.13363  1.0000
  C   C15       1.0  0.90642  0.47613  0.86639  1.0000
  C   C16       1.0  0.40642  0.52386  0.63362  1.0000
  O   O1        1.0  0.38085  0.92461  0.72708  1.0000
  O   O2        1.0  0.88085  0.07539  0.77294  1.0000
  O   O3        1.0  0.11916  0.57540  0.22707  1.0000
  O   O4        1.0  0.61916  0.42462  0.27293  1.0000
  O   O5        1.0  0.61915  0.07539  0.27293  1.0000
  O   O6        1.0  0.11917  0.92461  0.22707  1.0000
  O   O7        1.0  0.88085  0.42461  0.77293  1.0000
  O   O8        1.0  0.38085  0.57539  0.72706  1.0000
  O   O9        1.0  0.80713  0.58746  0.90080  1.0000
  O   O10       1.0  0.30713  0.41254  0.59920  1.0000
  O   O11       1.0  0.69290  0.91254  0.40080  1.0000
  O   O12       1.0  0.19288  0.08746  0.09920  1.0000
  O   O13       1.0  0.19288  0.41254  0.09920  1.0000
  O   O14       1.0  0.69290  0.58746  0.40080  1.0000
  O   O15       1.0  0.30711  0.08746  0.59921  1.0000
  O   O16       1.0  0.80712  0.91254  0.90080  1.0000
