data_image0
_chemical_formula_structural       Cs2H4C12N6O18
_chemical_formula_sum              "Cs2 H4 C12 N6 O18"
_cell_length_a       4.73995
_cell_length_b       9.81337
_cell_length_c       11.2425
_cell_angle_alpha    90.0001
_cell_angle_beta     89.9999
_cell_angle_gamma    102.808

_space_group_name_H-M_alt    "P 1"
_space_group_IT_number       1

loop_
  _space_group_symop_operation_xyz
  'x, y, z'

loop_
  _atom_site_type_symbol
  _atom_site_label
  _atom_site_symmetry_multiplicity
  _atom_site_fract_x
  _atom_site_fract_y
  _atom_site_fract_z
  _atom_site_occupancy
  Cs  Cs1       1.0  0.41585  0.38981  0.90737  1.0000
  Cs  Cs2       1.0  0.41585  0.88981  0.09263  1.0000
  H   H1        1.0  0.64187  0.53586  0.55146  1.0000
  H   H2        1.0  0.64187  0.03586  0.44855  1.0000
  H   H3        1.0  0.18371  0.24296  0.55240  1.0000
  H   H4        1.0  0.18370  0.74296  0.44760  1.0000
  C   C1        1.0  0.77509  0.48216  0.27961  1.0000
  C   C2        1.0  0.77510  0.98217  0.72040  1.0000
  C   C3        1.0  0.75689  0.47696  0.40355  1.0000
  C   C4        1.0  0.75689  0.97696  0.59645  1.0000
  C   C5        1.0  0.91367  0.38954  0.46744  1.0000
  C   C6        1.0  0.91367  0.88954  0.53256  1.0000
  C   C7        1.0  0.07136  0.30210  0.40413  1.0000
  C   C8        1.0  0.07136  0.80210  0.59586  1.0000
  C   C9        1.0  0.05528  0.29688  0.28015  1.0000
  C   C10       1.0  0.05528  0.79688  0.71985  1.0000
  C   C11       1.0  0.91561  0.38948  0.20997  1.0000
  C   C12       1.0  0.91561  0.88948  0.79003  1.0000
  N   N1        1.0  0.65773  0.58495  0.21759  1.0000
  N   N2        1.0  0.65773  0.08495  0.78242  1.0000
  N   N3        1.0  0.91278  0.38957  0.59033  1.0000
  N   N4        1.0  0.91278  0.88957  0.40967  1.0000
  N   N5        1.0  0.17394  0.19424  0.21858  1.0000
  N   N6        1.0  0.17393  0.69424  0.78142  1.0000
  O   O1        1.0  0.61226  0.55578  0.46328  1.0000
  O   O2        1.0  0.61225  0.05578  0.53672  1.0000
  O   O3        1.0  0.21496  0.22324  0.46435  1.0000
  O   O4        1.0  0.21495  0.72324  0.53565  1.0000
  O   O5        1.0  0.91622  0.38941  0.09909  1.0000
  O   O6        1.0  0.91622  0.88941  0.90091  1.0000
  O   O7        1.0  0.78189  0.63836  0.12530  1.0000
  O   O8        1.0  0.78188  0.13836  0.87471  1.0000
  O   O9        1.0  0.43644  0.61861  0.25781  1.0000
  O   O10       1.0  0.43643  0.11861  0.74219  1.0000
  O   O11       1.0  0.76554  0.46132  0.64905  1.0000
  O   O12       1.0  0.76554  0.96132  0.35095  1.0000
  O   O13       1.0  0.05914  0.31789  0.64958  1.0000
  O   O14       1.0  0.05914  0.81789  0.35042  1.0000
  O   O15       1.0  0.39471  0.16065  0.25945  1.0000
  O   O16       1.0  0.39471  0.66065  0.74055  1.0000
  O   O17       1.0  0.05149  0.14092  0.12592  1.0000
  O   O18       1.0  0.05149  0.64092  0.87408  1.0000
