data_image0
_chemical_formula_structural       CoH24C30N4O14
_chemical_formula_sum              "Co1 H24 C30 N4 O14"
_cell_length_a       7.67506
_cell_length_b       9.39053
_cell_length_c       10.6495
_cell_angle_alpha    113.363
_cell_angle_beta     91.3522
_cell_angle_gamma    99.9061

_space_group_name_H-M_alt    "P 1"
_space_group_IT_number       1

loop_
  _space_group_symop_operation_xyz
  'x, y, z'

loop_
  _atom_site_type_symbol
  _atom_site_label
  _atom_site_symmetry_multiplicity
  _atom_site_fract_x
  _atom_site_fract_y
  _atom_site_fract_z
  _atom_site_occupancy
  Co  Co1       1.0  1.00000  0.50000  0.50000  1.0000
  H   H1        1.0  0.94333  0.23372  0.96384  1.0000
  H   H2        1.0  0.05667  0.76629  0.03617  1.0000
  H   H3        1.0  0.40975  0.61991  0.21578  1.0000
  H   H4        1.0  0.59025  0.38009  0.78421  1.0000
  H   H5        1.0  0.62166  0.95652  0.04627  1.0000
  H   H6        1.0  0.37834  0.04348  0.95373  1.0000
  H   H7        1.0  0.40363  0.60076  0.63135  1.0000
  H   H8        1.0  0.59637  0.39923  0.36865  1.0000
  H   H9        1.0  0.57030  0.77409  0.85598  1.0000
  H   H10       1.0  0.42971  0.22590  0.14401  1.0000
  H   H11       1.0  0.57211  0.81345  0.44307  1.0000
  H   H12       1.0  0.42789  0.18654  0.55693  1.0000
  H   H13       1.0  0.77335  0.13303  0.27895  1.0000
  H   H14       1.0  0.22665  0.86697  0.72105  1.0000
  H   H15       1.0  0.21929  0.50934  0.03800  1.0000
  H   H16       1.0  0.78070  0.49066  0.96200  1.0000
  H   H17       1.0  0.06517  0.34726  0.80062  1.0000
  H   H18       1.0  0.93482  0.65273  0.19938  1.0000
  H   H19       1.0  0.78777  0.26924  0.51178  1.0000
  H   H20       1.0  0.21223  0.73076  0.48822  1.0000
  H   H21       1.0  0.78494  0.43935  0.63509  1.0000
  H   H22       1.0  0.21506  0.56065  0.36491  1.0000
  H   H23       1.0  0.83911  0.05116  0.60194  1.0000
  H   H24       1.0  0.16089  0.94885  0.39806  1.0000
  C   C1        1.0  0.92397  0.98107  0.87187  1.0000
  C   C2        1.0  0.07604  0.01894  0.12813  1.0000
  C   C3        1.0  0.95563  0.84818  0.89218  1.0000
  C   C4        1.0  0.04437  0.15182  0.10782  1.0000
  C   C5        1.0  0.96988  0.13133  0.97940  1.0000
  C   C6        1.0  0.03013  0.86868  0.02060  1.0000
  C   C7        1.0  0.83111  0.96131  0.73877  1.0000
  C   C8        1.0  0.16887  0.03867  0.26122  1.0000
  C   C9        1.0  0.92196  0.68642  0.77599  1.0000
  C   C10       1.0  0.07803  0.31359  0.22402  1.0000
  C   C11       1.0  0.37020  0.58915  0.72585  1.0000
  C   C12       1.0  0.62981  0.41084  0.27415  1.0000
  C   C13       1.0  0.17665  0.44549  0.82373  1.0000
  C   C14       1.0  0.82335  0.55450  0.17627  1.0000
  C   C15       1.0  0.45788  0.68472  0.85349  1.0000
  C   C16       1.0  0.54213  0.31527  0.14651  1.0000
  C   C17       1.0  0.26445  0.53753  0.95262  1.0000
  C   C18       1.0  0.73555  0.46247  0.04737  1.0000
  C   C19       1.0  0.40735  0.66395  0.97255  1.0000
  C   C20       1.0  0.59266  0.33604  0.02744  1.0000
  C   C21       1.0  0.49800  0.77000  0.10797  1.0000
  C   C22       1.0  0.50200  0.23000  0.89203  1.0000
  C   C23       1.0  0.60417  0.91736  0.12939  1.0000
  C   C24       1.0  0.39582  0.08264  0.87061  1.0000
  C   C25       1.0  0.48601  0.73284  0.22393  1.0000
  C   C26       1.0  0.51399  0.26716  0.77607  1.0000
  C   C27       1.0  0.68914  0.01841  0.25666  1.0000
  C   C28       1.0  0.31086  0.98159  0.74334  1.0000
  C   C29       1.0  0.57376  0.83631  0.35052  1.0000
  C   C30       1.0  0.42624  0.16369  0.64948  1.0000
  N   N1        1.0  0.22766  0.47201  0.71121  1.0000
  N   N2        1.0  0.77234  0.52798  0.28879  1.0000
  N   N3        1.0  0.67295  0.97824  0.36576  1.0000
  N   N4        1.0  0.32704  0.02176  0.63424  1.0000
  O   O1        1.0  0.90929  0.06501  0.69140  1.0000
  O   O2        1.0  0.09072  0.93501  0.30860  1.0000
  O   O3        1.0  0.69450  0.86155  0.68449  1.0000
  O   O4        1.0  0.30553  0.13848  0.31552  1.0000
  O   O5        1.0  0.00256  0.68028  0.66990  1.0000
  O   O6        1.0  0.99744  0.31972  0.33010  1.0000
  O   O7        1.0  0.82652  0.57169  0.79090  1.0000
  O   O8        1.0  0.17348  0.42832  0.20910  1.0000
  O   O9        1.0  0.13885  0.38550  0.59006  1.0000
  O   O10       1.0  0.86115  0.61449  0.40994  1.0000
  O   O11       1.0  0.75243  0.08194  0.48764  1.0000
  O   O12       1.0  0.24756  0.91806  0.51236  1.0000
  O   O13       1.0  0.78218  0.38267  0.53191  1.0000
  O   O14       1.0  0.21782  0.61733  0.46809  1.0000
