data_image0
_chemical_formula_structural       Zn4H20C28N4O24
_chemical_formula_sum              "Zn4 H20 C28 N4 O24"
_cell_length_a       5.90415
_cell_length_b       5.6593
_cell_length_c       24.051
_cell_angle_alpha    93.0333
_cell_angle_beta     90.0001
_cell_angle_gamma    89.9999

_space_group_name_H-M_alt    "P 1"
_space_group_IT_number       1

loop_
  _space_group_symop_operation_xyz
  'x, y, z'

loop_
  _atom_site_type_symbol
  _atom_site_label
  _atom_site_symmetry_multiplicity
  _atom_site_fract_x
  _atom_site_fract_y
  _atom_site_fract_z
  _atom_site_occupancy
  Zn  Zn1       1.0  0.05280  0.73698  0.96127  1.0000
  Zn  Zn2       1.0  0.55280  0.26302  0.53873  1.0000
  Zn  Zn3       1.0  0.94720  0.26301  0.03873  1.0000
  Zn  Zn4       1.0  0.44720  0.73699  0.46127  1.0000
  H   H1        1.0  0.43979  0.90462  0.76766  1.0000
  H   H2        1.0  0.93979  0.09538  0.73234  1.0000
  H   H3        1.0  0.56021  0.09538  0.23234  1.0000
  H   H4        1.0  0.06021  0.90463  0.26766  1.0000
  H   H5        1.0  0.77022  0.64200  0.74823  1.0000
  H   H6        1.0  0.27022  0.35800  0.75177  1.0000
  H   H7        1.0  0.22978  0.35801  0.25177  1.0000
  H   H8        1.0  0.72978  0.64199  0.24823  1.0000
  H   H9        1.0  0.89875  0.37028  0.82452  1.0000
  H   H10       1.0  0.39874  0.62973  0.67548  1.0000
  H   H11       1.0  0.10126  0.62972  0.17548  1.0000
  H   H12       1.0  0.60126  0.37028  0.32452  1.0000
  H   H13       1.0  0.68782  0.99696  0.97190  1.0000
  H   H14       1.0  0.18782  0.00305  0.52810  1.0000
  H   H15       1.0  0.31217  0.00305  0.02810  1.0000
  H   H16       1.0  0.81217  0.99696  0.47190  1.0000
  H   H17       1.0  0.67921  0.83359  0.02540  1.0000
  H   H18       1.0  0.17921  0.16641  0.47460  1.0000
  H   H19       1.0  0.32079  0.16640  0.97460  1.0000
  H   H20       1.0  0.82079  0.83360  0.52540  1.0000
  C   C1        1.0  0.17602  0.95207  0.85656  1.0000
  C   C2        1.0  0.67602  0.04794  0.64343  1.0000
  C   C3        1.0  0.82399  0.04794  0.14343  1.0000
  C   C4        1.0  0.32398  0.95208  0.35656  1.0000
  C   C5        1.0  0.37957  0.78813  0.84882  1.0000
  C   C6        1.0  0.87958  0.21187  0.65118  1.0000
  C   C7        1.0  0.62043  0.21187  0.15118  1.0000
  C   C8        1.0  0.12042  0.78814  0.34882  1.0000
  C   C9        1.0  0.49771  0.78460  0.79851  1.0000
  C   C10       1.0  0.99772  0.21539  0.70149  1.0000
  C   C11       1.0  0.50228  0.21539  0.20149  1.0000
  C   C12       1.0  0.00228  0.78461  0.29851  1.0000
  C   C13       1.0  0.68263  0.63726  0.78797  1.0000
  C   C14       1.0  0.18264  0.36274  0.71203  1.0000
  C   C15       1.0  0.31737  0.36274  0.21203  1.0000
  C   C16       1.0  0.81737  0.63727  0.28797  1.0000
  C   C17       1.0  0.75345  0.48991  0.82927  1.0000
  C   C18       1.0  0.25345  0.51009  0.67073  1.0000
  C   C19       1.0  0.24655  0.51009  0.17073  1.0000
  C   C20       1.0  0.74655  0.48991  0.32927  1.0000
  C   C21       1.0  0.63710  0.49771  0.87921  1.0000
  C   C22       1.0  0.13710  0.50229  0.62079  1.0000
  C   C23       1.0  0.36290  0.50229  0.12079  1.0000
  C   C24       1.0  0.86290  0.49771  0.37921  1.0000
  C   C25       1.0  0.69646  0.34838  0.92707  1.0000
  C   C26       1.0  0.19646  0.65162  0.57293  1.0000
  C   C27       1.0  0.30354  0.65162  0.07293  1.0000
  C   C28       1.0  0.80354  0.34838  0.42707  1.0000
  N   N1        1.0  0.45434  0.64211  0.88869  1.0000
  N   N2        1.0  0.95433  0.35788  0.61131  1.0000
  N   N3        1.0  0.54567  0.35788  0.11131  1.0000
  N   N4        1.0  0.04566  0.64211  0.38869  1.0000
  O   O1        1.0  0.36962  0.63656  0.93993  1.0000
  O   O2        1.0  0.86962  0.36344  0.56007  1.0000
  O   O3        1.0  0.63039  0.36345  0.06007  1.0000
  O   O4        1.0  0.13038  0.63656  0.43993  1.0000
  O   O5        1.0  0.01832  0.90238  0.89095  1.0000
  O   O6        1.0  0.51833  0.09762  0.60905  1.0000
  O   O7        1.0  0.98168  0.09761  0.10905  1.0000
  O   O8        1.0  0.48167  0.90239  0.39095  1.0000
  O   O9        1.0  0.17123  0.12223  0.82574  1.0000
  O   O10       1.0  0.67123  0.87775  0.67426  1.0000
  O   O11       1.0  0.82877  0.87776  0.17426  1.0000
  O   O12       1.0  0.32876  0.12224  0.32575  1.0000
  O   O13       1.0  0.57628  0.16807  0.93318  1.0000
  O   O14       1.0  0.07628  0.83192  0.56682  1.0000
  O   O15       1.0  0.42372  0.83192  0.06682  1.0000
  O   O16       1.0  0.92372  0.16807  0.43318  1.0000
  O   O17       1.0  0.86853  0.40927  0.95710  1.0000
  O   O18       1.0  0.36854  0.59073  0.54290  1.0000
  O   O19       1.0  0.13145  0.59074  0.04290  1.0000
  O   O20       1.0  0.63145  0.40926  0.45710  1.0000
  O   O21       1.0  0.78382  0.90849  0.99953  1.0000
  O   O22       1.0  0.28382  0.09152  0.50047  1.0000
  O   O23       1.0  0.21618  0.09151  0.00047  1.0000
  O   O24       1.0  0.71617  0.90849  0.49953  1.0000
