data_image0
_chemical_formula_structural       Cu2H16C24N4O12
_chemical_formula_sum              "Cu2 H16 C24 N4 O12"
_cell_length_a       3.74037
_cell_length_b       12.0794
_cell_length_c       12.4928
_cell_angle_alpha    90.0001
_cell_angle_beta     89.9992
_cell_angle_gamma    92.7711

_space_group_name_H-M_alt    "P 1"
_space_group_IT_number       1

loop_
  _space_group_symop_operation_xyz
  'x, y, z'

loop_
  _atom_site_type_symbol
  _atom_site_label
  _atom_site_symmetry_multiplicity
  _atom_site_fract_x
  _atom_site_fract_y
  _atom_site_fract_z
  _atom_site_occupancy
  Cu  Cu1       1.0  1.00000  1.00000  0.50000  1.0000
  Cu  Cu2       1.0  0.00000  0.50000  0.00000  1.0000
  H   H1        1.0  0.78781  0.29054  0.80485  1.0000
  H   H2        1.0  0.21221  0.20947  0.30484  1.0000
  H   H3        1.0  0.21217  0.70945  0.19516  1.0000
  H   H4        1.0  0.78779  0.79054  0.69515  1.0000
  H   H5        1.0  0.22626  0.00215  0.93902  1.0000
  H   H6        1.0  0.77374  0.49785  0.43903  1.0000
  H   H7        1.0  0.77371  0.99784  0.06097  1.0000
  H   H8        1.0  0.22627  0.50215  0.56097  1.0000
  H   H9        1.0  0.34281  0.90412  0.76989  1.0000
  H   H10       1.0  0.65720  0.59590  0.26990  1.0000
  H   H11       1.0  0.65719  0.09588  0.23010  1.0000
  H   H12       1.0  0.34283  0.40411  0.73010  1.0000
  H   H13       1.0  0.46973  0.20207  0.96046  1.0000
  H   H14       1.0  0.53026  0.29793  0.46046  1.0000
  H   H15       1.0  0.53022  0.79793  0.03954  1.0000
  H   H16       1.0  0.46975  0.70207  0.53954  1.0000
  C   C1        1.0  0.73873  0.14761  0.70517  1.0000
  C   C2        1.0  0.26129  0.35240  0.20517  1.0000
  C   C3        1.0  0.26127  0.85239  0.29483  1.0000
  C   C4        1.0  0.73871  0.64760  0.79483  1.0000
  C   C5        1.0  0.92952  0.20769  0.61361  1.0000
  C   C6        1.0  0.07050  0.29232  0.11362  1.0000
  C   C7        1.0  0.07048  0.79232  0.38639  1.0000
  C   C8        1.0  0.92950  0.70770  0.88638  1.0000
  C   C9        1.0  0.68481  0.20494  0.80047  1.0000
  C   C10       1.0  0.31522  0.29507  0.30047  1.0000
  C   C11       1.0  0.31518  0.79506  0.19953  1.0000
  C   C12       1.0  0.68479  0.70493  0.69952  1.0000
  C   C13       1.0  0.37515  0.04641  0.87632  1.0000
  C   C14       1.0  0.62487  0.45360  0.37632  1.0000
  C   C15       1.0  0.62483  0.95359  0.12368  1.0000
  C   C16       1.0  0.37514  0.54640  0.62368  1.0000
  C   C17       1.0  0.43479  0.98959  0.78284  1.0000
  C   C18       1.0  0.56523  0.51042  0.28284  1.0000
  C   C19       1.0  0.56521  0.01040  0.21716  1.0000
  C   C20       1.0  0.43478  0.48958  0.71716  1.0000
  C   C21       1.0  0.50541  0.15593  0.88690  1.0000
  C   C22       1.0  0.49459  0.34407  0.38690  1.0000
  C   C23       1.0  0.49456  0.84407  0.11309  1.0000
  C   C24       1.0  0.50542  0.65593  0.61310  1.0000
  N   N1        1.0  0.61525  0.03894  0.69958  1.0000
  N   N2        1.0  0.38478  0.46108  0.19959  1.0000
  N   N3        1.0  0.38475  0.96105  0.30042  1.0000
  N   N4        1.0  0.61523  0.53893  0.80041  1.0000
  O   O1        1.0  0.07163  0.15306  0.53691  1.0000
  O   O2        1.0  0.92838  0.34694  0.03692  1.0000
  O   O3        1.0  0.92837  0.84693  0.46309  1.0000
  O   O4        1.0  0.07162  0.65306  0.96308  1.0000
  O   O5        1.0  0.64612  0.97436  0.61348  1.0000
  O   O6        1.0  0.35390  0.52566  0.11347  1.0000
  O   O7        1.0  0.35389  0.02564  0.38652  1.0000
  O   O8        1.0  0.64611  0.47435  0.88652  1.0000
  O   O9        1.0  0.94955  0.31074  0.61922  1.0000
  O   O10       1.0  0.05046  0.18926  0.11923  1.0000
  O   O11       1.0  0.05047  0.68924  0.38078  1.0000
  O   O12       1.0  0.94954  0.81074  0.88077  1.0000
