data_image0
_chemical_formula_structural       Ca2H12C18O14
_chemical_formula_sum              "Ca2 H12 C18 O14"
_cell_length_a       6.9114
_cell_length_b       6.97373
_cell_length_c       10.3848
_cell_angle_alpha    87.1053
_cell_angle_beta     83.442
_cell_angle_gamma    69.4577

_space_group_name_H-M_alt    "P 1"
_space_group_IT_number       1

loop_
  _space_group_symop_operation_xyz
  'x, y, z'

loop_
  _atom_site_type_symbol
  _atom_site_label
  _atom_site_symmetry_multiplicity
  _atom_site_fract_x
  _atom_site_fract_y
  _atom_site_fract_z
  _atom_site_occupancy
  Ca  Ca1       1.0  0.24988  0.26236  0.04532  1.0000
  Ca  Ca2       1.0  0.75011  0.73764  0.95468  1.0000
  H   H1        1.0  0.59284  0.75380  0.69517  1.0000
  H   H2        1.0  0.40716  0.24620  0.30483  1.0000
  H   H3        1.0  0.57177  0.38481  0.16944  1.0000
  H   H4        1.0  0.42823  0.61519  0.83055  1.0000
  H   H5        1.0  0.65625  0.13390  0.16289  1.0000
  H   H6        1.0  0.34374  0.86610  0.83711  1.0000
  H   H7        1.0  0.78409  0.78864  0.37880  1.0000
  H   H8        1.0  0.21591  0.21136  0.62120  1.0000
  H   H9        1.0  0.27304  0.70549  0.62070  1.0000
  H   H10       1.0  0.72696  0.29451  0.37930  1.0000
  H   H11       1.0  0.51577  0.70602  0.42504  1.0000
  H   H12       1.0  0.48423  0.29398  0.57496  1.0000
  C   C1        1.0  0.87269  0.74385  0.63073  1.0000
  C   C2        1.0  0.12731  0.25615  0.36927  1.0000
  C   C3        1.0  0.01411  0.74630  0.51236  1.0000
  C   C4        1.0  0.98589  0.25370  0.48764  1.0000
  C   C5        1.0  0.94446  0.77048  0.38908  1.0000
  C   C6        1.0  0.05554  0.22952  0.61092  1.0000
  C   C7        1.0  0.22062  0.72326  0.52440  1.0000
  C   C8        1.0  0.77938  0.27674  0.47560  1.0000
  C   C9        1.0  0.28783  0.74353  0.29076  1.0000
  C   C10       1.0  0.71217  0.25647  0.70924  1.0000
  C   C11       1.0  0.35603  0.72228  0.41427  1.0000
  C   C12       1.0  0.64396  0.27772  0.58573  1.0000
  C   C13       1.0  0.08022  0.76686  0.27828  1.0000
  C   C14       1.0  0.91978  0.23314  0.72172  1.0000
  C   C15       1.0  0.43483  0.75219  0.17431  1.0000
  C   C16       1.0  0.56517  0.24781  0.82569  1.0000
  C   C17       1.0  0.00151  0.77099  0.14925  1.0000
  C   C18       1.0  0.99849  0.22901  0.85075  1.0000
  O   O1        1.0  0.39242  0.91332  0.10525  1.0000
  O   O2        1.0  0.60757  0.08668  0.89475  1.0000
  O   O3        1.0  0.83392  0.91173  0.12436  1.0000
  O   O4        1.0  0.16608  0.08827  0.87563  1.0000
  O   O5        1.0  0.09732  0.62588  0.07021  1.0000
  O   O6        1.0  0.90268  0.37412  0.92980  1.0000
  O   O7        1.0  0.93051  0.72583  0.74134  1.0000
  O   O8        1.0  0.06949  0.27416  0.25866  1.0000
  O   O9        1.0  0.60160  0.59843  0.14994  1.0000
  O   O10       1.0  0.39840  0.40158  0.85006  1.0000
  O   O11       1.0  0.68246  0.76140  0.60826  1.0000
  O   O12       1.0  0.31754  0.23860  0.39174  1.0000
  O   O13       1.0  0.52857  0.25920  0.17756  1.0000
  O   O14       1.0  0.47143  0.74080  0.82244  1.0000
