data_image0
_chemical_formula_structural       Ag8H12C28N4O16
_chemical_formula_sum              "Ag8 H12 C28 N4 O16"
_cell_length_a       6.71349
_cell_length_b       10.2231
_cell_length_c       10.9649
_cell_angle_alpha    90.0001
_cell_angle_beta     89.9996
_cell_angle_gamma    98.5346

_space_group_name_H-M_alt    "P 1"
_space_group_IT_number       1

loop_
  _space_group_symop_operation_xyz
  'x, y, z'

loop_
  _atom_site_type_symbol
  _atom_site_label
  _atom_site_symmetry_multiplicity
  _atom_site_fract_x
  _atom_site_fract_y
  _atom_site_fract_z
  _atom_site_occupancy
  Ag  Ag1       1.0  0.26520  0.38057  0.04972  1.0000
  Ag  Ag2       1.0  0.23480  0.61943  0.54972  1.0000
  Ag  Ag3       1.0  0.73479  0.61943  0.95028  1.0000
  Ag  Ag4       1.0  0.76520  0.38057  0.45028  1.0000
  Ag  Ag5       1.0  0.94276  0.33762  0.69051  1.0000
  Ag  Ag6       1.0  0.55724  0.66238  0.19051  1.0000
  Ag  Ag7       1.0  0.05724  0.66238  0.30949  1.0000
  Ag  Ag8       1.0  0.44276  0.33761  0.80949  1.0000
  H   H1        1.0  0.35910  0.98522  0.44900  1.0000
  H   H2        1.0  0.14091  0.01478  0.94900  1.0000
  H   H3        1.0  0.64091  0.01478  0.55100  1.0000
  H   H4        1.0  0.85909  0.98523  0.05100  1.0000
  H   H5        1.0  0.39926  0.92714  0.23037  1.0000
  H   H6        1.0  0.10074  0.07286  0.73037  1.0000
  H   H7        1.0  0.60074  0.07287  0.76962  1.0000
  H   H8        1.0  0.89926  0.92714  0.26962  1.0000
  H   H9        1.0  0.37444  0.09993  0.07147  1.0000
  H   H10       1.0  0.12557  0.90007  0.57147  1.0000
  H   H11       1.0  0.62556  0.90007  0.92853  1.0000
  H   H12       1.0  0.87444  0.09993  0.42853  1.0000
  C   C1        1.0  0.29397  0.27514  0.31286  1.0000
  C   C2        1.0  0.20602  0.72485  0.81287  1.0000
  C   C3        1.0  0.70603  0.72486  0.68714  1.0000
  C   C4        1.0  0.79397  0.27515  0.18713  1.0000
  C   C5        1.0  0.31039  0.18530  0.40839  1.0000
  C   C6        1.0  0.18961  0.81469  0.90839  1.0000
  C   C7        1.0  0.68961  0.81470  0.59161  1.0000
  C   C8        1.0  0.81039  0.18531  0.09161  1.0000
  C   C9        1.0  0.34703  0.05823  0.37819  1.0000
  C   C10       1.0  0.15297  0.94177  0.87819  1.0000
  C   C11       1.0  0.65296  0.94177  0.62181  1.0000
  C   C12       1.0  0.84704  0.05823  0.12181  1.0000
  C   C13       1.0  0.36842  0.02469  0.25689  1.0000
  C   C14       1.0  0.13158  0.97531  0.75689  1.0000
  C   C15       1.0  0.63159  0.97531  0.74311  1.0000
  C   C16       1.0  0.86842  0.02469  0.24311  1.0000
  C   C17       1.0  0.35087  0.11912  0.16764  1.0000
  C   C18       1.0  0.14913  0.88088  0.66764  1.0000
  C   C19       1.0  0.64913  0.88088  0.83236  1.0000
  C   C20       1.0  0.85087  0.11912  0.33236  1.0000
  C   C21       1.0  0.25283  0.41267  0.34163  1.0000
  C   C22       1.0  0.24716  0.58733  0.84163  1.0000
  C   C23       1.0  0.74716  0.58733  0.65837  1.0000
  C   C24       1.0  0.75284  0.41268  0.15837  1.0000
  C   C25       1.0  0.27992  0.21823  0.54095  1.0000
  C   C26       1.0  0.22008  0.78177  0.04095  1.0000
  C   C27       1.0  0.72008  0.78177  0.45905  1.0000
  C   C28       1.0  0.77992  0.21824  0.95905  1.0000
  N   N1        1.0  0.31231  0.24123  0.19469  1.0000
  N   N2        1.0  0.18769  0.75876  0.69469  1.0000
  N   N3        1.0  0.68768  0.75877  0.80531  1.0000
  N   N4        1.0  0.81232  0.24124  0.30531  1.0000
  O   O1        1.0  0.18540  0.48006  0.25753  1.0000
  O   O2        1.0  0.31459  0.51993  0.75753  1.0000
  O   O3        1.0  0.81460  0.51994  0.74247  1.0000
  O   O4        1.0  0.68540  0.48006  0.24247  1.0000
  O   O5        1.0  0.28743  0.44798  0.45104  1.0000
  O   O6        1.0  0.21256  0.55201  0.95103  1.0000
  O   O7        1.0  0.71256  0.55202  0.54897  1.0000
  O   O8        1.0  0.78743  0.44799  0.04897  1.0000
  O   O9        1.0  0.43492  0.23882  0.60728  1.0000
  O   O10       1.0  0.06509  0.76118  0.10728  1.0000
  O   O11       1.0  0.56508  0.76118  0.39272  1.0000
  O   O12       1.0  0.93491  0.23882  0.89272  1.0000
  O   O13       1.0  0.09558  0.20892  0.57380  1.0000
  O   O14       1.0  0.40442  0.79108  0.07380  1.0000
  O   O15       1.0  0.90442  0.79108  0.42620  1.0000
  O   O16       1.0  0.59558  0.20892  0.92620  1.0000
