data_image0
_chemical_formula_structural       Ag8H12C28N4O16
_chemical_formula_sum              "Ag8 H12 C28 N4 O16"
_cell_length_a       6.74304
_cell_length_b       10.5428
_cell_length_c       11.1166
_cell_angle_alpha    89.9991
_cell_angle_beta     105.313
_cell_angle_gamma    89.9996

_space_group_name_H-M_alt    "P 1"
_space_group_IT_number       1

loop_
  _space_group_symop_operation_xyz
  'x, y, z'

loop_
  _atom_site_type_symbol
  _atom_site_label
  _atom_site_symmetry_multiplicity
  _atom_site_fract_x
  _atom_site_fract_y
  _atom_site_fract_z
  _atom_site_occupancy
  Ag  Ag1       1.0  0.80607  0.46635  0.11757  1.0000
  Ag  Ag2       1.0  0.69392  0.96635  0.88241  1.0000
  Ag  Ag3       1.0  0.19393  0.53366  0.88242  1.0000
  Ag  Ag4       1.0  0.30608  0.03365  0.11758  1.0000
  Ag  Ag5       1.0  0.05095  0.69871  0.14968  1.0000
  Ag  Ag6       1.0  0.44904  0.19872  0.85031  1.0000
  Ag  Ag7       1.0  0.94905  0.30129  0.85032  1.0000
  Ag  Ag8       1.0  0.55096  0.80128  0.14969  1.0000
  H   H1        1.0  0.20901  0.29149  0.55779  1.0000
  H   H2        1.0  0.29099  0.79149  0.44220  1.0000
  H   H3        1.0  0.79099  0.70850  0.44220  1.0000
  H   H4        1.0  0.70902  0.20851  0.55781  1.0000
  H   H5        1.0  0.05865  0.45452  0.39311  1.0000
  H   H6        1.0  0.44134  0.95452  0.60688  1.0000
  H   H7        1.0  0.94136  0.54547  0.60689  1.0000
  H   H8        1.0  0.55867  0.04548  0.39312  1.0000
  H   H9        1.0  0.16634  0.06288  0.49976  1.0000
  H   H10       1.0  0.33366  0.56288  0.50023  1.0000
  H   H11       1.0  0.83366  0.93711  0.50023  1.0000
  H   H12       1.0  0.66634  0.43713  0.49977  1.0000
  C   C1        1.0  0.90919  0.19833  0.22528  1.0000
  C   C2        1.0  0.59080  0.69833  0.77471  1.0000
  C   C3        1.0  0.09081  0.80167  0.77471  1.0000
  C   C4        1.0  0.40921  0.30167  0.22529  1.0000
  C   C5        1.0  0.98955  0.10092  0.31070  1.0000
  C   C6        1.0  0.51045  0.60092  0.68929  1.0000
  C   C7        1.0  0.01046  0.89907  0.68930  1.0000
  C   C8        1.0  0.48955  0.39908  0.31071  1.0000
  C   C9        1.0  0.79163  0.16583  0.09392  1.0000
  C   C10       1.0  0.70837  0.66583  0.90607  1.0000
  C   C11       1.0  0.20836  0.83417  0.90608  1.0000
  C   C12       1.0  0.29163  0.33418  0.09394  1.0000
  C   C13       1.0  0.12488  0.26266  0.46399  1.0000
  C   C14       1.0  0.37508  0.76267  0.53601  1.0000
  C   C15       1.0  0.87513  0.73734  0.53601  1.0000
  C   C16       1.0  0.62492  0.23734  0.46399  1.0000
  C   C17       1.0  0.04105  0.35333  0.37390  1.0000
  C   C18       1.0  0.45893  0.85334  0.62609  1.0000
  C   C19       1.0  0.95895  0.64666  0.62610  1.0000
  C   C20       1.0  0.54106  0.14666  0.37392  1.0000
  C   C21       1.0  0.10031  0.13527  0.43104  1.0000
  C   C22       1.0  0.39968  0.63526  0.56896  1.0000
  C   C23       1.0  0.89969  0.86473  0.56895  1.0000
  C   C24       1.0  0.60032  0.36474  0.43105  1.0000
  C   C25       1.0  0.95312  0.96208  0.27774  1.0000
  C   C26       1.0  0.54687  0.46208  0.72225  1.0000
  C   C27       1.0  0.04687  0.03792  0.72226  1.0000
  C   C28       1.0  0.45313  0.53792  0.27775  1.0000
  N   N1        1.0  0.93632  0.32202  0.25711  1.0000
  N   N2        1.0  0.56366  0.82203  0.74287  1.0000
  N   N3        1.0  0.06368  0.67798  0.74289  1.0000
  N   N4        1.0  0.43635  0.17798  0.25713  1.0000
  O   O1        1.0  0.10358  0.89887  0.26152  1.0000
  O   O2        1.0  0.39642  0.39887  0.73848  1.0000
  O   O3        1.0  0.89641  0.10113  0.73848  1.0000
  O   O4        1.0  0.60358  0.60114  0.26152  1.0000
  O   O5        1.0  0.66739  0.24781  0.03174  1.0000
  O   O6        1.0  0.83262  0.74781  0.96825  1.0000
  O   O7        1.0  0.33260  0.75219  0.96826  1.0000
  O   O8        1.0  0.16739  0.25219  0.03175  1.0000
  O   O9        1.0  0.77650  0.92083  0.27952  1.0000
  O   O10       1.0  0.72348  0.42084  0.72048  1.0000
  O   O11       1.0  0.22349  0.07917  0.72047  1.0000
  O   O12       1.0  0.27652  0.57917  0.27953  1.0000
  O   O13       1.0  0.82712  0.05657  0.05748  1.0000
  O   O14       1.0  0.67286  0.55658  0.94252  1.0000
  O   O15       1.0  0.17287  0.94343  0.94253  1.0000
  O   O16       1.0  0.32715  0.44342  0.05748  1.0000
