data_image0
_chemical_formula_structural       Mg4H36C12S4N4O28
_chemical_formula_sum              "Mg4 H36 C12 S4 N4 O28"
_cell_length_a       6.02369
_cell_length_b       11.2323
_cell_length_c       13.1752
_cell_angle_alpha    90.0001
_cell_angle_beta     89.9998
_cell_angle_gamma    90.0001

_space_group_name_H-M_alt    "P 1"
_space_group_IT_number       1

loop_
  _space_group_symop_operation_xyz
  'x, y, z'

loop_
  _atom_site_type_symbol
  _atom_site_label
  _atom_site_symmetry_multiplicity
  _atom_site_fract_x
  _atom_site_fract_y
  _atom_site_fract_z
  _atom_site_occupancy
  Mg  Mg1       1.0  0.52868  0.83557  0.96066  1.0000
  Mg  Mg2       1.0  0.97131  0.16443  0.46066  1.0000
  Mg  Mg3       1.0  0.47131  0.33557  0.53934  1.0000
  Mg  Mg4       1.0  0.02869  0.66442  0.03934  1.0000
  H   H1        1.0  0.42471  0.75804  0.76935  1.0000
  H   H2        1.0  0.07529  0.24196  0.26935  1.0000
  H   H3        1.0  0.57529  0.25804  0.73065  1.0000
  H   H4        1.0  0.92471  0.74196  0.23065  1.0000
  H   H5        1.0  0.68069  0.74122  0.78860  1.0000
  H   H6        1.0  0.81931  0.25878  0.28859  1.0000
  H   H7        1.0  0.31931  0.24122  0.71141  1.0000
  H   H8        1.0  0.18069  0.75878  0.21141  1.0000
  H   H9        1.0  0.51305  0.86914  0.16411  1.0000
  H   H10       1.0  0.98695  0.13086  0.66411  1.0000
  H   H11       1.0  0.48695  0.36914  0.33589  1.0000
  H   H12       1.0  0.01305  0.63086  0.83589  1.0000
  H   H13       1.0  0.53923  0.99934  0.11088  1.0000
  H   H14       1.0  0.96076  0.00067  0.61088  1.0000
  H   H15       1.0  0.46077  0.49933  0.38912  1.0000
  H   H16       1.0  0.03924  0.50067  0.88912  1.0000
  H   H17       1.0  0.58073  0.01598  0.82513  1.0000
  H   H18       1.0  0.91927  0.98402  0.32513  1.0000
  H   H19       1.0  0.41926  0.51598  0.67487  1.0000
  H   H20       1.0  0.08074  0.48402  0.17487  1.0000
  H   H21       1.0  0.59357  0.07176  0.93938  1.0000
  H   H22       1.0  0.90643  0.92824  0.43938  1.0000
  H   H23       1.0  0.40642  0.57176  0.56062  1.0000
  H   H24       1.0  0.09358  0.42824  0.06062  1.0000
  H   H25       1.0  0.94509  0.00755  0.80768  1.0000
  H   H26       1.0  0.55491  0.99244  0.30768  1.0000
  H   H27       1.0  0.05490  0.50755  0.69232  1.0000
  H   H28       1.0  0.44509  0.49244  0.19232  1.0000
  H   H29       1.0  0.17011  0.11435  0.94737  1.0000
  H   H30       1.0  0.32989  0.88565  0.44737  1.0000
  H   H31       1.0  0.82989  0.61435  0.55263  1.0000
  H   H32       1.0  0.67011  0.38565  0.05263  1.0000
  H   H33       1.0  0.91291  0.14213  0.00991  1.0000
  H   H34       1.0  0.58709  0.85787  0.50991  1.0000
  H   H35       1.0  0.08710  0.64213  0.49009  1.0000
  H   H36       1.0  0.41291  0.35787  0.99009  1.0000
  C   C1        1.0  0.00925  0.89961  0.93346  1.0000
  C   C2        1.0  0.49075  0.10039  0.43346  1.0000
  C   C3        1.0  0.99075  0.39961  0.56654  1.0000
  C   C4        1.0  0.50926  0.60039  0.06654  1.0000
  C   C5        1.0  0.89453  0.01017  0.88801  1.0000
  C   C6        1.0  0.60547  0.98983  0.38800  1.0000
  C   C7        1.0  0.10547  0.51017  0.61199  1.0000
  C   C8        1.0  0.39453  0.48982  0.11200  1.0000
  C   C9        1.0  0.99060  0.12289  0.93629  1.0000
  C   C10       1.0  0.50940  0.87711  0.43629  1.0000
  C   C11       1.0  0.00940  0.62289  0.56371  1.0000
  C   C12       1.0  0.49060  0.37711  0.06371  1.0000
  S   S1        1.0  0.95080  0.25148  0.85830  1.0000
  S   S2        1.0  0.54921  0.74852  0.35830  1.0000
  S   S3        1.0  0.04920  0.75148  0.64170  1.0000
  S   S4        1.0  0.45080  0.24852  0.14170  1.0000
  N   N1        1.0  0.65079  0.00351  0.89483  1.0000
  N   N2        1.0  0.84920  0.99648  0.39483  1.0000
  N   N3        1.0  0.34920  0.50352  0.60517  1.0000
  N   N4        1.0  0.15080  0.49648  0.10517  1.0000
  O   O1        1.0  0.88798  0.81426  0.96619  1.0000
  O   O2        1.0  0.61202  0.18574  0.46619  1.0000
  O   O3        1.0  0.11202  0.31426  0.53381  1.0000
  O   O4        1.0  0.38798  0.68574  0.03381  1.0000
  O   O5        1.0  0.21736  0.89955  0.93227  1.0000
  O   O6        1.0  0.28263  0.10044  0.43226  1.0000
  O   O7        1.0  0.78263  0.39955  0.56774  1.0000
  O   O8        1.0  0.71737  0.60045  0.06774  1.0000
  O   O9        1.0  0.06119  0.22388  0.76030  1.0000
  O   O10       1.0  0.43880  0.77612  0.26030  1.0000
  O   O11       1.0  0.93880  0.72388  0.73970  1.0000
  O   O12       1.0  0.56119  0.27612  0.23970  1.0000
  O   O13       1.0  0.71113  0.26942  0.84560  1.0000
  O   O14       1.0  0.78887  0.73058  0.34560  1.0000
  O   O15       1.0  0.28887  0.76943  0.65440  1.0000
  O   O16       1.0  0.21113  0.23057  0.15440  1.0000
  O   O17       1.0  0.06163  0.34984  0.91196  1.0000
  O   O18       1.0  0.43837  0.65016  0.41196  1.0000
  O   O19       1.0  0.93836  0.84984  0.58804  1.0000
  O   O20       1.0  0.56163  0.15016  0.08804  1.0000
  O   O21       1.0  0.53626  0.74826  0.82398  1.0000
  O   O22       1.0  0.96373  0.25174  0.32398  1.0000
  O   O23       1.0  0.46373  0.24826  0.67602  1.0000
  O   O24       1.0  0.03627  0.75174  0.17602  1.0000
  O   O25       1.0  0.55089  0.91238  0.10113  1.0000
  O   O26       1.0  0.94911  0.08762  0.60113  1.0000
  O   O27       1.0  0.44911  0.41238  0.39887  1.0000
  O   O28       1.0  0.05089  0.58762  0.89887  1.0000
