data_image0
_chemical_formula_structural       CuP2H10C10IO2
_chemical_formula_sum              "Cu1 P2 H10 C10 I1 O2"
_cell_length_a       4.10077
_cell_length_b       7.24584
_cell_length_c       11.2072
_cell_angle_alpha    108.869
_cell_angle_beta     92.2592
_cell_angle_gamma    89.9538

_space_group_name_H-M_alt    "P 1"
_space_group_IT_number       1

loop_
  _space_group_symop_operation_xyz
  'x, y, z'

loop_
  _atom_site_type_symbol
  _atom_site_label
  _atom_site_symmetry_multiplicity
  _atom_site_fract_x
  _atom_site_fract_y
  _atom_site_fract_z
  _atom_site_occupancy
  Cu  Cu1       1.0  0.50036  0.39918  0.00002  1.0000
  P   P1        1.0  0.54648  0.14486  0.82985  1.0000
  P   P2        1.0  0.45370  0.31534  0.17025  1.0000
  H   H1        1.0  0.91332  0.96835  0.51275  1.0000
  H   H2        1.0  0.08665  0.45611  0.48731  1.0000
  H   H3        1.0  0.69388  0.65819  0.50937  1.0000
  H   H4        1.0  0.30584  0.14893  0.49053  1.0000
  H   H5        1.0  0.41087  0.60735  0.68440  1.0000
  H   H6        1.0  0.58877  0.92286  0.31542  1.0000
  H   H7        1.0  0.30176  0.87606  0.87762  1.0000
  H   H8        1.0  0.69827  0.99851  0.12234  1.0000
  H   H9        1.0  0.88535  0.40740  0.76371  1.0000
  H   H10       1.0  0.11452  0.64420  0.23639  1.0000
  C   C1        1.0  0.75249  0.13575  0.69436  1.0000
  C   C2        1.0  0.24766  0.44187  0.30577  1.0000
  C   C3        1.0  0.78246  0.96235  0.59438  1.0000
  C   C4        1.0  0.21771  0.36840  0.40571  1.0000
  C   C5        1.0  0.65970  0.78271  0.59363  1.0000
  C   C6        1.0  0.34027  0.18932  0.40634  1.0000
  C   C7        1.0  0.49602  0.75420  0.69349  1.0000
  C   C8        1.0  0.50386  0.06078  0.30644  1.0000
  C   C9        1.0  0.43483  0.90560  0.80307  1.0000
  C   C10       1.0  0.56524  0.10268  0.19693  1.0000
  I   I1        1.0  0.00008  0.63222  0.99984  1.0000
  O   O1        1.0  0.88618  0.30112  0.68199  1.0000
  O   O2        1.0  0.11372  0.61965  0.31809  1.0000
