data_image0
_chemical_formula_structural       Zn4H24C24S8N32
_chemical_formula_sum              "Zn4 H24 C24 S8 N32"
_cell_length_a       8.0147
_cell_length_b       9.79745
_cell_length_c       15.8348
_cell_angle_alpha    90.0003
_cell_angle_beta     90.0001
_cell_angle_gamma    90

_space_group_name_H-M_alt    "P 1"
_space_group_IT_number       1

loop_
  _space_group_symop_operation_xyz
  'x, y, z'

loop_
  _atom_site_type_symbol
  _atom_site_label
  _atom_site_symmetry_multiplicity
  _atom_site_fract_x
  _atom_site_fract_y
  _atom_site_fract_z
  _atom_site_occupancy
  Zn  Zn1       1.0  0.50000  0.71249  0.25000  1.0000
  Zn  Zn2       1.0  1.00000  0.78751  0.75000  1.0000
  Zn  Zn3       1.0  0.50000  0.28751  0.75000  1.0000
  Zn  Zn4       1.0  1.00000  0.21249  0.25000  1.0000
  H   H1        1.0  0.25875  0.46283  0.18401  1.0000
  H   H2        1.0  0.24125  0.03717  0.68401  1.0000
  H   H3        1.0  0.74125  0.46283  0.31599  1.0000
  H   H4        1.0  0.75875  0.03717  0.81599  1.0000
  H   H5        1.0  0.74125  0.53717  0.81599  1.0000
  H   H6        1.0  0.75875  0.96283  0.31599  1.0000
  H   H7        1.0  0.25875  0.53718  0.68401  1.0000
  H   H8        1.0  0.24125  0.96283  0.18401  1.0000
  H   H9        1.0  0.13845  0.36792  0.42956  1.0000
  H   H10       1.0  0.36155  0.13208  0.92955  1.0000
  H   H11       1.0  0.86155  0.36792  0.07045  1.0000
  H   H12       1.0  0.63845  0.13207  0.57045  1.0000
  H   H13       1.0  0.86155  0.63208  0.57045  1.0000
  H   H14       1.0  0.63845  0.86792  0.07045  1.0000
  H   H15       1.0  0.13845  0.63208  0.92955  1.0000
  H   H16       1.0  0.36155  0.86792  0.42955  1.0000
  H   H17       1.0  0.33919  0.57742  0.43695  1.0000
  H   H18       1.0  0.16082  0.92258  0.93694  1.0000
  H   H19       1.0  0.66082  0.57742  0.06305  1.0000
  H   H20       1.0  0.83919  0.92258  0.56305  1.0000
  H   H21       1.0  0.66081  0.42258  0.56305  1.0000
  H   H22       1.0  0.83919  0.07742  0.06305  1.0000
  H   H23       1.0  0.33919  0.42258  0.93695  1.0000
  H   H24       1.0  0.16081  0.07742  0.43695  1.0000
  C   C1        1.0  0.76293  0.72502  0.40079  1.0000
  C   C2        1.0  0.73705  0.77498  0.90079  1.0000
  C   C3        1.0  0.23706  0.72502  0.09921  1.0000
  C   C4        1.0  0.26294  0.77498  0.59921  1.0000
  C   C5        1.0  0.23706  0.27498  0.59921  1.0000
  C   C6        1.0  0.26295  0.22503  0.09921  1.0000
  C   C7        1.0  0.76294  0.27498  0.90079  1.0000
  C   C8        1.0  0.73705  0.22502  0.40079  1.0000
  C   C9        1.0  0.25334  0.46605  0.25228  1.0000
  C   C10       1.0  0.24667  0.03395  0.75228  1.0000
  C   C11       1.0  0.74666  0.46606  0.24772  1.0000
  C   C12       1.0  0.75334  0.03394  0.74772  1.0000
  C   C13       1.0  0.74666  0.53394  0.74772  1.0000
  C   C14       1.0  0.75334  0.96606  0.24772  1.0000
  C   C15       1.0  0.25335  0.53395  0.75228  1.0000
  C   C16       1.0  0.24666  0.96605  0.25228  1.0000
  C   C17       1.0  0.29562  0.52620  0.38006  1.0000
  C   C18       1.0  0.20439  0.97380  0.88005  1.0000
  C   C19       1.0  0.70438  0.52620  0.11994  1.0000
  C   C20       1.0  0.79562  0.97380  0.61994  1.0000
  C   C21       1.0  0.70438  0.47380  0.61994  1.0000
  C   C22       1.0  0.79562  0.02620  0.11995  1.0000
  C   C23       1.0  0.29562  0.47380  0.88005  1.0000
  C   C24       1.0  0.20438  0.02620  0.38006  1.0000
  S   S1        1.0  0.93835  0.73576  0.45166  1.0000
  S   S2        1.0  0.56164  0.76424  0.95166  1.0000
  S   S3        1.0  0.06165  0.73577  0.04834  1.0000
  S   S4        1.0  0.43835  0.76424  0.54834  1.0000
  S   S5        1.0  0.06164  0.26424  0.54835  1.0000
  S   S6        1.0  0.43836  0.23576  0.04834  1.0000
  S   S7        1.0  0.93836  0.26424  0.95166  1.0000
  S   S8        1.0  0.56163  0.23576  0.45166  1.0000
  N   N1        1.0  0.63469  0.71960  0.36342  1.0000
  N   N2        1.0  0.86529  0.78041  0.86341  1.0000
  N   N3        1.0  0.36530  0.71960  0.13659  1.0000
  N   N4        1.0  0.13470  0.78040  0.63659  1.0000
  N   N5        1.0  0.36529  0.28041  0.63659  1.0000
  N   N6        1.0  0.13471  0.21960  0.13659  1.0000
  N   N7        1.0  0.63471  0.28041  0.86341  1.0000
  N   N8        1.0  0.86528  0.21959  0.36341  1.0000
  N   N9        1.0  0.33636  0.55850  0.30051  1.0000
  N   N10       1.0  0.16365  0.94150  0.80051  1.0000
  N   N11       1.0  0.66364  0.55850  0.19949  1.0000
  N   N12       1.0  0.83636  0.94150  0.69949  1.0000
  N   N13       1.0  0.66364  0.44150  0.69949  1.0000
  N   N14       1.0  0.83636  0.05850  0.19949  1.0000
  N   N15       1.0  0.33636  0.44150  0.80051  1.0000
  N   N16       1.0  0.16364  0.05850  0.30051  1.0000
  N   N17       1.0  0.16388  0.37926  0.29799  1.0000
  N   N18       1.0  0.33612  0.12074  0.79799  1.0000
  N   N19       1.0  0.83612  0.37926  0.20201  1.0000
  N   N20       1.0  0.66388  0.12074  0.70201  1.0000
  N   N21       1.0  0.83612  0.62074  0.70201  1.0000
  N   N22       1.0  0.66388  0.87926  0.20201  1.0000
  N   N23       1.0  0.16388  0.62074  0.79799  1.0000
  N   N24       1.0  0.33612  0.87926  0.29799  1.0000
  N   N25       1.0  0.19161  0.41938  0.37873  1.0000
  N   N26       1.0  0.30840  0.08062  0.87873  1.0000
  N   N27       1.0  0.80840  0.41938  0.12127  1.0000
  N   N28       1.0  0.69161  0.08062  0.62127  1.0000
  N   N29       1.0  0.80840  0.58062  0.62127  1.0000
  N   N30       1.0  0.69160  0.91938  0.12127  1.0000
  N   N31       1.0  0.19161  0.58062  0.87873  1.0000
  N   N32       1.0  0.30839  0.91938  0.37873  1.0000
