data_image0
_chemical_formula_structural       LiH5C5N2O5
_chemical_formula_sum              "Li1 H5 C5 N2 O5"
_cell_length_a       4.98086
_cell_length_b       5.26881
_cell_length_c       6.78109
_cell_angle_alpha    90.2182
_cell_angle_beta     77.0618
_cell_angle_gamma    80.4239

_space_group_name_H-M_alt    "P 1"
_space_group_IT_number       1

loop_
  _space_group_symop_operation_xyz
  'x, y, z'

loop_
  _atom_site_type_symbol
  _atom_site_label
  _atom_site_symmetry_multiplicity
  _atom_site_fract_x
  _atom_site_fract_y
  _atom_site_fract_z
  _atom_site_occupancy
  Li  Li1       1.0  0.97752  0.97411  0.22143  1.0000
  H   H1        1.0  0.66503  0.94204  0.68105  1.0000
  H   H2        1.0  0.47631  0.38641  0.33216  1.0000
  H   H3        1.0  0.00777  0.53600  0.93497  1.0000
  H   H4        1.0  0.75308  0.22270  0.96899  1.0000
  H   H5        1.0  0.53621  0.07069  0.09142  1.0000
  C   C1        1.0  0.05764  0.24336  0.57641  1.0000
  C   C2        1.0  0.22223  0.44476  0.62483  1.0000
  C   C3        1.0  0.17151  0.57258  0.80829  1.0000
  C   C4        1.0  0.33834  0.76162  0.83628  1.0000
  C   C5        1.0  0.59746  0.67087  0.48382  1.0000
  N   N1        1.0  0.54162  0.80227  0.66913  1.0000
  N   N2        1.0  0.42978  0.49399  0.46838  1.0000
  O   O1        1.0  0.13879  0.14012  0.40112  1.0000
  O   O2        1.0  0.85259  0.19883  0.71334  1.0000
  O   O3        1.0  0.30760  0.88846  0.99972  1.0000
  O   O4        1.0  0.78874  0.70788  0.34045  1.0000
  O   O5        1.0  0.67716  0.17525  0.11013  1.0000
