data_image0
_chemical_formula_structural       Zn4P4H20C20N4O12
_chemical_formula_sum              "Zn4 P4 H20 C20 N4 O12"
_cell_length_a       5.23474
_cell_length_b       11.2217
_cell_length_c       13.7655
_cell_angle_alpha    98.3794
_cell_angle_beta     89.9999
_cell_angle_gamma    89.9999

_space_group_name_H-M_alt    "P 1"
_space_group_IT_number       1

loop_
  _space_group_symop_operation_xyz
  'x, y, z'

loop_
  _atom_site_type_symbol
  _atom_site_label
  _atom_site_symmetry_multiplicity
  _atom_site_fract_x
  _atom_site_fract_y
  _atom_site_fract_z
  _atom_site_occupancy
  Zn  Zn1       1.0  0.27763  0.43482  0.10357  1.0000
  Zn  Zn2       1.0  0.77762  0.06518  0.39643  1.0000
  Zn  Zn3       1.0  0.72238  0.56518  0.89643  1.0000
  Zn  Zn4       1.0  0.22237  0.93482  0.60357  1.0000
  P   P1        1.0  0.21024  0.66963  0.99841  1.0000
  P   P2        1.0  0.71024  0.83037  0.50159  1.0000
  P   P3        1.0  0.78976  0.33037  0.00159  1.0000
  P   P4        1.0  0.28975  0.16963  0.49841  1.0000
  H   H1        1.0  0.30727  0.78511  0.03362  1.0000
  H   H2        1.0  0.80727  0.71489  0.46638  1.0000
  H   H3        1.0  0.69273  0.21489  0.96638  1.0000
  H   H4        1.0  0.19273  0.28512  0.53362  1.0000
  H   H5        1.0  0.46536  0.58011  0.28579  1.0000
  H   H6        1.0  0.96535  0.91988  0.21421  1.0000
  H   H7        1.0  0.53464  0.41989  0.71421  1.0000
  H   H8        1.0  0.03464  0.08011  0.78578  1.0000
  H   H9        1.0  0.34092  0.62504  0.46036  1.0000
  H   H10       1.0  0.84092  0.87496  0.03964  1.0000
  H   H11       1.0  0.65908  0.37496  0.53964  1.0000
  H   H12       1.0  0.15908  0.12504  0.96036  1.0000
  H   H13       1.0  0.76579  0.34481  0.40125  1.0000
  H   H14       1.0  0.26579  0.15518  0.09875  1.0000
  H   H15       1.0  0.23421  0.65518  0.59875  1.0000
  H   H16       1.0  0.73420  0.84482  0.90125  1.0000
  H   H17       1.0  0.90717  0.31775  0.22758  1.0000
  H   H18       1.0  0.40717  0.18225  0.27242  1.0000
  H   H19       1.0  0.09283  0.68225  0.77242  1.0000
  H   H20       1.0  0.59283  0.81775  0.72758  1.0000
  C   C1        1.0  0.31210  0.52974  0.31493  1.0000
  C   C2        1.0  0.81209  0.97026  0.18507  1.0000
  C   C3        1.0  0.68790  0.47026  0.68507  1.0000
  C   C4        1.0  0.18791  0.02974  0.81493  1.0000
  C   C5        1.0  0.24240  0.55320  0.41312  1.0000
  C   C6        1.0  0.74239  0.94680  0.08688  1.0000
  C   C7        1.0  0.75760  0.44680  0.58688  1.0000
  C   C8        1.0  0.25761  0.05320  0.91312  1.0000
  C   C9        1.0  0.04109  0.48814  0.44796  1.0000
  C   C10       1.0  0.54108  0.01186  0.05204  1.0000
  C   C11       1.0  0.95892  0.51185  0.55204  1.0000
  C   C12       1.0  0.45892  0.98814  0.94796  1.0000
  C   C13       1.0  0.92077  0.40037  0.37988  1.0000
  C   C14       1.0  0.42077  0.09963  0.12012  1.0000
  C   C15       1.0  0.07923  0.59963  0.62012  1.0000
  C   C16       1.0  0.57923  0.90037  0.87988  1.0000
  C   C17       1.0  0.00107  0.38263  0.28271  1.0000
  C   C18       1.0  0.50107  0.11737  0.21729  1.0000
  C   C19       1.0  0.99893  0.61737  0.71729  1.0000
  C   C20       1.0  0.49893  0.88263  0.78271  1.0000
  N   N1        1.0  0.19332  0.44614  0.25019  1.0000
  N   N2        1.0  0.69332  0.05386  0.24981  1.0000
  N   N3        1.0  0.80668  0.55386  0.74981  1.0000
  N   N4        1.0  0.30668  0.94614  0.75019  1.0000
  O   O1        1.0  0.22442  0.60104  0.08646  1.0000
  O   O2        1.0  0.72443  0.89896  0.41354  1.0000
  O   O3        1.0  0.77558  0.39896  0.91354  1.0000
  O   O4        1.0  0.27556  0.10105  0.58646  1.0000
  O   O5        1.0  0.93449  0.69364  0.96602  1.0000
  O   O6        1.0  0.43449  0.80636  0.53398  1.0000
  O   O7        1.0  0.06551  0.30636  0.03398  1.0000
  O   O8        1.0  0.56550  0.19364  0.46602  1.0000
  O   O9        1.0  0.36803  0.61530  0.90869  1.0000
  O   O10       1.0  0.86803  0.88470  0.59131  1.0000
  O   O11       1.0  0.63198  0.38470  0.09131  1.0000
  O   O12       1.0  0.13197  0.11530  0.40869  1.0000
