data_image0
_chemical_formula_structural       Co2P2H30C20N4O12
_chemical_formula_sum              "Co2 P2 H30 C20 N4 O12"
_cell_length_a       7.23769
_cell_length_b       11.355
_cell_length_c       11.3513
_cell_angle_alpha    63.6331
_cell_angle_beta     73.7325
_cell_angle_gamma    73.7623

_space_group_name_H-M_alt    "P 1"
_space_group_IT_number       1

loop_
  _space_group_symop_operation_xyz
  'x, y, z'

loop_
  _atom_site_type_symbol
  _atom_site_label
  _atom_site_symmetry_multiplicity
  _atom_site_fract_x
  _atom_site_fract_y
  _atom_site_fract_z
  _atom_site_occupancy
  Co  Co1       1.0  0.73737  0.67023  0.72759  1.0000
  Co  Co2       1.0  0.26290  0.27238  0.32971  1.0000
  P   P1        1.0  0.31892  0.80477  0.64408  1.0000
  P   P2        1.0  0.68147  0.35619  0.19509  1.0000
  H   H1        1.0  0.76167  0.39258  0.91743  1.0000
  H   H2        1.0  0.24069  0.08210  0.60725  1.0000
  H   H3        1.0  0.76008  0.16858  0.93699  1.0000
  H   H4        1.0  0.24217  0.06264  0.83136  1.0000
  H   H5        1.0  0.75421  0.34426  0.51188  1.0000
  H   H6        1.0  0.24182  0.48848  0.65622  1.0000
  H   H7        1.0  0.73566  0.56325  0.51512  1.0000
  H   H8        1.0  0.26020  0.48531  0.43715  1.0000
  H   H9        1.0  0.81873  0.76728  0.92827  1.0000
  H   H10       1.0  0.18132  0.07177  0.23290  1.0000
  H   H11       1.0  0.83755  0.98120  0.92759  1.0000
  H   H12       1.0  0.16183  0.07248  0.01901  1.0000
  H   H13       1.0  0.66575  0.17687  0.53900  1.0000
  H   H14       1.0  0.33465  0.46071  0.82291  1.0000
  H   H15       1.0  0.65467  0.95575  0.55714  1.0000
  H   H16       1.0  0.34642  0.44258  0.04393  1.0000
  H   H17       1.0  0.49545  0.64460  0.97146  1.0000
  H   H18       1.0  0.50473  0.02859  0.35567  1.0000
  H   H19       1.0  0.38644  0.64383  0.86305  1.0000
  H   H20       1.0  0.61375  0.13717  0.35613  1.0000
  H   H21       1.0  0.05016  0.78077  0.54050  1.0000
  H   H22       1.0  0.95050  0.45968  0.21905  1.0000
  H   H23       1.0  0.87572  0.77830  0.48149  1.0000
  H   H24       1.0  0.12603  0.51814  0.22093  1.0000
  H   H25       1.0  0.88952  0.53677  0.95752  1.0000
  H   H26       1.0  0.11050  0.04248  0.46339  1.0000
  H   H27       1.0  0.04776  0.62070  0.82939  1.0000
  H   H28       1.0  0.95243  0.17055  0.37932  1.0000
  H   H29       1.0  0.30152  0.90252  0.69395  1.0000
  H   H30       1.0  0.69885  0.30647  0.09720  1.0000
  C   C1        1.0  0.75770  0.37760  0.83034  1.0000
  C   C2        1.0  0.24307  0.16940  0.62241  1.0000
  C   C3        1.0  0.75923  0.25163  0.83956  1.0000
  C   C4        1.0  0.24150  0.16021  0.74842  1.0000
  C   C5        1.0  0.75525  0.23394  0.72579  1.0000
  C   C6        1.0  0.24406  0.27419  0.76618  1.0000
  C   C7        1.0  0.75047  0.34928  0.60612  1.0000
  C   C8        1.0  0.24724  0.39407  0.65100  1.0000
  C   C9        1.0  0.74379  0.47272  0.60628  1.0000
  C   C10       1.0  0.25374  0.39392  0.52755  1.0000
  C   C11       1.0  0.78566  0.86079  0.84369  1.0000
  C   C12       1.0  0.21451  0.15627  0.13931  1.0000
  C   C13       1.0  0.79533  0.98198  0.84230  1.0000
  C   C14       1.0  0.20440  0.15765  0.01818  1.0000
  C   C15       1.0  0.75308  0.10183  0.73207  1.0000
  C   C16       1.0  0.24671  0.26780  0.89825  1.0000
  C   C17       1.0  0.70286  0.09005  0.62781  1.0000
  C   C18       1.0  0.29752  0.37192  0.90983  1.0000
  C   C19       1.0  0.69792  0.96543  0.63628  1.0000
  C   C20       1.0  0.30275  0.36350  0.03443  1.0000
  N   N1        1.0  0.74683  0.48803  0.71687  1.0000
  N   N2        1.0  0.25236  0.28309  0.51211  1.0000
  N   N3        1.0  0.73808  0.85107  0.74199  1.0000
  N   N4        1.0  0.26245  0.25790  0.14891  1.0000
  O   O1        1.0  0.54114  0.76774  0.59663  1.0000
  O   O2        1.0  0.45922  0.40335  0.23227  1.0000
  O   O3        1.0  0.19798  0.86936  0.53216  1.0000
  O   O4        1.0  0.80226  0.46818  0.13066  1.0000
  O   O5        1.0  0.23844  0.68769  0.76760  1.0000
  O   O6        1.0  0.76184  0.23262  0.31209  1.0000
  O   O7        1.0  0.51102  0.61148  0.90304  1.0000
  O   O8        1.0  0.48915  0.09714  0.38859  1.0000
  O   O9        1.0  0.95991  0.72256  0.54721  1.0000
  O   O10       1.0  0.04103  0.45296  0.27708  1.0000
  O   O11       1.0  0.92896  0.57778  0.85798  1.0000
  O   O12       1.0  0.07113  0.14195  0.42226  1.0000
