data_image0
_chemical_formula_structural       Ho2H20C18N2O18
_chemical_formula_sum              "Ho2 H20 C18 N2 O18"
_cell_length_a       7.26514
_cell_length_b       8.52057
_cell_length_c       10.5929
_cell_angle_alpha    106.318
_cell_angle_beta     101.475
_cell_angle_gamma    94.0142

_space_group_name_H-M_alt    "P 1"
_space_group_IT_number       1

loop_
  _space_group_symop_operation_xyz
  'x, y, z'

loop_
  _atom_site_type_symbol
  _atom_site_label
  _atom_site_symmetry_multiplicity
  _atom_site_fract_x
  _atom_site_fract_y
  _atom_site_fract_z
  _atom_site_occupancy
  Ho  Ho1       1.0  0.74452  0.26000  0.59375  1.0000
  Ho  Ho2       1.0  0.25547  0.73999  0.40625  1.0000
  H   H1        1.0  0.41623  0.34720  0.69517  1.0000
  H   H2        1.0  0.58378  0.65280  0.30483  1.0000
  H   H3        1.0  0.41906  0.45322  0.59741  1.0000
  H   H4        1.0  0.58093  0.54678  0.40259  1.0000
  H   H5        1.0  0.84629  0.50036  0.88308  1.0000
  H   H6        1.0  0.15372  0.49964  0.11692  1.0000
  H   H7        1.0  0.98752  0.36345  0.86989  1.0000
  H   H8        1.0  0.01247  0.63655  0.13011  1.0000
  H   H9        1.0  0.10445  0.05616  0.82323  1.0000
  H   H10       1.0  0.89556  0.94384  0.17678  1.0000
  H   H11       1.0  0.33346  0.31680  0.23234  1.0000
  H   H12       1.0  0.66654  0.68321  0.76766  1.0000
  H   H13       1.0  0.33138  0.79023  0.08425  1.0000
  H   H14       1.0  0.66861  0.20977  0.91575  1.0000
  H   H15       1.0  0.17710  0.64588  0.85191  1.0000
  H   H16       1.0  0.82292  0.35412  0.14809  1.0000
  H   H17       1.0  0.27510  0.75632  0.75527  1.0000
  H   H18       1.0  0.72491  0.24369  0.24473  1.0000
  H   H19       1.0  0.03121  0.75031  0.75529  1.0000
  H   H20       1.0  0.96880  0.24969  0.24471  1.0000
  C   C1        1.0  0.42614  0.05329  0.31493  1.0000
  C   C2        1.0  0.57385  0.94671  0.68508  1.0000
  C   C3        1.0  0.34070  0.05464  0.17329  1.0000
  C   C4        1.0  0.65930  0.94537  0.82671  1.0000
  C   C5        1.0  0.29945  0.20139  0.15042  1.0000
  C   C6        1.0  0.70054  0.79862  0.84959  1.0000
  C   C7        1.0  0.21090  0.20413  0.01872  1.0000
  C   C8        1.0  0.78909  0.79587  0.98128  1.0000
  C   C9        1.0  0.21737  0.90764  0.93764  1.0000
  C   C10       1.0  0.78263  0.09237  0.06237  1.0000
  C   C11       1.0  0.30081  0.90597  0.06595  1.0000
  C   C12       1.0  0.69918  0.09403  0.93406  1.0000
  C   C13       1.0  0.17243  0.75631  0.81859  1.0000
  C   C14       1.0  0.82757  0.24370  0.18142  1.0000
  C   C15       1.0  0.96126  0.99992  0.42677  1.0000
  C   C16       1.0  0.03874  0.00008  0.57322  1.0000
  C   C17       1.0  0.08915  0.46386  0.52599  1.0000
  C   C18       1.0  0.91085  0.53612  0.47399  1.0000
  N   N1        1.0  0.17397  0.05402  0.91827  1.0000
  N   N2        1.0  0.82603  0.94598  0.08173  1.0000
  O   O1        1.0  0.49062  0.19047  0.40335  1.0000
  O   O2        1.0  0.50938  0.80953  0.59665  1.0000
  O   O3        1.0  0.42823  0.91304  0.33567  1.0000
  O   O4        1.0  0.57177  0.08696  0.66433  1.0000
  O   O5        1.0  0.16354  0.33369  0.98985  1.0000
  O   O6        1.0  0.83646  0.66631  0.01015  1.0000
  O   O7        1.0  0.82755  0.08294  0.40716  1.0000
  O   O8        1.0  0.17244  0.91706  0.59283  1.0000
  O   O9        1.0  0.03773  0.91645  0.33648  1.0000
  O   O10       1.0  0.96226  0.08355  0.66351  1.0000
  O   O11       1.0  0.07081  0.36192  0.58963  1.0000
  O   O12       1.0  0.92919  0.63807  0.41036  1.0000
  O   O13       1.0  0.24264  0.51616  0.50007  1.0000
  O   O14       1.0  0.75736  0.48384  0.49992  1.0000
  O   O15       1.0  0.50405  0.41356  0.66571  1.0000
  O   O16       1.0  0.49595  0.58644  0.33430  1.0000
  O   O17       1.0  0.87820  0.40108  0.81777  1.0000
  O   O18       1.0  0.12180  0.59893  0.18223  1.0000
