data_image0
_chemical_formula_structural       NiH18C16N4O8
_chemical_formula_sum              "Ni1 H18 C16 N4 O8"
_cell_length_a       7.56038
_cell_length_b       7.85123
_cell_length_c       8.8026
_cell_angle_alpha    112.318
_cell_angle_beta     97.8309
_cell_angle_gamma    105.659

_space_group_name_H-M_alt    "P 1"
_space_group_IT_number       1

loop_
  _space_group_symop_operation_xyz
  'x, y, z'

loop_
  _atom_site_type_symbol
  _atom_site_label
  _atom_site_symmetry_multiplicity
  _atom_site_fract_x
  _atom_site_fract_y
  _atom_site_fract_z
  _atom_site_occupancy
  Ni  Ni1       1.0  0.50000  0.00000  0.00000  1.0000
  H   H1        1.0  0.71929  0.73028  0.12243  1.0000
  H   H2        1.0  0.28071  0.26972  0.87756  1.0000
  H   H3        1.0  0.82202  0.78137  0.99458  1.0000
  H   H4        1.0  0.17799  0.21862  0.00542  1.0000
  H   H5        1.0  0.98131  0.00005  0.35685  1.0000
  H   H6        1.0  0.01869  0.99996  0.64316  1.0000
  H   H7        1.0  0.02818  0.16852  0.26909  1.0000
  H   H8        1.0  0.97182  0.83148  0.73091  1.0000
  H   H9        1.0  0.20044  0.53074  0.09802  1.0000
  H   H10       1.0  0.79955  0.46926  0.90198  1.0000
  H   H11       1.0  0.37774  0.57555  0.82463  1.0000
  H   H12       1.0  0.62225  0.42445  0.17537  1.0000
  H   H13       1.0  0.16532  0.43868  0.29500  1.0000
  H   H14       1.0  0.83468  0.56131  0.70499  1.0000
  H   H15       1.0  0.42793  0.03354  0.68828  1.0000
  H   H16       1.0  0.57209  0.96647  0.31172  1.0000
  H   H17       1.0  0.28653  0.79999  0.37952  1.0000
  H   H18       1.0  0.71348  0.20001  0.62048  1.0000
  C   C1        1.0  0.09034  0.56306  0.03219  1.0000
  C   C2        1.0  0.90967  0.43694  0.96781  1.0000
  C   C3        1.0  0.15792  0.74258  0.00473  1.0000
  C   C4        1.0  0.84208  0.25742  0.99527  1.0000
  C   C5        1.0  0.25674  0.47824  0.55504  1.0000
  C   C6        1.0  0.74325  0.52176  0.44496  1.0000
  C   C7        1.0  0.34965  0.61840  0.72273  1.0000
  C   C8        1.0  0.65034  0.38160  0.27727  1.0000
  C   C9        1.0  0.23591  0.54270  0.42784  1.0000
  C   C10       1.0  0.76409  0.45731  0.57217  1.0000
  C   C11       1.0  0.17087  0.26822  0.52460  1.0000
  C   C12       1.0  0.82912  0.73178  0.47540  1.0000
  C   C13       1.0  0.38333  0.87532  0.64490  1.0000
  C   C14       1.0  0.61668  0.12468  0.35509  1.0000
  C   C15       1.0  0.30267  0.74372  0.47415  1.0000
  C   C16       1.0  0.69734  0.25628  0.52585  1.0000
  N   N1        1.0  0.40716  0.81309  0.76726  1.0000
  N   N2        1.0  0.59285  0.18691  0.23274  1.0000
  N   N3        1.0  0.06301  0.13510  0.36834  1.0000
  N   N4        1.0  0.93699  0.86490  0.63167  1.0000
  O   O1        1.0  0.34228  0.82598  0.06201  1.0000
  O   O2        1.0  0.65773  0.17403  0.93799  1.0000
  O   O3        1.0  0.04742  0.79741  0.92977  1.0000
  O   O4        1.0  0.95258  0.20259  0.07023  1.0000
  O   O5        1.0  0.69599  0.74372  0.01602  1.0000
  O   O6        1.0  0.30401  0.25628  0.98398  1.0000
  O   O7        1.0  0.19500  0.22234  0.64634  1.0000
  O   O8        1.0  0.80497  0.77768  0.35367  1.0000
