data_image0
_chemical_formula_structural       Cu2P2H38C46Br2N2
_chemical_formula_sum              "Cu2 P2 H38 C46 Br2 N2"
_cell_length_a       9.01669
_cell_length_b       9.21121
_cell_length_c       12.8784
_cell_angle_alpha    107.027
_cell_angle_beta     106.141
_cell_angle_gamma    93.3919

_space_group_name_H-M_alt    "P 1"
_space_group_IT_number       1

loop_
  _space_group_symop_operation_xyz
  'x, y, z'

loop_
  _atom_site_type_symbol
  _atom_site_label
  _atom_site_symmetry_multiplicity
  _atom_site_fract_x
  _atom_site_fract_y
  _atom_site_fract_z
  _atom_site_occupancy
  Cu  Cu1       1.0  0.94373  0.00981  0.09614  1.0000
  Cu  Cu2       1.0  0.05627  0.99019  0.90386  1.0000
  P   P1        1.0  0.98446  0.20580  0.25175  1.0000
  P   P2        1.0  0.01555  0.79420  0.74825  1.0000
  H   H1        1.0  0.94756  0.70932  0.13947  1.0000
  H   H2        1.0  0.05245  0.29068  0.86053  1.0000
  H   H3        1.0  0.75924  0.48170  0.10315  1.0000
  H   H4        1.0  0.24076  0.51830  0.89685  1.0000
  H   H5        1.0  0.39865  0.70367  0.93667  1.0000
  H   H6        1.0  0.60136  0.29633  0.06334  1.0000
  H   H7        1.0  0.60392  0.91943  0.97890  1.0000
  H   H8        1.0  0.39608  0.08056  0.02110  1.0000
  H   H9        1.0  0.25158  0.06025  0.32005  1.0000
  H   H10       1.0  0.74842  0.93976  0.67995  1.0000
  H   H11       1.0  0.39336  0.01991  0.50289  1.0000
  H   H12       1.0  0.60664  0.98009  0.49711  1.0000
  H   H13       1.0  0.29584  0.10183  0.67007  1.0000
  H   H14       1.0  0.70416  0.89817  0.32994  1.0000
  H   H15       1.0  0.05048  0.21745  0.65281  1.0000
  H   H16       1.0  0.94951  0.78254  0.34719  1.0000
  H   H17       1.0  0.91367  0.26402  0.47342  1.0000
  H   H18       1.0  0.08633  0.73598  0.52658  1.0000
  H   H19       1.0  0.87241  0.50971  0.32695  1.0000
  H   H20       1.0  0.12759  0.49028  0.67305  1.0000
  H   H21       1.0  0.61924  0.57282  0.35324  1.0000
  H   H22       1.0  0.38076  0.42717  0.64675  1.0000
  H   H23       1.0  0.40362  0.36343  0.31417  1.0000
  H   H24       1.0  0.59638  0.63656  0.68583  1.0000
  H   H25       1.0  0.44021  0.08981  0.24211  1.0000
  H   H26       1.0  0.55979  0.91019  0.75789  1.0000
  H   H27       1.0  0.69267  0.02731  0.21317  1.0000
  H   H28       1.0  0.30733  0.97268  0.78683  1.0000
  H   H29       1.0  0.04283  0.34160  0.08823  1.0000
  H   H30       1.0  0.95717  0.65840  0.91177  1.0000
  H   H31       1.0  0.19501  0.58915  0.10779  1.0000
  H   H32       1.0  0.80498  0.41085  0.89220  1.0000
  H   H33       1.0  0.34139  0.76964  0.29865  1.0000
  H   H34       1.0  0.65861  0.23036  0.70134  1.0000
  H   H35       1.0  0.33729  0.70469  0.47393  1.0000
  H   H36       1.0  0.66270  0.29530  0.52606  1.0000
  H   H37       1.0  0.18311  0.46253  0.45506  1.0000
  H   H38       1.0  0.81689  0.53748  0.54494  1.0000
  C   C1        1.0  0.82392  0.70339  0.09553  1.0000
  C   C2        1.0  0.17608  0.29661  0.90447  1.0000
  C   C3        1.0  0.71684  0.57544  0.07386  1.0000
  C   C4        1.0  0.28316  0.42456  0.92614  1.0000
  C   C5        1.0  0.55844  0.56795  0.01405  1.0000
  C   C6        1.0  0.44157  0.43206  0.98596  1.0000
  C   C7        1.0  0.51816  0.69705  0.98178  1.0000
  C   C8        1.0  0.48185  0.30296  0.01822  1.0000
  C   C9        1.0  0.63232  0.82041  0.00621  1.0000
  C   C10       1.0  0.36768  0.17959  0.99379  1.0000
  C   C11       1.0  0.07631  0.16978  0.38587  1.0000
  C   C12       1.0  0.92369  0.83022  0.61413  1.0000
  C   C13       1.0  0.21072  0.09861  0.39444  1.0000
  C   C14       1.0  0.78928  0.90139  0.60556  1.0000
  C   C15       1.0  0.28926  0.07539  0.49662  1.0000
  C   C16       1.0  0.71074  0.92461  0.50338  1.0000
  C   C17       1.0  0.23386  0.12046  0.59060  1.0000
  C   C18       1.0  0.76613  0.87954  0.40940  1.0000
  C   C19       1.0  0.09738  0.18623  0.58119  1.0000
  C   C20       1.0  0.90262  0.81377  0.41881  1.0000
  C   C21       1.0  0.01942  0.21153  0.47960  1.0000
  C   C22       1.0  0.98058  0.78848  0.52039  1.0000
  C   C23       1.0  0.80062  0.26398  0.27018  1.0000
  C   C24       1.0  0.19938  0.73601  0.72983  1.0000
  C   C25       1.0  0.77804  0.41738  0.30837  1.0000
  C   C26       1.0  0.22196  0.58261  0.69163  1.0000
  C   C27       1.0  0.63539  0.45292  0.32380  1.0000
  C   C28       1.0  0.36461  0.54708  0.67620  1.0000
  C   C29       1.0  0.51472  0.33561  0.30235  1.0000
  C   C30       1.0  0.48528  0.66438  0.69765  1.0000
  C   C31       1.0  0.53607  0.18222  0.26356  1.0000
  C   C32       1.0  0.46393  0.81778  0.73644  1.0000
  C   C33       1.0  0.67723  0.14670  0.24634  1.0000
  C   C34       1.0  0.32278  0.85330  0.75366  1.0000
  C   C35       1.0  0.10085  0.38672  0.27021  1.0000
  C   C36       1.0  0.89915  0.61328  0.72979  1.0000
  C   C37       1.0  0.10626  0.42257  0.17250  1.0000
  C   C38       1.0  0.89374  0.57743  0.82749  1.0000
  C   C39       1.0  0.19218  0.56031  0.18347  1.0000
  C   C40       1.0  0.80781  0.43970  0.81653  1.0000
  C   C41       1.0  0.27478  0.66255  0.29150  1.0000
  C   C42       1.0  0.72521  0.33745  0.70850  1.0000
  C   C43       1.0  0.27164  0.62680  0.38909  1.0000
  C   C44       1.0  0.72836  0.37320  0.61091  1.0000
  C   C45       1.0  0.18448  0.48976  0.37851  1.0000
  C   C46       1.0  0.81552  0.51024  0.62149  1.0000
  Br  Br1       1.0  0.81860  0.10640  0.92815  1.0000
  Br  Br2       1.0  0.18139  0.89361  0.07184  1.0000
  N   N1        1.0  0.78441  0.82529  0.06163  1.0000
  N   N2        1.0  0.21559  0.17471  0.93837  1.0000
