data_image0
_chemical_formula_structural       Cu2P2H40C48N2Cl2
_chemical_formula_sum              "Cu2 P2 H40 C48 N2 Cl2"
_cell_length_a       8.13075
_cell_length_b       11.3344
_cell_length_c       13.4738
_cell_angle_alpha    110.034
_cell_angle_beta     93.397
_cell_angle_gamma    99.1583

_space_group_name_H-M_alt    "P 1"
_space_group_IT_number       1

loop_
  _space_group_symop_operation_xyz
  'x, y, z'

loop_
  _atom_site_type_symbol
  _atom_site_label
  _atom_site_symmetry_multiplicity
  _atom_site_fract_x
  _atom_site_fract_y
  _atom_site_fract_z
  _atom_site_occupancy
  Cu  Cu1       1.0  0.49968  0.38318  0.91879  1.0000
  Cu  Cu2       1.0  0.50031  0.61682  0.08122  1.0000
  P   P1        1.0  0.36387  0.31436  0.75941  1.0000
  P   P2        1.0  0.63612  0.68563  0.24059  1.0000
  H   H1        1.0  0.85517  0.37997  0.89603  1.0000
  H   H2        1.0  0.14481  0.62004  0.10398  1.0000
  H   H3        1.0  0.06406  0.24880  0.91769  1.0000
  H   H4        1.0  0.93593  0.75121  0.08231  1.0000
  H   H5        1.0  0.68256  0.03849  0.03641  1.0000
  H   H6        1.0  0.31743  0.96152  0.96358  1.0000
  H   H7        1.0  0.49407  0.18324  0.01513  1.0000
  H   H8        1.0  0.50592  0.81676  0.98487  1.0000
  H   H9        1.0  0.14252  0.09215  0.97821  1.0000
  H   H10       1.0  0.85747  0.90786  0.02179  1.0000
  H   H11       1.0  0.31383  0.11372  0.54200  1.0000
  H   H12       1.0  0.68617  0.88629  0.45800  1.0000
  H   H13       1.0  0.50364  0.06235  0.40090  1.0000
  H   H14       1.0  0.49636  0.93766  0.59909  1.0000
  H   H15       1.0  0.79230  0.18969  0.43242  1.0000
  H   H16       1.0  0.20770  0.81033  0.56758  1.0000
  H   H17       1.0  0.89114  0.37065  0.60424  1.0000
  H   H18       1.0  0.10886  0.62936  0.39576  1.0000
  H   H19       1.0  0.70248  0.42189  0.74528  1.0000
  H   H20       1.0  0.29751  0.57811  0.25472  1.0000
  H   H21       1.0  0.15108  0.47510  0.87886  1.0000
  H   H22       1.0  0.84891  0.52489  0.12114  1.0000
  H   H23       1.0  0.98657  0.62613  0.84244  1.0000
  H   H24       1.0  0.01343  0.37387  0.15755  1.0000
  H   H25       1.0  0.00156  0.66819  0.67263  1.0000
  H   H26       1.0  0.99844  0.33181  0.32736  1.0000
  H   H27       1.0  0.17604  0.55504  0.53886  1.0000
  H   H28       1.0  0.82398  0.44497  0.46114  1.0000
  H   H29       1.0  0.32995  0.39789  0.57210  1.0000
  H   H30       1.0  0.67007  0.60212  0.42790  1.0000
  H   H31       1.0  0.38010  0.08427  0.80030  1.0000
  H   H32       1.0  0.61991  0.91573  0.19970  1.0000
  H   H33       1.0  0.17559  0.88310  0.76814  1.0000
  H   H34       1.0  0.82444  0.11689  0.23186  1.0000
  H   H35       1.0  0.88455  0.85420  0.68146  1.0000
  H   H36       1.0  0.11548  0.14579  0.31855  1.0000
  H   H37       1.0  0.80237  0.02656  0.62453  1.0000
  H   H38       1.0  0.19764  0.97342  0.37548  1.0000
  H   H39       1.0  0.00659  0.22464  0.65457  1.0000
  H   H40       1.0  0.99340  0.77534  0.34543  1.0000
  C   C1        1.0  0.82224  0.30198  0.92558  1.0000
  C   C2        1.0  0.17775  0.69803  0.07443  1.0000
  C   C3        1.0  0.93720  0.22819  0.93711  1.0000
  C   C4        1.0  0.06279  0.77182  0.06290  1.0000
  C   C5        1.0  0.89151  0.12892  0.97626  1.0000
  C   C6        1.0  0.10848  0.87108  0.02374  1.0000
  C   C7        1.0  0.72669  0.11157  0.00345  1.0000
  C   C8        1.0  0.27331  0.88843  0.99655  1.0000
  C   C9        1.0  0.62013  0.19093  0.99121  1.0000
  C   C10       1.0  0.37986  0.80907  0.00878  1.0000
  C   C11       1.0  0.01519  0.05416  0.98868  1.0000
  C   C12       1.0  0.98479  0.94584  0.01132  1.0000
  C   C13       1.0  0.49579  0.27124  0.65242  1.0000
  C   C14       1.0  0.50422  0.72876  0.34758  1.0000
  C   C15       1.0  0.44011  0.17046  0.55510  1.0000
  C   C16       1.0  0.55989  0.82955  0.44490  1.0000
  C   C17       1.0  0.54649  0.14177  0.47602  1.0000
  C   C18       1.0  0.45351  0.85824  0.52398  1.0000
  C   C19       1.0  0.70893  0.21326  0.49372  1.0000
  C   C20       1.0  0.29107  0.78676  0.50628  1.0000
  C   C21       1.0  0.76465  0.31417  0.59030  1.0000
  C   C22       1.0  0.23534  0.68584  0.40970  1.0000
  C   C23       1.0  0.65917  0.34321  0.66960  1.0000
  C   C24       1.0  0.34083  0.65679  0.33040  1.0000
  C   C25       1.0  0.24795  0.42438  0.72687  1.0000
  C   C26       1.0  0.75205  0.57562  0.27313  1.0000
  C   C27       1.0  0.15248  0.49068  0.80323  1.0000
  C   C28       1.0  0.84752  0.50932  0.19677  1.0000
  C   C29       1.0  0.06310  0.57739  0.78357  1.0000
  C   C30       1.0  0.93690  0.42261  0.21642  1.0000
  C   C31       1.0  0.07175  0.60085  0.68843  1.0000
  C   C32       1.0  0.92826  0.39915  0.31156  1.0000
  C   C33       1.0  0.16856  0.53688  0.61294  1.0000
  C   C34       1.0  0.83145  0.46312  0.38706  1.0000
  C   C35       1.0  0.25548  0.44823  0.63161  1.0000
  C   C36       1.0  0.74453  0.55177  0.36839  1.0000
  C   C37       1.0  0.20762  0.16761  0.72856  1.0000
  C   C38       1.0  0.79238  0.83239  0.27144  1.0000
  C   C39       1.0  0.25362  0.07032  0.76052  1.0000
  C   C40       1.0  0.74639  0.92968  0.23948  1.0000
  C   C41       1.0  0.13856  0.95783  0.74289  1.0000
  C   C42       1.0  0.86145  0.04217  0.25712  1.0000
  C   C43       1.0  0.97551  0.94137  0.69395  1.0000
  C   C44       1.0  0.02451  0.05862  0.30606  1.0000
  C   C45       1.0  0.92926  0.03751  0.66202  1.0000
  C   C46       1.0  0.07075  0.96248  0.33798  1.0000
  C   C47       1.0  0.04477  0.14984  0.67884  1.0000
  C   C48       1.0  0.95523  0.85015  0.32116  1.0000
  N   N1        1.0  0.66486  0.28480  0.95188  1.0000
  N   N2        1.0  0.33513  0.71521  0.04812  1.0000
  Cl  Cl1       1.0  0.32595  0.41118  0.05599  1.0000
  Cl  Cl2       1.0  0.67404  0.58882  0.94401  1.0000
