data_image0
_chemical_formula_structural       Cu2H18C20N2O18
_chemical_formula_sum              "Cu2 H18 C20 N2 O18"
_cell_length_a       7.74965
_cell_length_b       8.16855
_cell_length_c       11.2495
_cell_angle_alpha    77.1621
_cell_angle_beta     76.78
_cell_angle_gamma    62.1901

_space_group_name_H-M_alt    "P 1"
_space_group_IT_number       1

loop_
  _space_group_symop_operation_xyz
  'x, y, z'

loop_
  _atom_site_type_symbol
  _atom_site_label
  _atom_site_symmetry_multiplicity
  _atom_site_fract_x
  _atom_site_fract_y
  _atom_site_fract_z
  _atom_site_occupancy
  Cu  Cu1       1.0  0.14969  0.03265  0.44226  1.0000
  Cu  Cu2       1.0  0.85032  0.96736  0.55774  1.0000
  H   H1        1.0  0.46647  0.98523  0.26821  1.0000
  H   H2        1.0  0.53352  0.01476  0.73178  1.0000
  H   H3        1.0  0.53831  0.03626  0.36791  1.0000
  H   H4        1.0  0.46168  0.96374  0.63209  1.0000
  H   H5        1.0  0.35852  0.80580  0.80947  1.0000
  H   H6        1.0  0.64149  0.19422  0.19052  1.0000
  H   H7        1.0  0.18205  0.03157  0.84765  1.0000
  H   H8        1.0  0.81795  0.96845  0.15234  1.0000
  H   H9        1.0  0.98790  0.60613  0.09138  1.0000
  H   H10       1.0  0.01211  0.39388  0.90860  1.0000
  H   H11       1.0  0.13002  0.43671  0.28174  1.0000
  H   H12       1.0  0.86998  0.56329  0.71825  1.0000
  H   H13       1.0  0.41208  0.83568  0.98941  1.0000
  H   H14       1.0  0.58793  0.16433  0.01060  1.0000
  H   H15       1.0  0.40207  0.37242  0.53101  1.0000
  H   H16       1.0  0.59792  0.62758  0.46899  1.0000
  H   H17       1.0  0.20889  0.39002  0.45862  1.0000
  H   H18       1.0  0.79111  0.60996  0.54138  1.0000
  C   C1        1.0  0.11865  0.93978  0.70627  1.0000
  C   C2        1.0  0.88135  0.06022  0.29373  1.0000
  C   C3        1.0  0.19990  0.89890  0.82576  1.0000
  C   C4        1.0  0.80010  0.10111  0.17424  1.0000
  C   C5        1.0  0.19255  0.72756  0.02452  1.0000
  C   C6        1.0  0.80746  0.27244  0.97548  1.0000
  C   C7        1.0  0.11433  0.61606  0.10990  1.0000
  C   C8        1.0  0.88569  0.38393  0.89009  1.0000
  C   C9        1.0  0.19484  0.52057  0.21691  1.0000
  C   C10       1.0  0.80517  0.47943  0.78308  1.0000
  C   C11       1.0  0.36047  0.52841  0.24132  1.0000
  C   C12       1.0  0.63953  0.47158  0.75868  1.0000
  C   C13       1.0  0.43497  0.64311  0.15548  1.0000
  C   C14       1.0  0.56504  0.35688  0.84452  1.0000
  C   C15       1.0  0.35114  0.74481  0.04874  1.0000
  C   C16       1.0  0.64887  0.25519  0.95126  1.0000
  C   C17       1.0  0.30981  0.44972  0.45782  1.0000
  C   C18       1.0  0.69018  0.55028  0.54218  1.0000
  C   C19       1.0  0.19105  0.65410  0.47999  1.0000
  C   C20       1.0  0.80892  0.34590  0.52001  1.0000
  N   N1        1.0  0.59377  0.67092  0.17988  1.0000
  N   N2        1.0  0.40624  0.32908  0.82013  1.0000
  O   O1        1.0  0.22135  0.98825  0.61151  1.0000
  O   O2        1.0  0.77865  0.01173  0.38848  1.0000
  O   O3        1.0  0.96276  0.92516  0.71033  1.0000
  O   O4        1.0  0.03725  0.07485  0.28968  1.0000
  O   O5        1.0  0.10172  0.81398  0.92237  1.0000
  O   O6        1.0  0.89828  0.18604  0.07764  1.0000
  O   O7        1.0  0.44495  0.43570  0.34531  1.0000
  O   O8        1.0  0.55504  0.56431  0.65470  1.0000
  O   O9        1.0  0.01886  0.69857  0.53971  1.0000
  O   O10       1.0  0.98112  0.30143  0.46030  1.0000
  O   O11       1.0  0.27526  0.75979  0.43456  1.0000
  O   O12       1.0  0.72472  0.24021  0.56545  1.0000
  O   O13       1.0  0.72518  0.54027  0.23447  1.0000
  O   O14       1.0  0.27481  0.45973  0.76554  1.0000
  O   O15       1.0  0.59038  0.82988  0.14358  1.0000
  O   O16       1.0  0.40963  0.17012  0.85643  1.0000
  O   O17       1.0  0.41831  0.05750  0.33765  1.0000
  O   O18       1.0  0.58168  0.94250  0.66234  1.0000
