data_image0
_chemical_formula_structural       Cd2H40C32N4O8
_chemical_formula_sum              "Cd2 H40 C32 N4 O8"
_cell_length_a       4.93861
_cell_length_b       11.0416
_cell_length_c       14.0828
_cell_angle_alpha    86.9754
_cell_angle_beta     85.0131
_cell_angle_gamma    81.5162

_space_group_name_H-M_alt    "P 1"
_space_group_IT_number       1

loop_
  _space_group_symop_operation_xyz
  'x, y, z'

loop_
  _atom_site_type_symbol
  _atom_site_label
  _atom_site_symmetry_multiplicity
  _atom_site_fract_x
  _atom_site_fract_y
  _atom_site_fract_z
  _atom_site_occupancy
  Cd  Cd1       1.0  0.40280  0.67256  0.47916  1.0000
  Cd  Cd2       1.0  0.59723  0.32744  0.52084  1.0000
  H   H1        1.0  0.81965  0.65687  0.16141  1.0000
  H   H2        1.0  0.18035  0.34312  0.83859  1.0000
  H   H3        1.0  0.04549  0.76792  0.15361  1.0000
  H   H4        1.0  0.95450  0.23208  0.84639  1.0000
  H   H5        1.0  0.75744  0.88624  0.50042  1.0000
  H   H6        1.0  0.24256  0.11375  0.49959  1.0000
  H   H7        1.0  0.14230  0.76186  0.68029  1.0000
  H   H8        1.0  0.85771  0.23813  0.31972  1.0000
  H   H9        1.0  0.86193  0.48378  0.27931  1.0000
  H   H10       1.0  0.13806  0.51621  0.72071  1.0000
  H   H11       1.0  0.47919  0.41971  0.22309  1.0000
  H   H12       1.0  0.52079  0.58029  0.77690  1.0000
  H   H13       1.0  0.23518  0.31762  0.22554  1.0000
  H   H14       1.0  0.76479  0.68237  0.77446  1.0000
  H   H15       1.0  0.22555  0.89500  0.81188  1.0000
  H   H16       1.0  0.77444  0.10501  0.18813  1.0000
  H   H17       1.0  0.99223  0.44123  0.09860  1.0000
  H   H18       1.0  0.00774  0.55877  0.90140  1.0000
  H   H19       1.0  0.34254  0.40224  0.05910  1.0000
  H   H20       1.0  0.65742  0.59775  0.94090  1.0000
  H   H21       1.0  0.85283  0.03071  0.62142  1.0000
  H   H22       1.0  0.14718  0.96930  0.37857  1.0000
  H   H23       1.0  0.16950  0.62447  0.02045  1.0000
  H   H24       1.0  0.83050  0.37553  0.97954  1.0000
  H   H25       1.0  0.43573  0.60861  0.09817  1.0000
  H   H26       1.0  0.56425  0.39139  0.90183  1.0000
  H   H27       1.0  0.83573  0.05463  0.79898  1.0000
  H   H28       1.0  0.16426  0.94538  0.20102  1.0000
  H   H29       1.0  0.52052  0.14885  0.78240  1.0000
  H   H30       1.0  0.47946  0.85116  0.21760  1.0000
  H   H31       1.0  0.32616  0.64077  0.27476  1.0000
  H   H32       1.0  0.67384  0.35922  0.72523  1.0000
  H   H33       1.0  0.37699  0.20596  0.93366  1.0000
  H   H34       1.0  0.62302  0.79404  0.06635  1.0000
  H   H35       1.0  0.70180  0.14106  0.97417  1.0000
  H   H36       1.0  0.29820  0.85895  0.02583  1.0000
  H   H37       1.0  0.86412  0.92161  0.94785  1.0000
  H   H38       1.0  0.13588  0.07840  0.05215  1.0000
  H   H39       1.0  0.64946  0.83549  0.89097  1.0000
  H   H40       1.0  0.35054  0.16452  0.10903  1.0000
  C   C1        1.0  0.03503  0.66961  0.16684  1.0000
  C   C2        1.0  0.96496  0.33038  0.83316  1.0000
  C   C3        1.0  0.63900  0.89421  0.56950  1.0000
  C   C4        1.0  0.36101  0.10579  0.43051  1.0000
  C   C5        1.0  0.29812  0.82282  0.67103  1.0000
  C   C6        1.0  0.70187  0.17718  0.32898  1.0000
  C   C7        1.0  0.07793  0.49354  0.28650  1.0000
  C   C8        1.0  0.92206  0.50646  0.71350  1.0000
  C   C9        1.0  0.14469  0.44133  0.38555  1.0000
  C   C10       1.0  0.85540  0.55867  0.61444  1.0000
  C   C11       1.0  0.93103  0.70840  0.34170  1.0000
  C   C12       1.0  0.06897  0.29159  0.65829  1.0000
  C   C13       1.0  0.26268  0.41438  0.21246  1.0000
  C   C14       1.0  0.73730  0.58562  0.78754  1.0000
  C   C15       1.0  0.34518  0.89651  0.74322  1.0000
  C   C16       1.0  0.65481  0.10350  0.25679  1.0000
  C   C17       1.0  0.20171  0.45721  0.11052  1.0000
  C   C18       1.0  0.79826  0.54279  0.88948  1.0000
  C   C19       1.0  0.54872  0.97252  0.72749  1.0000
  C   C20       1.0  0.45126  0.02749  0.27251  1.0000
  C   C21       1.0  0.69538  0.97142  0.63774  1.0000
  C   C22       1.0  0.30462  0.02859  0.36226  1.0000
  C   C23       1.0  0.22158  0.59365  0.09306  1.0000
  C   C24       1.0  0.77841  0.40635  0.90693  1.0000
  C   C25       1.0  0.60999  0.05454  0.80270  1.0000
  C   C26       1.0  0.38999  0.94547  0.19729  1.0000
  C   C27       1.0  0.11110  0.62943  0.26823  1.0000
  C   C28       1.0  0.88890  0.37056  0.73177  1.0000
  C   C29       1.0  0.49125  0.12212  0.96399  1.0000
  C   C30       1.0  0.50875  0.87789  0.03601  1.0000
  C   C31       1.0  0.64709  0.91070  0.93929  1.0000
  C   C32       1.0  0.35290  0.08931  0.06071  1.0000
  N   N1        1.0  0.44306  0.82079  0.58561  1.0000
  N   N2        1.0  0.55693  0.17922  0.41440  1.0000
  N   N3        1.0  0.49829  0.02320  0.89854  1.0000
  N   N4        1.0  0.50171  0.97681  0.10146  1.0000
  O   O1        1.0  0.01108  0.36097  0.42392  1.0000
  O   O2        1.0  0.98901  0.63903  0.57610  1.0000
  O   O3        1.0  0.67266  0.70634  0.34400  1.0000
  O   O4        1.0  0.32734  0.29367  0.65598  1.0000
  O   O5        1.0  0.04237  0.77183  0.39577  1.0000
  O   O6        1.0  0.95764  0.22816  0.60422  1.0000
  O   O7        1.0  0.35240  0.47501  0.42194  1.0000
  O   O8        1.0  0.64773  0.52498  0.57804  1.0000
