data_image0
_chemical_formula_structural       Ba4H40C24S16O8
_chemical_formula_sum              "Ba4 H40 C24 S16 O8"
_cell_length_a       10.1586
_cell_length_b       10.9558
_cell_length_c       11.3165
_cell_angle_alpha    89.9998
_cell_angle_beta     89.9999
_cell_angle_gamma    109.211

_space_group_name_H-M_alt    "P 1"
_space_group_IT_number       1

loop_
  _space_group_symop_operation_xyz
  'x, y, z'

loop_
  _atom_site_type_symbol
  _atom_site_label
  _atom_site_symmetry_multiplicity
  _atom_site_fract_x
  _atom_site_fract_y
  _atom_site_fract_z
  _atom_site_occupancy
  Ba  Ba1       1.0  0.61960  0.88507  0.64635  1.0000
  Ba  Ba2       1.0  0.61960  0.38507  0.85365  1.0000
  Ba  Ba3       1.0  0.38040  0.11493  0.35365  1.0000
  Ba  Ba4       1.0  0.38040  0.61493  0.14635  1.0000
  H   H1        1.0  0.96644  0.29816  0.55886  1.0000
  H   H2        1.0  0.96644  0.79815  0.94114  1.0000
  H   H3        1.0  0.03356  0.70184  0.44114  1.0000
  H   H4        1.0  0.03356  0.20185  0.05886  1.0000
  H   H5        1.0  0.92721  0.14346  0.48911  1.0000
  H   H6        1.0  0.92720  0.64346  0.01089  1.0000
  H   H7        1.0  0.07280  0.85654  0.51089  1.0000
  H   H8        1.0  0.07280  0.35654  0.98911  1.0000
  H   H9        1.0  0.17956  0.23552  0.55169  1.0000
  H   H10       1.0  0.17955  0.73552  0.94831  1.0000
  H   H11       1.0  0.82044  0.76448  0.44831  1.0000
  H   H12       1.0  0.82045  0.26448  0.05169  1.0000
  H   H13       1.0  0.09289  0.08689  0.62558  1.0000
  H   H14       1.0  0.09289  0.58689  0.87442  1.0000
  H   H15       1.0  0.90711  0.91311  0.37442  1.0000
  H   H16       1.0  0.90711  0.41311  0.12558  1.0000
  H   H17       1.0  0.12676  0.23731  0.70105  1.0000
  H   H18       1.0  0.12676  0.73731  0.79895  1.0000
  H   H19       1.0  0.87324  0.76269  0.29895  1.0000
  H   H20       1.0  0.87324  0.26268  0.20105  1.0000
  H   H21       1.0  0.24204  0.45432  0.68752  1.0000
  H   H22       1.0  0.24205  0.95431  0.81248  1.0000
  H   H23       1.0  0.75796  0.54569  0.31247  1.0000
  H   H24       1.0  0.75796  0.04569  0.18752  1.0000
  H   H25       1.0  0.37187  0.51392  0.57625  1.0000
  H   H26       1.0  0.37187  0.01392  0.92375  1.0000
  H   H27       1.0  0.62813  0.48608  0.42375  1.0000
  H   H28       1.0  0.62814  0.98608  0.07625  1.0000
  H   H29       1.0  0.14261  0.51162  0.49620  1.0000
  H   H30       1.0  0.14261  0.01162  0.00380  1.0000
  H   H31       1.0  0.85739  0.48838  0.50380  1.0000
  H   H32       1.0  0.85739  0.98838  0.99620  1.0000
  H   H33       1.0  0.25081  0.67404  0.51344  1.0000
  H   H34       1.0  0.25081  0.17404  0.98657  1.0000
  H   H35       1.0  0.74919  0.32596  0.48656  1.0000
  H   H36       1.0  0.74919  0.82596  0.01344  1.0000
  H   H37       1.0  0.11674  0.60249  0.61952  1.0000
  H   H38       1.0  0.11675  0.10249  0.88048  1.0000
  H   H39       1.0  0.88326  0.39751  0.38048  1.0000
  H   H40       1.0  0.88326  0.89751  0.11952  1.0000
  C   C1        1.0  0.82291  0.20749  0.74670  1.0000
  C   C2        1.0  0.82291  0.70749  0.75330  1.0000
  C   C3        1.0  0.17709  0.79251  0.25330  1.0000
  C   C4        1.0  0.17709  0.29251  0.24670  1.0000
  C   C5        1.0  0.96115  0.19741  0.57142  1.0000
  C   C6        1.0  0.96115  0.69741  0.92858  1.0000
  C   C7        1.0  0.03886  0.80259  0.42858  1.0000
  C   C8        1.0  0.03885  0.30259  0.07142  1.0000
  C   C9        1.0  0.09749  0.18784  0.61588  1.0000
  C   C10       1.0  0.09748  0.68784  0.88412  1.0000
  C   C11       1.0  0.90251  0.81216  0.38412  1.0000
  C   C12       1.0  0.90251  0.31216  0.11588  1.0000
  C   C13       1.0  0.39857  0.62252  0.82483  1.0000
  C   C14       1.0  0.39858  0.12252  0.67517  1.0000
  C   C15       1.0  0.60142  0.37748  0.17517  1.0000
  C   C16       1.0  0.60142  0.87748  0.32483  1.0000
  C   C17       1.0  0.29528  0.53797  0.63206  1.0000
  C   C18       1.0  0.29528  0.03797  0.86795  1.0000
  C   C19       1.0  0.70472  0.46203  0.36794  1.0000
  C   C20       1.0  0.70472  0.96204  0.13206  1.0000
  C   C21       1.0  0.19550  0.58518  0.56182  1.0000
  C   C22       1.0  0.19550  0.08518  0.93818  1.0000
  C   C23       1.0  0.80450  0.41482  0.43818  1.0000
  C   C24       1.0  0.80450  0.91482  0.06182  1.0000
  S   S1        1.0  0.69235  0.11841  0.83713  1.0000
  S   S2        1.0  0.69234  0.61841  0.66287  1.0000
  S   S3        1.0  0.30766  0.88159  0.16287  1.0000
  S   S4        1.0  0.30765  0.38159  0.33713  1.0000
  S   S5        1.0  0.91229  0.86517  0.73515  1.0000
  S   S6        1.0  0.91229  0.36517  0.76485  1.0000
  S   S7        1.0  0.08771  0.13483  0.26485  1.0000
  S   S8        1.0  0.08771  0.63483  0.23515  1.0000
  S   S9        1.0  0.49049  0.75930  0.89764  1.0000
  S   S10       1.0  0.49049  0.25929  0.60235  1.0000
  S   S11       1.0  0.50951  0.24071  0.10235  1.0000
  S   S12       1.0  0.50951  0.74070  0.39764  1.0000
  S   S13       1.0  0.33800  0.97338  0.61301  1.0000
  S   S14       1.0  0.33800  0.47338  0.88700  1.0000
  S   S15       1.0  0.66201  0.02662  0.38700  1.0000
  S   S16       1.0  0.66201  0.52662  0.11300  1.0000
  O   O1        1.0  0.84682  0.13755  0.65432  1.0000
  O   O2        1.0  0.84681  0.63755  0.84568  1.0000
  O   O3        1.0  0.15319  0.86245  0.34568  1.0000
  O   O4        1.0  0.15319  0.36245  0.15432  1.0000
  O   O5        1.0  0.37564  0.64348  0.70999  1.0000
  O   O6        1.0  0.37565  0.14348  0.79001  1.0000
  O   O7        1.0  0.62436  0.35652  0.29001  1.0000
  O   O8        1.0  0.62436  0.85652  0.20999  1.0000
