data_image0
_chemical_formula_structural       U2Fe2P2H24C26O20F2
_chemical_formula_sum              "U2 Fe2 P2 H24 C26 O20 F2"
_cell_length_a       6.96449
_cell_length_b       11.1358
_cell_length_c       12.2504
_cell_angle_alpha    109.325
_cell_angle_beta     89.6871
_cell_angle_gamma    91.9196

_space_group_name_H-M_alt    "P 1"
_space_group_IT_number       1

loop_
  _space_group_symop_operation_xyz
  'x, y, z'

loop_
  _atom_site_type_symbol
  _atom_site_label
  _atom_site_symmetry_multiplicity
  _atom_site_fract_x
  _atom_site_fract_y
  _atom_site_fract_z
  _atom_site_occupancy
  U   U1        1.0  0.94284  0.33783  0.86545  1.0000
  U   U2        1.0  0.05715  0.66217  0.13455  1.0000
  Fe  Fe1       1.0  0.03314  0.82611  0.68767  1.0000
  Fe  Fe2       1.0  0.96686  0.17390  0.31233  1.0000
  P   P1        1.0  0.44491  0.32350  0.78215  1.0000
  P   P2        1.0  0.55509  0.67650  0.21784  1.0000
  H   H1        1.0  0.19743  0.06548  0.68496  1.0000
  H   H2        1.0  0.80257  0.93451  0.31503  1.0000
  H   H3        1.0  0.72967  0.80353  0.51770  1.0000
  H   H4        1.0  0.27033  0.19647  0.48230  1.0000
  H   H5        1.0  0.95327  0.62132  0.47146  1.0000
  H   H6        1.0  0.04673  0.37868  0.52854  1.0000
  H   H7        1.0  0.42300  0.88580  0.63408  1.0000
  H   H8        1.0  0.57700  0.11420  0.36592  1.0000
  H   H9        1.0  0.97280  0.02990  0.89084  1.0000
  H   H10       1.0  0.02718  0.97011  0.10915  1.0000
  H   H11       1.0  0.67552  0.86479  0.79623  1.0000
  H   H12       1.0  0.32448  0.13520  0.20377  1.0000
  H   H13       1.0  0.81152  0.62487  0.72669  1.0000
  H   H14       1.0  0.18850  0.37513  0.27332  1.0000
  H   H15       1.0  0.18762  0.64198  0.77348  1.0000
  H   H16       1.0  0.81240  0.35803  0.22653  1.0000
  H   H17       1.0  0.28962  0.89150  0.87686  1.0000
  H   H18       1.0  0.71038  0.10852  0.12314  1.0000
  H   H19       1.0  0.34466  0.50741  0.86763  1.0000
  H   H20       1.0  0.65535  0.49258  0.13236  1.0000
  H   H21       1.0  0.55010  0.17421  0.63378  1.0000
  H   H22       1.0  0.44990  0.82579  0.36622  1.0000
  H   H23       1.0  0.58671  0.58374  0.55829  1.0000
  H   H24       1.0  0.41329  0.41626  0.44172  1.0000
  C   C1        1.0  0.81596  0.05590  0.64127  1.0000
  C   C2        1.0  0.18404  0.94410  0.35872  1.0000
  C   C3        1.0  0.95072  0.94684  0.60046  1.0000
  C   C4        1.0  0.04929  0.05316  0.39954  1.0000
  C   C5        1.0  0.14837  0.96998  0.63209  1.0000
  C   C6        1.0  0.85163  0.03002  0.36790  1.0000
  C   C7        1.0  0.88191  0.82123  0.53830  1.0000
  C   C8        1.0  0.11809  0.17877  0.46169  1.0000
  C   C9        1.0  0.00734  0.71874  0.51167  1.0000
  C   C10       1.0  0.99266  0.28126  0.48833  1.0000
  C   C11       1.0  0.20365  0.74154  0.54641  1.0000
  C   C12       1.0  0.79635  0.25845  0.45360  1.0000
  C   C13       1.0  0.27429  0.86798  0.60514  1.0000
  C   C14       1.0  0.72572  0.13202  0.39486  1.0000
  C   C15       1.0  0.33060  0.63216  0.52859  1.0000
  C   C16       1.0  0.66939  0.36784  0.47141  1.0000
  C   C17       1.0  0.97827  0.92643  0.85726  1.0000
  C   C18       1.0  0.02173  0.07358  0.14273  1.0000
  C   C19       1.0  0.82135  0.83913  0.80757  1.0000
  C   C20       1.0  0.17865  0.16088  0.19242  1.0000
  C   C21       1.0  0.89202  0.71295  0.76936  1.0000
  C   C22       1.0  0.10799  0.28706  0.23065  1.0000
  C   C23       1.0  0.09275  0.72187  0.79460  1.0000
  C   C24       1.0  0.90726  0.27814  0.20540  1.0000
  C   C25       1.0  0.14599  0.85316  0.84885  1.0000
  C   C26       1.0  0.85401  0.14685  0.15115  1.0000
  O   O1        1.0  0.93562  0.43372  0.77140  1.0000
  O   O2        1.0  0.06437  0.56626  0.22859  1.0000
  O   O3        1.0  0.94954  0.23590  0.95431  1.0000
  O   O4        1.0  0.05046  0.76410  0.04570  1.0000
  O   O5        1.0  0.61134  0.30613  0.85545  1.0000
  O   O6        1.0  0.38865  0.69386  0.14455  1.0000
  O   O7        1.0  0.25493  0.26834  0.81050  1.0000
  O   O8        1.0  0.74507  0.73165  0.18950  1.0000
  O   O9        1.0  0.89495  0.16211  0.70091  1.0000
  O   O10       1.0  0.10504  0.83788  0.29909  1.0000
  O   O11       1.0  0.64147  0.03820  0.61239  1.0000
  O   O12       1.0  0.35853  0.96180  0.38760  1.0000
  O   O13       1.0  0.42162  0.46996  0.79629  1.0000
  O   O14       1.0  0.57838  0.53003  0.20370  1.0000
  O   O15       1.0  0.49183  0.26183  0.64907  1.0000
  O   O16       1.0  0.50816  0.73816  0.35093  1.0000
  O   O17       1.0  0.27538  0.52198  0.47037  1.0000
  O   O18       1.0  0.72461  0.47801  0.52965  1.0000
  O   O19       1.0  0.49930  0.66247  0.57948  1.0000
  O   O20       1.0  0.50069  0.33752  0.42051  1.0000
  F   F1        1.0  0.82421  0.49763  0.02854  1.0000
  F   F2        1.0  0.17578  0.50237  0.97146  1.0000
