data_image0
_chemical_formula_structural       K4H24C36Br4O8
_chemical_formula_sum              "K4 H24 C36 Br4 O8"
_cell_length_a       3.92859
_cell_length_b       11.3355
_cell_length_c       21.2095
_cell_angle_alpha    90.3158
_cell_angle_beta     95.3316
_cell_angle_gamma    89.9761

_space_group_name_H-M_alt    "P 1"
_space_group_IT_number       1

loop_
  _space_group_symop_operation_xyz
  'x, y, z'

loop_
  _atom_site_type_symbol
  _atom_site_label
  _atom_site_symmetry_multiplicity
  _atom_site_fract_x
  _atom_site_fract_y
  _atom_site_fract_z
  _atom_site_occupancy
  K   K1        1.0  0.27614  0.46042  0.48513  1.0000
  K   K2        1.0  0.21074  0.96031  0.48535  1.0000
  K   K3        1.0  0.80873  0.71069  0.58822  1.0000
  K   K4        1.0  0.78097  0.21056  0.58828  1.0000
  H   H1        1.0  0.45042  0.45233  0.84270  1.0000
  H   H2        1.0  0.39014  0.95203  0.84280  1.0000
  H   H3        1.0  0.04703  0.21016  0.97331  1.0000
  H   H4        1.0  0.92465  0.71010  0.97357  1.0000
  H   H5        1.0  0.85764  0.07691  0.88409  1.0000
  H   H6        1.0  0.02797  0.57718  0.88445  1.0000
  H   H7        1.0  0.95935  0.13020  0.77345  1.0000
  H   H8        1.0  0.81670  0.63037  0.77372  1.0000
  H   H9        1.0  0.23502  0.25189  0.70107  1.0000
  H   H10       1.0  0.46770  0.75169  0.70117  1.0000
  H   H11       1.0  0.29577  0.51339  0.74108  1.0000
  H   H12       1.0  0.44546  0.01316  0.74124  1.0000
  H   H13       1.0  0.65722  0.19979  0.23079  1.0000
  H   H14       1.0  0.57261  0.69999  0.23063  1.0000
  H   H15       1.0  0.13224  0.95694  0.09789  1.0000
  H   H16       1.0  0.96438  0.45716  0.09770  1.0000
  H   H17       1.0  0.01209  0.82631  0.18644  1.0000
  H   H18       1.0  0.17335  0.32637  0.18619  1.0000
  H   H19       1.0  0.21025  0.88144  0.29778  1.0000
  H   H20       1.0  0.08687  0.38141  0.29756  1.0000
  H   H21       1.0  0.54739  0.00254  0.37190  1.0000
  H   H22       1.0  0.82541  0.50256  0.37171  1.0000
  H   H23       1.0  0.61973  0.26167  0.33211  1.0000
  H   H24       1.0  0.71212  0.76168  0.33192  1.0000
  C   C1        1.0  0.20257  0.29641  0.79995  1.0000
  C   C2        1.0  0.59724  0.79622  0.80008  1.0000
  C   C3        1.0  0.31255  0.37132  0.85100  1.0000
  C   C4        1.0  0.53705  0.87111  0.85107  1.0000
  C   C5        1.0  0.25592  0.33886  0.91229  1.0000
  C   C6        1.0  0.65486  0.83876  0.91241  1.0000
  C   C7        1.0  0.09109  0.23378  0.92505  1.0000
  C   C8        1.0  0.83336  0.73384  0.92528  1.0000
  C   C9        1.0  0.98645  0.15901  0.87448  1.0000
  C   C10       1.0  0.88876  0.65912  0.87476  1.0000
  C   C11       1.0  0.04339  0.18907  0.81276  1.0000
  C   C12       1.0  0.77055  0.68911  0.81300  1.0000
  C   C13       1.0  0.24590  0.32647  0.73431  1.0000
  C   C14       1.0  0.48909  0.82626  0.73443  1.0000
  C   C15       1.0  0.28774  0.43509  0.71075  1.0000
  C   C16       1.0  0.42367  0.93490  0.71087  1.0000
  C   C17       1.0  0.31033  0.45736  0.64189  1.0000
  C   C18       1.0  0.33269  0.95723  0.64201  1.0000
  C   C19       1.0  0.44043  0.04553  0.27251  1.0000
  C   C20       1.0  0.83117  0.54554  0.27235  1.0000
  C   C21       1.0  0.50952  0.11907  0.22193  1.0000
  C   C22       1.0  0.71109  0.61914  0.22178  1.0000
  C   C23       1.0  0.39923  0.08560  0.16024  1.0000
  C   C24       1.0  0.75941  0.58572  0.16008  1.0000
  C   C25       1.0  0.21933  0.98103  0.14648  1.0000
  C   C26       1.0  0.92575  0.48114  0.14631  1.0000
  C   C27       1.0  0.15374  0.90785  0.19665  1.0000
  C   C28       1.0  0.04190  0.40790  0.19643  1.0000
  C   C29       1.0  0.26449  0.93893  0.25880  1.0000
  C   C30       1.0  0.99347  0.43894  0.25860  1.0000
  C   C31       1.0  0.54261  0.07609  0.33851  1.0000
  C   C32       1.0  0.79602  0.57616  0.33835  1.0000
  C   C33       1.0  0.62261  0.18395  0.36237  1.0000
  C   C34       1.0  0.74014  0.68406  0.36222  1.0000
  C   C35       1.0  0.70553  0.20626  0.43158  1.0000
  C   C36       1.0  0.72767  0.70641  0.43146  1.0000
  Br  Br1       1.0  0.41243  0.44130  0.98081  1.0000
  Br  Br2       1.0  0.56534  0.94123  0.98080  1.0000
  Br  Br3       1.0  0.49956  0.18616  0.09244  1.0000
  Br  Br4       1.0  0.59156  0.68636  0.09227  1.0000
  O   O1        1.0  0.33500  0.56473  0.62501  1.0000
  O   O2        1.0  0.29135  0.06462  0.62513  1.0000
  O   O3        1.0  0.29866  0.36959  0.60367  1.0000
  O   O4        1.0  0.30600  0.86945  0.60381  1.0000
  O   O5        1.0  0.76399  0.31297  0.44885  1.0000
  O   O6        1.0  0.68706  0.81315  0.44877  1.0000
  O   O7        1.0  0.70858  0.11914  0.46965  1.0000
  O   O8        1.0  0.76303  0.61926  0.46951  1.0000
