data_image0
_chemical_formula_structural       Cd2H24C52N4O16
_chemical_formula_sum              "Cd2 H24 C52 N4 O16"
_cell_length_a       6.84296
_cell_length_b       12.5405
_cell_length_c       14.4802
_cell_angle_alpha    115.672
_cell_angle_beta     94.7491
_cell_angle_gamma    89.9806

_space_group_name_H-M_alt    "P 1"
_space_group_IT_number       1

loop_
  _space_group_symop_operation_xyz
  'x, y, z'

loop_
  _atom_site_type_symbol
  _atom_site_label
  _atom_site_symmetry_multiplicity
  _atom_site_fract_x
  _atom_site_fract_y
  _atom_site_fract_z
  _atom_site_occupancy
  Cd  Cd1       1.0  0.74990  0.89985  0.99997  1.0000
  Cd  Cd2       1.0  0.25010  0.10015  0.00003  1.0000
  H   H1        1.0  0.45132  0.17075  0.80150  1.0000
  H   H2        1.0  0.04890  0.36905  0.19855  1.0000
  H   H3        1.0  0.54867  0.82925  0.19850  1.0000
  H   H4        1.0  0.95110  0.63095  0.80145  1.0000
  H   H5        1.0  0.69150  0.82527  0.66280  1.0000
  H   H6        1.0  0.80879  0.16234  0.33720  1.0000
  H   H7        1.0  0.30851  0.17473  0.33720  1.0000
  H   H8        1.0  0.19122  0.83765  0.66280  1.0000
  H   H9        1.0  0.49549  0.72398  0.78981  1.0000
  H   H10       1.0  0.00488  0.93393  0.21004  1.0000
  H   H11       1.0  0.50451  0.27602  0.21019  1.0000
  H   H12       1.0  0.99512  0.06607  0.78996  1.0000
  H   H13       1.0  0.40074  0.50629  0.68233  1.0000
  H   H14       1.0  0.09967  0.82366  0.31742  1.0000
  H   H15       1.0  0.59926  0.49372  0.31767  1.0000
  H   H16       1.0  0.90034  0.17634  0.68258  1.0000
  H   H17       1.0  0.50569  0.36383  0.75309  1.0000
  H   H18       1.0  0.99417  0.61055  0.24676  1.0000
  H   H19       1.0  0.49430  0.63617  0.24691  1.0000
  H   H20       1.0  0.00583  0.38944  0.75324  1.0000
  H   H21       1.0  0.69234  0.43849  0.92519  1.0000
  H   H22       1.0  0.80701  0.51327  0.07476  1.0000
  H   H23       1.0  0.30766  0.56151  0.07480  1.0000
  H   H24       1.0  0.19299  0.48673  0.92524  1.0000
  C   C1        1.0  0.60007  0.99910  0.84667  1.0000
  C   C2        1.0  0.89993  0.15226  0.15334  1.0000
  C   C3        1.0  0.39994  0.00090  0.15333  1.0000
  C   C4        1.0  0.10007  0.84774  0.84667  1.0000
  C   C5        1.0  0.57404  0.99821  0.74155  1.0000
  C   C6        1.0  0.92617  0.25650  0.25846  1.0000
  C   C7        1.0  0.42596  0.00179  0.25845  1.0000
  C   C8        1.0  0.07383  0.74350  0.74154  1.0000
  C   C9        1.0  0.49171  0.09620  0.73261  1.0000
  C   C10       1.0  0.00851  0.36341  0.26743  1.0000
  C   C11       1.0  0.50828  0.90380  0.26739  1.0000
  C   C12       1.0  0.99149  0.63659  0.73256  1.0000
  C   C13       1.0  0.46295  0.09565  0.63639  1.0000
  C   C14       1.0  0.03713  0.45914  0.36365  1.0000
  C   C15       1.0  0.53705  0.90435  0.36361  1.0000
  C   C16       1.0  0.96287  0.54086  0.63635  1.0000
  C   C17       1.0  0.51658  0.99898  0.54871  1.0000
  C   C18       1.0  0.98347  0.45021  0.45131  1.0000
  C   C19       1.0  0.48343  0.00102  0.45129  1.0000
  C   C20       1.0  0.01653  0.54979  0.54869  1.0000
  C   C21       1.0  0.59991  0.90084  0.55796  1.0000
  C   C22       1.0  0.90027  0.34278  0.44204  1.0000
  C   C23       1.0  0.40009  0.09916  0.44203  1.0000
  C   C24       1.0  0.09974  0.65721  0.55796  1.0000
  C   C25       1.0  0.62845  0.90073  0.65462  1.0000
  C   C26       1.0  0.87185  0.24597  0.34539  1.0000
  C   C27       1.0  0.37155  0.09927  0.34538  1.0000
  C   C28       1.0  0.12816  0.75403  0.65461  1.0000
  C   C29       1.0  0.64870  0.79858  0.46463  1.0000
  C   C30       1.0  0.85142  0.33396  0.53540  1.0000
  C   C31       1.0  0.35130  0.20142  0.53537  1.0000
  C   C32       1.0  0.14858  0.66604  0.46461  1.0000
  C   C33       1.0  0.53319  0.65704  0.81670  1.0000
  C   C34       1.0  0.96692  0.84013  0.18317  1.0000
  C   C35       1.0  0.46681  0.34297  0.18330  1.0000
  C   C36       1.0  0.03308  0.15987  0.81683  1.0000
  C   C37       1.0  0.48213  0.53741  0.75781  1.0000
  C   C38       1.0  0.01803  0.77934  0.24200  1.0000
  C   C39       1.0  0.51787  0.46259  0.24219  1.0000
  C   C40       1.0  0.98197  0.22065  0.75799  1.0000
  C   C41       1.0  0.54064  0.45799  0.79759  1.0000
  C   C42       1.0  0.95917  0.66021  0.20226  1.0000
  C   C43       1.0  0.45936  0.54201  0.20240  1.0000
  C   C44       1.0  0.04083  0.33979  0.79774  1.0000
  C   C45       1.0  0.64525  0.50020  0.89409  1.0000
  C   C46       1.0  0.85425  0.60606  0.10584  1.0000
  C   C47       1.0  0.35475  0.49980  0.10591  1.0000
  C   C48       1.0  0.14575  0.39394  0.89415  1.0000
  C   C49       1.0  0.69206  0.62180  0.94875  1.0000
  C   C50       1.0  0.80739  0.67305  0.05127  1.0000
  C   C51       1.0  0.30794  0.37820  0.05125  1.0000
  C   C52       1.0  0.19261  0.32695  0.94873  1.0000
  N   N1        1.0  0.63576  0.69744  0.90896  1.0000
  N   N2        1.0  0.86403  0.78841  0.09100  1.0000
  N   N3        1.0  0.36424  0.30256  0.09104  1.0000
  N   N4        1.0  0.13597  0.21159  0.90900  1.0000
  O   O1        1.0  0.67349  0.90632  0.84873  1.0000
  O   O2        1.0  0.82614  0.05751  0.15125  1.0000
  O   O3        1.0  0.32652  0.09368  0.15127  1.0000
  O   O4        1.0  0.17385  0.94249  0.84876  1.0000
  O   O5        1.0  0.55005  0.08891  0.92284  1.0000
  O   O6        1.0  0.95010  0.16581  0.07718  1.0000
  O   O7        1.0  0.44994  0.91109  0.07716  1.0000
  O   O8        1.0  0.04990  0.83419  0.92282  1.0000
  O   O9        1.0  0.38040  0.19185  0.62824  1.0000
  O   O10       1.0  0.11966  0.56349  0.37179  1.0000
  O   O11       1.0  0.61960  0.80815  0.37176  1.0000
  O   O12       1.0  0.88034  0.43651  0.62821  1.0000
  O   O13       1.0  0.71316  0.70589  0.45997  1.0000
  O   O14       1.0  0.78700  0.24597  0.54010  1.0000
  O   O15       1.0  0.28685  0.29411  0.54003  1.0000
  O   O16       1.0  0.21299  0.75403  0.45990  1.0000
