data_image0
_chemical_formula_structural       Sr2H10C14N2O10
_chemical_formula_sum              "Sr2 H10 C14 N2 O10"
_cell_length_a       6.585
_cell_length_b       6.70343
_cell_length_c       10.0493
_cell_angle_alpha    96.1574
_cell_angle_beta     93.3441
_cell_angle_gamma    116.995

_space_group_name_H-M_alt    "P 1"
_space_group_IT_number       1

loop_
  _space_group_symop_operation_xyz
  'x, y, z'

loop_
  _atom_site_type_symbol
  _atom_site_label
  _atom_site_symmetry_multiplicity
  _atom_site_fract_x
  _atom_site_fract_y
  _atom_site_fract_z
  _atom_site_occupancy
  Sr  Sr1       1.0  0.29417  0.11236  0.38645  1.0000
  Sr  Sr2       1.0  0.70584  0.88764  0.61355  1.0000
  H   H1        1.0  0.32270  0.38413  0.06479  1.0000
  H   H2        1.0  0.67729  0.61587  0.93521  1.0000
  H   H3        1.0  0.23497  0.45311  0.83114  1.0000
  H   H4        1.0  0.76503  0.54690  0.16886  1.0000
  H   H5        1.0  0.18928  0.03536  0.02014  1.0000
  H   H6        1.0  0.81072  0.96465  0.97986  1.0000
  H   H7        1.0  0.05033  0.72683  0.53855  1.0000
  H   H8        1.0  0.94967  0.27316  0.46145  1.0000
  H   H9        1.0  0.88302  0.60333  0.40305  1.0000
  H   H10       1.0  0.11698  0.39667  0.59695  1.0000
  C   C1        1.0  0.32687  0.68639  0.16057  1.0000
  C   C2        1.0  0.67312  0.31359  0.83943  1.0000
  C   C3        1.0  0.29972  0.53047  0.04881  1.0000
  C   C4        1.0  0.70028  0.46954  0.95119  1.0000
  C   C5        1.0  0.24810  0.56749  0.92054  1.0000
  C   C6        1.0  0.75191  0.43252  0.07946  1.0000
  C   C7        1.0  0.21189  0.75462  0.90809  1.0000
  C   C8        1.0  0.78810  0.24539  0.09191  1.0000
  C   C9        1.0  0.22716  0.89421  0.02656  1.0000
  C   C10       1.0  0.77284  0.10580  0.97344  1.0000
  C   C11       1.0  0.40575  0.66052  0.29928  1.0000
  C   C12       1.0  0.59425  0.33948  0.70072  1.0000
  C   C13       1.0  0.14833  0.79991  0.77219  1.0000
  C   C14       1.0  0.85167  0.20009  0.22781  1.0000
  N   N1        1.0  0.28780  0.86557  0.14979  1.0000
  N   N2        1.0  0.71221  0.13444  0.85022  1.0000
  O   O1        1.0  0.44430  0.81795  0.39552  1.0000
  O   O2        1.0  0.55570  0.18204  0.60449  1.0000
  O   O3        1.0  0.43319  0.48805  0.31050  1.0000
  O   O4        1.0  0.56681  0.51194  0.68949  1.0000
  O   O5        1.0  0.05982  0.93184  0.76856  1.0000
  O   O6        1.0  0.94019  0.06817  0.23144  1.0000
  O   O7        1.0  0.18590  0.69702  0.66865  1.0000
  O   O8        1.0  0.81410  0.30298  0.33135  1.0000
  O   O9        1.0  0.95721  0.75025  0.46306  1.0000
  O   O10       1.0  0.04279  0.24975  0.53694  1.0000
