data_image0
_chemical_formula_structural       Sr2H10C14N2O10
_chemical_formula_sum              "Sr2 H10 C14 N2 O10"
_cell_length_a       6.58182
_cell_length_b       6.69689
_cell_length_c       10.054
_cell_angle_alpha    96.0721
_cell_angle_beta     93.252
_cell_angle_gamma    116.955

_space_group_name_H-M_alt    "P 1"
_space_group_IT_number       1

loop_
  _space_group_symop_operation_xyz
  'x, y, z'

loop_
  _atom_site_type_symbol
  _atom_site_label
  _atom_site_symmetry_multiplicity
  _atom_site_fract_x
  _atom_site_fract_y
  _atom_site_fract_z
  _atom_site_occupancy
  Sr  Sr1       1.0  0.29504  0.61346  0.38670  1.0000
  Sr  Sr2       1.0  0.70496  0.38654  0.61330  1.0000
  H   H1        1.0  0.23576  0.95282  0.83244  1.0000
  H   H2        1.0  0.76424  0.04718  0.16756  1.0000
  H   H3        1.0  0.18879  0.53541  0.02053  1.0000
  H   H4        1.0  0.81121  0.46459  0.97947  1.0000
  H   H5        1.0  0.32443  0.88482  0.06595  1.0000
  H   H6        1.0  0.67558  0.11518  0.93405  1.0000
  H   H7        1.0  0.04857  0.22456  0.53850  1.0000
  H   H8        1.0  0.95142  0.77543  0.46151  1.0000
  H   H9        1.0  0.88328  0.10403  0.40237  1.0000
  H   H10       1.0  0.11672  0.89597  0.59763  1.0000
  C   C1        1.0  0.40745  0.16131  0.29942  1.0000
  C   C2        1.0  0.59255  0.83869  0.70058  1.0000
  C   C3        1.0  0.21160  0.25418  0.90871  1.0000
  C   C4        1.0  0.78840  0.74583  0.09129  1.0000
  C   C5        1.0  0.24847  0.06733  0.92150  1.0000
  C   C6        1.0  0.75154  0.93267  0.07851  1.0000
  C   C7        1.0  0.22748  0.39453  0.02680  1.0000
  C   C8        1.0  0.77254  0.60547  0.97320  1.0000
  C   C9        1.0  0.32802  0.18715  0.16100  1.0000
  C   C10       1.0  0.67199  0.81285  0.83900  1.0000
  C   C11       1.0  0.14625  0.29781  0.77275  1.0000
  C   C12       1.0  0.85375  0.70220  0.22725  1.0000
  C   C13       1.0  0.30054  0.03074  0.04968  1.0000
  C   C14       1.0  0.69946  0.96926  0.95031  1.0000
  N   N1        1.0  0.28861  0.36626  0.14995  1.0000
  N   N2        1.0  0.71139  0.63375  0.85005  1.0000
  O   O1        1.0  0.95693  0.24995  0.46319  1.0000
  O   O2        1.0  0.04307  0.75004  0.53681  1.0000
  O   O3        1.0  0.44463  0.31795  0.39569  1.0000
  O   O4        1.0  0.55537  0.68205  0.60432  1.0000
  O   O5        1.0  0.43600  0.98923  0.31057  1.0000
  O   O6        1.0  0.56398  0.01076  0.68943  1.0000
  O   O7        1.0  0.05714  0.42945  0.76892  1.0000
  O   O8        1.0  0.94286  0.57055  0.23109  1.0000
  O   O9        1.0  0.18321  0.19429  0.66933  1.0000
  O   O10       1.0  0.81679  0.80571  0.33066  1.0000
