data_image0
_chemical_formula_structural       Gd2H26C40S2N8O12
_chemical_formula_sum              "Gd2 H26 C40 S2 N8 O12"
_cell_length_a       6.85762
_cell_length_b       9.96071
_cell_length_c       15.0368
_cell_angle_alpha    84.9878
_cell_angle_beta     79.3985
_cell_angle_gamma    79.6931

_space_group_name_H-M_alt    "P 1"
_space_group_IT_number       1

loop_
  _space_group_symop_operation_xyz
  'x, y, z'

loop_
  _atom_site_type_symbol
  _atom_site_label
  _atom_site_symmetry_multiplicity
  _atom_site_fract_x
  _atom_site_fract_y
  _atom_site_fract_z
  _atom_site_occupancy
  Gd  Gd1       1.0  0.43588  0.04787  0.11461  1.0000
  Gd  Gd2       1.0  0.56412  0.95213  0.88539  1.0000
  H   H1        1.0  0.18143  0.60297  0.71210  1.0000
  H   H2        1.0  0.81858  0.39703  0.28790  1.0000
  H   H3        1.0  0.26843  0.36170  0.77250  1.0000
  H   H4        1.0  0.73158  0.63830  0.22750  1.0000
  H   H5        1.0  0.27029  0.50440  0.03338  1.0000
  H   H6        1.0  0.72971  0.49560  0.96662  1.0000
  H   H7        1.0  0.19375  0.74549  0.97380  1.0000
  H   H8        1.0  0.80626  0.25451  0.02620  1.0000
  H   H9        1.0  0.42082  0.75889  0.25024  1.0000
  H   H10       1.0  0.57918  0.24111  0.74976  1.0000
  H   H11       1.0  0.37146  0.66215  0.41094  1.0000
  H   H12       1.0  0.62854  0.33785  0.58905  1.0000
  H   H13       1.0  0.27431  0.82393  0.53680  1.0000
  H   H14       1.0  0.72568  0.17607  0.46320  1.0000
  H   H15       1.0  0.09976  0.24542  0.70067  1.0000
  H   H16       1.0  0.90024  0.75457  0.29933  1.0000
  H   H17       1.0  0.15572  0.51001  0.41274  1.0000
  H   H18       1.0  0.84428  0.48998  0.58726  1.0000
  H   H19       1.0  0.22952  0.57606  0.24535  1.0000
  H   H20       1.0  0.77049  0.42394  0.75466  1.0000
  H   H21       1.0  0.33622  0.38916  0.13640  1.0000
  H   H22       1.0  0.66378  0.61084  0.86361  1.0000
  H   H23       1.0  0.17207  0.00613  0.64140  1.0000
  H   H24       1.0  0.82793  0.99386  0.35860  1.0000
  H   H25       1.0  0.18286  0.99098  0.00454  1.0000
  H   H26       1.0  0.81714  0.00902  0.99546  1.0000
  C   C1        1.0  0.18073  0.68704  0.83967  1.0000
  C   C2        1.0  0.81927  0.31296  0.16033  1.0000
  C   C3        1.0  0.20103  0.58054  0.78238  1.0000
  C   C4        1.0  0.79897  0.41946  0.21762  1.0000
  C   C5        1.0  0.24926  0.44627  0.81629  1.0000
  C   C6        1.0  0.75075  0.55373  0.18371  1.0000
  C   C7        1.0  0.27604  0.41773  0.90659  1.0000
  C   C8        1.0  0.72396  0.58227  0.09341  1.0000
  C   C9        1.0  0.25112  0.52647  0.96316  1.0000
  C   C10       1.0  0.74888  0.47353  0.03684  1.0000
  C   C11       1.0  0.20493  0.66119  0.93034  1.0000
  C   C12       1.0  0.79507  0.33882  0.06966  1.0000
  C   C13       1.0  0.33681  0.27241  0.94132  1.0000
  C   C14       1.0  0.66319  0.72759  0.05868  1.0000
  C   C15       1.0  0.37812  0.82580  0.30668  1.0000
  C   C16       1.0  0.62188  0.17420  0.69332  1.0000
  C   C17       1.0  0.35029  0.77230  0.39677  1.0000
  C   C18       1.0  0.64971  0.22769  0.60323  1.0000
  C   C19       1.0  0.29836  0.86143  0.46593  1.0000
  C   C20       1.0  0.70163  0.13856  0.53407  1.0000
  C   C21       1.0  0.27644  0.00320  0.44345  1.0000
  C   C22       1.0  0.72356  0.99680  0.55655  1.0000
  C   C23       1.0  0.22251  0.10584  0.50788  1.0000
  C   C24       1.0  0.77749  0.89416  0.49212  1.0000
  C   C25       1.0  0.13846  0.22566  0.62914  1.0000
  C   C26       1.0  0.86154  0.77434  0.37086  1.0000
  C   C27       1.0  0.20257  0.24609  0.48418  1.0000
  C   C28       1.0  0.79743  0.75390  0.51582  1.0000
  C   C29       1.0  0.23575  0.29414  0.39105  1.0000
  C   C30       1.0  0.76425  0.70586  0.60895  1.0000
  C   C31       1.0  0.21099  0.43364  0.36245  1.0000
  C   C32       1.0  0.78901  0.56636  0.63755  1.0000
  C   C33       1.0  0.24787  0.46951  0.27079  1.0000
  C   C34       1.0  0.75214  0.53049  0.72921  1.0000
  C   C35       1.0  0.30703  0.36587  0.20922  1.0000
  C   C36       1.0  0.69297  0.63414  0.79078  1.0000
  C   C37       1.0  0.29281  0.19494  0.32409  1.0000
  C   C38       1.0  0.70719  0.80506  0.67591  1.0000
  C   C39       1.0  0.31135  0.04940  0.35015  1.0000
  C   C40       1.0  0.68865  0.95060  0.64985  1.0000
  S   S1        1.0  0.12658  0.85915  0.79740  1.0000
  S   S2        1.0  0.87342  0.14085  0.20260  1.0000
  N   N1        1.0  0.36086  0.95924  0.28359  1.0000
  N   N2        1.0  0.63914  0.04076  0.71641  1.0000
  N   N3        1.0  0.32766  0.23314  0.23433  1.0000
  N   N4        1.0  0.67234  0.76686  0.76567  1.0000
  N   N5        1.0  0.15029  0.32004  0.56097  1.0000
  N   N6        1.0  0.84970  0.67996  0.43903  1.0000
  N   N7        1.0  0.18118  0.09545  0.60085  1.0000
  N   N8        1.0  0.81882  0.90455  0.39915  1.0000
  O   O1        1.0  0.27895  0.93142  0.81939  1.0000
  O   O2        1.0  0.72105  0.06859  0.18061  1.0000
  O   O3        1.0  0.13672  0.85441  0.69934  1.0000
  O   O4        1.0  0.86328  0.14559  0.30066  1.0000
  O   O5        1.0  0.92715  0.91732  0.84565  1.0000
  O   O6        1.0  0.07285  0.08268  0.15435  1.0000
  O   O7        1.0  0.39077  0.18237  0.88248  1.0000
  O   O8        1.0  0.60923  0.81763  0.11752  1.0000
  O   O9        1.0  0.33135  0.25004  0.02630  1.0000
  O   O10       1.0  0.66865  0.74996  0.97370  1.0000
  O   O11       1.0  0.31676  0.94357  0.01068  1.0000
  O   O12       1.0  0.68324  0.05643  0.98932  1.0000
