data_image0
_chemical_formula_structural       Tb2H26C40S2N8O12
_chemical_formula_sum              "Tb2 H26 C40 S2 N8 O12"
_cell_length_a       6.84277
_cell_length_b       9.96507
_cell_length_c       15.0129
_cell_angle_alpha    85.0645
_cell_angle_beta     79.2246
_cell_angle_gamma    79.5039

_space_group_name_H-M_alt    "P 1"
_space_group_IT_number       1

loop_
  _space_group_symop_operation_xyz
  'x, y, z'

loop_
  _atom_site_type_symbol
  _atom_site_label
  _atom_site_symmetry_multiplicity
  _atom_site_fract_x
  _atom_site_fract_y
  _atom_site_fract_z
  _atom_site_occupancy
  Tb  Tb1       1.0  0.43637  0.04772  0.11426  1.0000
  Tb  Tb2       1.0  0.56362  0.95228  0.88574  1.0000
  H   H1        1.0  0.17974  0.60226  0.71311  1.0000
  H   H2        1.0  0.82026  0.39773  0.28689  1.0000
  H   H3        1.0  0.26565  0.36099  0.77357  1.0000
  H   H4        1.0  0.73436  0.63901  0.22643  1.0000
  H   H5        1.0  0.27101  0.50410  0.03439  1.0000
  H   H6        1.0  0.72898  0.49589  0.96561  1.0000
  H   H7        1.0  0.19537  0.74507  0.97474  1.0000
  H   H8        1.0  0.80462  0.25493  0.02526  1.0000
  H   H9        1.0  0.42077  0.75856  0.24875  1.0000
  H   H10       1.0  0.57923  0.24145  0.75125  1.0000
  H   H11       1.0  0.37138  0.66148  0.40948  1.0000
  H   H12       1.0  0.62861  0.33852  0.59051  1.0000
  H   H13       1.0  0.27478  0.82294  0.53608  1.0000
  H   H14       1.0  0.72523  0.17706  0.46392  1.0000
  H   H15       1.0  0.10071  0.24393  0.70142  1.0000
  H   H16       1.0  0.89929  0.75607  0.29858  1.0000
  H   H17       1.0  0.15539  0.50923  0.41355  1.0000
  H   H18       1.0  0.84463  0.49077  0.58645  1.0000
  H   H19       1.0  0.22980  0.57548  0.24603  1.0000
  H   H20       1.0  0.77020  0.42452  0.75397  1.0000
  H   H21       1.0  0.33680  0.38880  0.13637  1.0000
  H   H22       1.0  0.66318  0.61119  0.86363  1.0000
  H   H23       1.0  0.17390  0.00488  0.64154  1.0000
  H   H24       1.0  0.82610  0.99513  0.35846  1.0000
  H   H25       1.0  0.18329  0.99120  0.00517  1.0000
  H   H26       1.0  0.81671  0.00880  0.99483  1.0000
  C   C1        1.0  0.18068  0.68648  0.84068  1.0000
  C   C2        1.0  0.81932  0.31351  0.15932  1.0000
  C   C3        1.0  0.19974  0.57985  0.78341  1.0000
  C   C4        1.0  0.80026  0.42015  0.21659  1.0000
  C   C5        1.0  0.24749  0.44559  0.81731  1.0000
  C   C6        1.0  0.75251  0.55441  0.18269  1.0000
  C   C7        1.0  0.27516  0.41705  0.90760  1.0000
  C   C8        1.0  0.72483  0.58295  0.09240  1.0000
  C   C9        1.0  0.25136  0.52598  0.96415  1.0000
  C   C10       1.0  0.74864  0.47402  0.03585  1.0000
  C   C11       1.0  0.20556  0.66074  0.93133  1.0000
  C   C12       1.0  0.79444  0.33926  0.06867  1.0000
  C   C13       1.0  0.33594  0.27153  0.94215  1.0000
  C   C14       1.0  0.66406  0.72846  0.05785  1.0000
  C   C15       1.0  0.37814  0.82537  0.30550  1.0000
  C   C16       1.0  0.62186  0.17463  0.69450  1.0000
  C   C17       1.0  0.35025  0.77172  0.39566  1.0000
  C   C18       1.0  0.64975  0.22828  0.60434  1.0000
  C   C19       1.0  0.29855  0.86070  0.46520  1.0000
  C   C20       1.0  0.70145  0.13930  0.53480  1.0000
  C   C21       1.0  0.27665  0.00247  0.44305  1.0000
  C   C22       1.0  0.72335  0.99754  0.55695  1.0000
  C   C23       1.0  0.22275  0.10488  0.50786  1.0000
  C   C24       1.0  0.77726  0.89512  0.49214  1.0000
  C   C25       1.0  0.13902  0.22435  0.62967  1.0000
  C   C26       1.0  0.86099  0.77565  0.37033  1.0000
  C   C27       1.0  0.20242  0.24512  0.48446  1.0000
  C   C28       1.0  0.79760  0.75488  0.51554  1.0000
  C   C29       1.0  0.23554  0.29333  0.39125  1.0000
  C   C30       1.0  0.76448  0.70667  0.60876  1.0000
  C   C31       1.0  0.21081  0.43287  0.36298  1.0000
  C   C32       1.0  0.78921  0.56714  0.63702  1.0000
  C   C33       1.0  0.24802  0.46891  0.27126  1.0000
  C   C34       1.0  0.75199  0.53108  0.72874  1.0000
  C   C35       1.0  0.30738  0.36532  0.20931  1.0000
  C   C36       1.0  0.69262  0.63468  0.79070  1.0000
  C   C37       1.0  0.29283  0.19425  0.32395  1.0000
  C   C38       1.0  0.70718  0.80576  0.67605  1.0000
  C   C39       1.0  0.31149  0.04877  0.34966  1.0000
  C   C40       1.0  0.68851  0.95124  0.65035  1.0000
  S   S1        1.0  0.12742  0.85854  0.79820  1.0000
  S   S2        1.0  0.87258  0.14146  0.20180  1.0000
  N   N1        1.0  0.36118  0.95882  0.28268  1.0000
  N   N2        1.0  0.63882  0.04118  0.71732  1.0000
  N   N3        1.0  0.32790  0.23257  0.23408  1.0000
  N   N4        1.0  0.67210  0.76743  0.76592  1.0000
  N   N5        1.0  0.15027  0.31890  0.56160  1.0000
  N   N6        1.0  0.84974  0.68110  0.43840  1.0000
  N   N7        1.0  0.18194  0.09423  0.60099  1.0000
  N   N8        1.0  0.81806  0.90577  0.39901  1.0000
  O   O1        1.0  0.27837  0.93080  0.82155  1.0000
  O   O2        1.0  0.72163  0.06920  0.17846  1.0000
  O   O3        1.0  0.14144  0.85340  0.69975  1.0000
  O   O4        1.0  0.85856  0.14661  0.30025  1.0000
  O   O5        1.0  0.92588  0.91716  0.84532  1.0000
  O   O6        1.0  0.07412  0.08284  0.15468  1.0000
  O   O7        1.0  0.38921  0.18136  0.88307  1.0000
  O   O8        1.0  0.61079  0.81864  0.11692  1.0000
  O   O9        1.0  0.33121  0.24942  0.02722  1.0000
  O   O10       1.0  0.66879  0.75058  0.97278  1.0000
  O   O11       1.0  0.31788  0.94406  0.01110  1.0000
  O   O12       1.0  0.68212  0.05594  0.98890  1.0000
