data_image0
_chemical_formula_structural       Sm2H26C40S2N8O12
_chemical_formula_sum              "Sm2 H26 C40 S2 N8 O12"
_cell_length_a       6.89881
_cell_length_b       9.98008
_cell_length_c       15.1333
_cell_angle_alpha    84.7063
_cell_angle_beta     79.3673
_cell_angle_gamma    79.9619

_space_group_name_H-M_alt    "P 1"
_space_group_IT_number       1

loop_
  _space_group_symop_operation_xyz
  'x, y, z'

loop_
  _atom_site_type_symbol
  _atom_site_label
  _atom_site_symmetry_multiplicity
  _atom_site_fract_x
  _atom_site_fract_y
  _atom_site_fract_z
  _atom_site_occupancy
  Sm  Sm1       1.0  0.43466  0.04791  0.11532  1.0000
  Sm  Sm2       1.0  0.56534  0.95209  0.88468  1.0000
  H   H1        1.0  0.18318  0.60388  0.71151  1.0000
  H   H2        1.0  0.81682  0.39613  0.28849  1.0000
  H   H3        1.0  0.27126  0.36321  0.77211  1.0000
  H   H4        1.0  0.72874  0.63680  0.22789  1.0000
  H   H5        1.0  0.27165  0.50554  0.03104  1.0000
  H   H6        1.0  0.72836  0.49446  0.96896  1.0000
  H   H7        1.0  0.19360  0.74608  0.97127  1.0000
  H   H8        1.0  0.80640  0.25392  0.02873  1.0000
  H   H9        1.0  0.42075  0.76007  0.25349  1.0000
  H   H10       1.0  0.57925  0.23993  0.74650  1.0000
  H   H11       1.0  0.37168  0.66397  0.41379  1.0000
  H   H12       1.0  0.62832  0.33603  0.58620  1.0000
  H   H13       1.0  0.27404  0.82587  0.53788  1.0000
  H   H14       1.0  0.72595  0.17412  0.46212  1.0000
  H   H15       1.0  0.09997  0.24648  0.69872  1.0000
  H   H16       1.0  0.90003  0.75352  0.30128  1.0000
  H   H17       1.0  0.15505  0.51005  0.41160  1.0000
  H   H18       1.0  0.84494  0.48994  0.58841  1.0000
  H   H19       1.0  0.22706  0.57615  0.24495  1.0000
  H   H20       1.0  0.77293  0.42385  0.75505  1.0000
  H   H21       1.0  0.33246  0.38982  0.13729  1.0000
  H   H22       1.0  0.66752  0.61018  0.86271  1.0000
  H   H23       1.0  0.17124  0.00751  0.64083  1.0000
  H   H24       1.0  0.82876  0.99248  0.35917  1.0000
  H   H25       1.0  0.18118  0.99148  0.00379  1.0000
  H   H26       1.0  0.81882  0.00852  0.99621  1.0000
  C   C1        1.0  0.18218  0.68765  0.83808  1.0000
  C   C2        1.0  0.81782  0.31235  0.16192  1.0000
  C   C3        1.0  0.20302  0.58150  0.78137  1.0000
  C   C4        1.0  0.79698  0.41851  0.21863  1.0000
  C   C5        1.0  0.25172  0.44766  0.81530  1.0000
  C   C6        1.0  0.74829  0.55234  0.18470  1.0000
  C   C7        1.0  0.27830  0.41931  0.90510  1.0000
  C   C8        1.0  0.72171  0.58069  0.09490  1.0000
  C   C9        1.0  0.25261  0.52762  0.96115  1.0000
  C   C10       1.0  0.74739  0.47238  0.03885  1.0000
  C   C11       1.0  0.20579  0.66193  0.92826  1.0000
  C   C12       1.0  0.79422  0.33807  0.07174  1.0000
  C   C13       1.0  0.33913  0.27452  0.94004  1.0000
  C   C14       1.0  0.66088  0.72549  0.05995  1.0000
  C   C15       1.0  0.37768  0.82701  0.30929  1.0000
  C   C16       1.0  0.62232  0.17299  0.69070  1.0000
  C   C17       1.0  0.35014  0.77389  0.39910  1.0000
  C   C18       1.0  0.64987  0.22611  0.60090  1.0000
  C   C19       1.0  0.29795  0.86316  0.46727  1.0000
  C   C20       1.0  0.70205  0.13684  0.53273  1.0000
  C   C21       1.0  0.27551  0.00457  0.44421  1.0000
  C   C22       1.0  0.72450  0.99543  0.55579  1.0000
  C   C23       1.0  0.22169  0.10702  0.50775  1.0000
  C   C24       1.0  0.77831  0.89298  0.49225  1.0000
  C   C25       1.0  0.13826  0.22661  0.62772  1.0000
  C   C26       1.0  0.86174  0.77338  0.37228  1.0000
  C   C27       1.0  0.20174  0.24694  0.48359  1.0000
  C   C28       1.0  0.79827  0.75306  0.51641  1.0000
  C   C29       1.0  0.23436  0.29477  0.39081  1.0000
  C   C30       1.0  0.76565  0.70522  0.60919  1.0000
  C   C31       1.0  0.20944  0.43397  0.36185  1.0000
  C   C32       1.0  0.79056  0.56603  0.63816  1.0000
  C   C33       1.0  0.24540  0.46987  0.27065  1.0000
  C   C34       1.0  0.75458  0.53013  0.72935  1.0000
  C   C35       1.0  0.30399  0.36639  0.20985  1.0000
  C   C36       1.0  0.69600  0.63361  0.79016  1.0000
  C   C37       1.0  0.29089  0.19572  0.32476  1.0000
  C   C38       1.0  0.70911  0.80428  0.67524  1.0000
  C   C39       1.0  0.30975  0.05047  0.35130  1.0000
  C   C40       1.0  0.69025  0.94954  0.64870  1.0000
  S   S1        1.0  0.12731  0.85935  0.79584  1.0000
  S   S2        1.0  0.87269  0.14066  0.20415  1.0000
  N   N1        1.0  0.35924  0.96016  0.28575  1.0000
  N   N2        1.0  0.64076  0.03984  0.71425  1.0000
  N   N3        1.0  0.32510  0.23401  0.23542  1.0000
  N   N4        1.0  0.67490  0.76599  0.76458  1.0000
  N   N5        1.0  0.14983  0.32077  0.55959  1.0000
  N   N6        1.0  0.85018  0.67922  0.44041  1.0000
  N   N7        1.0  0.18070  0.09662  0.60018  1.0000
  N   N8        1.0  0.81931  0.90338  0.39982  1.0000
  O   O1        1.0  0.28056  0.93172  0.81598  1.0000
  O   O2        1.0  0.71944  0.06828  0.18402  1.0000
  O   O3        1.0  0.13364  0.85520  0.69864  1.0000
  O   O4        1.0  0.86636  0.14480  0.30136  1.0000
  O   O5        1.0  0.93065  0.91649  0.84518  1.0000
  O   O6        1.0  0.06934  0.08351  0.15482  1.0000
  O   O7        1.0  0.39426  0.18500  0.88172  1.0000
  O   O8        1.0  0.60574  0.81500  0.11827  1.0000
  O   O9        1.0  0.33252  0.25218  0.02462  1.0000
  O   O10       1.0  0.66748  0.74782  0.97538  1.0000
  O   O11       1.0  0.31350  0.94351  0.01017  1.0000
  O   O12       1.0  0.68650  0.05649  0.98983  1.0000
