data_image0
_chemical_formula_structural       H20Pb2C32N4O4F12
_chemical_formula_sum              "H20 Pb2 C32 N4 O4 F12"
_cell_length_a       8.08365
_cell_length_b       10.1138
_cell_length_c       11.2399
_cell_angle_alpha    99.1886
_cell_angle_beta     100.039
_cell_angle_gamma    108.92

_space_group_name_H-M_alt    "P 1"
_space_group_IT_number       1

loop_
  _space_group_symop_operation_xyz
  'x, y, z'

loop_
  _atom_site_type_symbol
  _atom_site_label
  _atom_site_symmetry_multiplicity
  _atom_site_fract_x
  _atom_site_fract_y
  _atom_site_fract_z
  _atom_site_occupancy
  H   H1        1.0  0.57529  0.19387  0.01482  1.0000
  H   H2        1.0  0.42470  0.80613  0.98518  1.0000
  H   H3        1.0  0.45774  0.00589  0.12962  1.0000
  H   H4        1.0  0.54227  0.99412  0.87039  1.0000
  H   H5        1.0  0.40760  0.08386  0.34042  1.0000
  H   H6        1.0  0.59241  0.91615  0.65958  1.0000
  H   H7        1.0  0.46268  0.34263  0.41954  1.0000
  H   H8        1.0  0.53731  0.65737  0.58045  1.0000
  H   H9        1.0  0.55681  0.58126  0.40053  1.0000
  H   H10       1.0  0.44318  0.41874  0.59947  1.0000
  H   H11       1.0  0.95219  0.82205  0.19086  1.0000
  H   H12       1.0  0.04781  0.17795  0.80914  1.0000
  H   H13       1.0  0.10640  0.96928  0.40556  1.0000
  H   H14       1.0  0.89360  0.03071  0.59444  1.0000
  H   H15       1.0  0.21457  0.84727  0.56635  1.0000
  H   H16       1.0  0.78543  0.15273  0.43365  1.0000
  H   H17       1.0  0.17304  0.58975  0.50085  1.0000
  H   H18       1.0  0.82696  0.41024  0.49916  1.0000
  H   H19       1.0  0.06745  0.37468  0.35351  1.0000
  H   H20       1.0  0.93255  0.62531  0.64648  1.0000
  Pb  Pb1       1.0  0.75582  0.51521  0.02321  1.0000
  Pb  Pb2       1.0  0.24418  0.48479  0.97679  1.0000
  C   C1        1.0  0.54809  0.22219  0.10517  1.0000
  C   C2        1.0  0.45192  0.77781  0.89484  1.0000
  C   C3        1.0  0.48407  0.11794  0.16939  1.0000
  C   C4        1.0  0.51593  0.88207  0.83062  1.0000
  C   C5        1.0  0.45632  0.16192  0.28611  1.0000
  C   C6        1.0  0.54369  0.83808  0.71390  1.0000
  C   C7        1.0  0.48813  0.30598  0.33052  1.0000
  C   C8        1.0  0.51188  0.69402  0.66948  1.0000
  C   C9        1.0  0.55040  0.40730  0.26002  1.0000
  C   C10       1.0  0.44959  0.59270  0.73998  1.0000
  C   C11       1.0  0.57040  0.55473  0.30602  1.0000
  C   C12       1.0  0.42960  0.44527  0.69398  1.0000
  C   C13       1.0  0.58471  0.65883  0.23967  1.0000
  C   C14       1.0  0.41528  0.34117  0.76033  1.0000
  C   C15       1.0  0.57325  0.80065  0.30091  1.0000
  C   C16       1.0  0.42674  0.19936  0.69909  1.0000
  C   C17       1.0  0.00406  0.77437  0.26238  1.0000
  C   C18       1.0  0.99594  0.22563  0.73761  1.0000
  C   C19       1.0  0.08954  0.85630  0.38221  1.0000
  C   C20       1.0  0.91046  0.14370  0.61779  1.0000
  C   C21       1.0  0.14903  0.78821  0.47056  1.0000
  C   C22       1.0  0.85098  0.21179  0.52944  1.0000
  C   C23       1.0  0.12465  0.64440  0.43439  1.0000
  C   C24       1.0  0.87536  0.35560  0.56561  1.0000
  C   C25       1.0  0.03842  0.56632  0.31054  1.0000
  C   C26       1.0  0.96159  0.43369  0.68946  1.0000
  C   C27       1.0  0.02386  0.41836  0.27655  1.0000
  C   C28       1.0  0.97615  0.58165  0.72345  1.0000
  C   C29       1.0  0.97497  0.33137  0.15966  1.0000
  C   C30       1.0  0.02504  0.66863  0.84033  1.0000
  C   C31       1.0  0.99102  0.18331  0.14534  1.0000
  C   C32       1.0  0.00899  0.81669  0.85466  1.0000
  N   N1        1.0  0.58422  0.36281  0.14886  1.0000
  N   N2        1.0  0.41578  0.63720  0.85114  1.0000
  N   N3        1.0  0.97550  0.63361  0.22726  1.0000
  N   N4        1.0  0.02450  0.36638  0.77273  1.0000
  O   O1        1.0  0.59478  0.65335  0.12479  1.0000
  O   O2        1.0  0.40521  0.34666  0.87520  1.0000
  O   O3        1.0  0.92244  0.35709  0.05223  1.0000
  O   O4        1.0  0.07755  0.64291  0.94778  1.0000
  F   F1        1.0  0.41200  0.80989  0.24713  1.0000
  F   F2        1.0  0.58799  0.19011  0.75286  1.0000
  F   F3        1.0  0.58429  0.82051  0.42588  1.0000
  F   F4        1.0  0.41570  0.17949  0.57411  1.0000
  F   F5        1.0  0.70538  0.91664  0.28535  1.0000
  F   F6        1.0  0.29461  0.08337  0.71465  1.0000
  F   F7        1.0  0.11729  0.17652  0.07927  1.0000
  F   F8        1.0  0.88273  0.82348  0.92075  1.0000
  F   F9        1.0  0.04080  0.14786  0.25495  1.0000
  F   F10       1.0  0.95920  0.85213  0.74505  1.0000
  F   F11       1.0  0.83329  0.07631  0.08006  1.0000
  F   F12       1.0  0.16672  0.92369  0.91993  1.0000
