data_image0
_chemical_formula_structural       Cu4H16C20Br4N4Cl4
_chemical_formula_sum              "Cu4 H16 C20 Br4 N4 Cl4"
_cell_length_a       3.82123
_cell_length_b       8.64078
_cell_length_c       20.8354
_cell_angle_alpha    101.892
_cell_angle_beta     89.9999
_cell_angle_gamma    90.0003

_space_group_name_H-M_alt    "P 1"
_space_group_IT_number       1

loop_
  _space_group_symop_operation_xyz
  'x, y, z'

loop_
  _atom_site_type_symbol
  _atom_site_label
  _atom_site_symmetry_multiplicity
  _atom_site_fract_x
  _atom_site_fract_y
  _atom_site_fract_z
  _atom_site_occupancy
  Cu  Cu1       1.0  0.61381  0.81495  0.79174  1.0000
  Cu  Cu2       1.0  0.11382  0.68505  0.70826  1.0000
  Cu  Cu3       1.0  0.38619  0.18505  0.20826  1.0000
  Cu  Cu4       1.0  0.88619  0.31495  0.29174  1.0000
  H   H1        1.0  0.32698  0.96237  0.92242  1.0000
  H   H2        1.0  0.82699  0.53763  0.57758  1.0000
  H   H3        1.0  0.67301  0.03762  0.07758  1.0000
  H   H4        1.0  0.17305  0.46237  0.42242  1.0000
  H   H5        1.0  0.67272  0.41354  0.82585  1.0000
  H   H6        1.0  0.17273  0.08646  0.67414  1.0000
  H   H7        1.0  0.32725  0.58646  0.17414  1.0000
  H   H8        1.0  0.82725  0.91354  0.32586  1.0000
  H   H9        1.0  0.39466  0.46845  0.93697  1.0000
  H   H10       1.0  0.89468  0.03155  0.56303  1.0000
  H   H11       1.0  0.60532  0.53155  0.06303  1.0000
  H   H12       1.0  0.10532  0.96845  0.43697  1.0000
  H   H13       1.0  0.75517  0.13106  0.76704  1.0000
  H   H14       1.0  0.25518  0.36894  0.73296  1.0000
  H   H15       1.0  0.24481  0.86894  0.23296  1.0000
  H   H16       1.0  0.74481  0.63106  0.26704  1.0000
  C   C1        1.0  0.40154  0.06475  0.90245  1.0000
  C   C2        1.0  0.90155  0.43525  0.59755  1.0000
  C   C3        1.0  0.59848  0.93525  0.09755  1.0000
  C   C4        1.0  0.09847  0.56475  0.40245  1.0000
  C   C5        1.0  0.59046  0.31621  0.84838  1.0000
  C   C6        1.0  0.09047  0.18379  0.65163  1.0000
  C   C7        1.0  0.40956  0.68378  0.15163  1.0000
  C   C8        1.0  0.90955  0.81622  0.34838  1.0000
  C   C9        1.0  0.34608  0.21852  0.93764  1.0000
  C   C10       1.0  0.84611  0.28148  0.56236  1.0000
  C   C11       1.0  0.65389  0.78148  0.06235  1.0000
  C   C12       1.0  0.15392  0.71852  0.43765  1.0000
  C   C13       1.0  0.43851  0.34747  0.91054  1.0000
  C   C14       1.0  0.93850  0.15252  0.58946  1.0000
  C   C15       1.0  0.56148  0.65253  0.08945  1.0000
  C   C16       1.0  0.06150  0.84747  0.41054  1.0000
  C   C17       1.0  0.63964  0.16040  0.81589  1.0000
  C   C18       1.0  0.13964  0.33960  0.68411  1.0000
  C   C19       1.0  0.36034  0.83960  0.18411  1.0000
  C   C20       1.0  0.86037  0.66039  0.31589  1.0000
  Br  Br1       1.0  0.10350  0.66524  0.82661  1.0000
  Br  Br2       1.0  0.60350  0.83475  0.67339  1.0000
  Br  Br3       1.0  0.89650  0.33476  0.17339  1.0000
  Br  Br4       1.0  0.39650  0.16524  0.32661  1.0000
  N   N1        1.0  0.54581  0.03600  0.84213  1.0000
  N   N2        1.0  0.04583  0.46400  0.65787  1.0000
  N   N3        1.0  0.45416  0.96400  0.15787  1.0000
  N   N4        1.0  0.95419  0.53600  0.34213  1.0000
  Cl  Cl1       1.0  0.16860  0.24704  0.01558  1.0000
  Cl  Cl2       1.0  0.66862  0.25297  0.48442  1.0000
  Cl  Cl3       1.0  0.83139  0.75297  0.98441  1.0000
  Cl  Cl4       1.0  0.33142  0.74702  0.51558  1.0000
