data_image0
_chemical_formula_structural       Cu4H16C20Br8N4
_chemical_formula_sum              "Cu4 H16 C20 Br8 N4"
_cell_length_a       3.85927
_cell_length_b       8.66619
_cell_length_c       21.013
_cell_angle_alpha    100.866
_cell_angle_beta     90.0005
_cell_angle_gamma    90.0014

_space_group_name_H-M_alt    "P 1"
_space_group_IT_number       1

loop_
  _space_group_symop_operation_xyz
  'x, y, z'

loop_
  _atom_site_type_symbol
  _atom_site_label
  _atom_site_symmetry_multiplicity
  _atom_site_fract_x
  _atom_site_fract_y
  _atom_site_fract_z
  _atom_site_occupancy
  Cu  Cu1       1.0  0.11420  0.81327  0.79089  1.0000
  Cu  Cu2       1.0  0.61419  0.68672  0.70911  1.0000
  Cu  Cu3       1.0  0.88583  0.18673  0.20910  1.0000
  Cu  Cu4       1.0  0.38583  0.31327  0.29089  1.0000
  H   H1        1.0  0.19006  0.40880  0.82186  1.0000
  H   H2        1.0  0.69004  0.09119  0.67814  1.0000
  H   H3        1.0  0.80996  0.59121  0.17814  1.0000
  H   H4        1.0  0.30991  0.90879  0.32186  1.0000
  H   H5        1.0  0.82364  0.95969  0.91847  1.0000
  H   H6        1.0  0.32360  0.54031  0.58154  1.0000
  H   H7        1.0  0.17640  0.04031  0.08153  1.0000
  H   H8        1.0  0.67640  0.45969  0.41846  1.0000
  H   H9        1.0  0.91864  0.46286  0.93179  1.0000
  H   H10       1.0  0.41863  0.03715  0.56820  1.0000
  H   H11       1.0  0.08134  0.53715  0.06821  1.0000
  H   H12       1.0  0.58132  0.96285  0.43180  1.0000
  H   H13       1.0  0.25918  0.12803  0.76443  1.0000
  H   H14       1.0  0.75913  0.37196  0.73557  1.0000
  H   H15       1.0  0.74087  0.87198  0.23557  1.0000
  H   H16       1.0  0.24083  0.62803  0.26443  1.0000
  C   C1        1.0  0.10309  0.31187  0.84431  1.0000
  C   C2        1.0  0.60307  0.18812  0.65569  1.0000
  C   C3        1.0  0.89693  0.68814  0.15569  1.0000
  C   C4        1.0  0.39689  0.81187  0.34431  1.0000
  C   C5        1.0  0.90172  0.06180  0.89855  1.0000
  C   C6        1.0  0.40169  0.43820  0.60146  1.0000
  C   C7        1.0  0.09831  0.93821  0.10145  1.0000
  C   C8        1.0  0.59830  0.56179  0.39854  1.0000
  C   C9        1.0  0.85482  0.21443  0.93291  1.0000
  C   C10       1.0  0.35481  0.28558  0.56709  1.0000
  C   C11       1.0  0.14519  0.78558  0.06708  1.0000
  C   C12       1.0  0.64517  0.71442  0.43292  1.0000
  C   C13       1.0  0.95394  0.34264  0.90589  1.0000
  C   C14       1.0  0.45392  0.15736  0.59410  1.0000
  C   C15       1.0  0.04607  0.65736  0.09411  1.0000
  C   C16       1.0  0.54604  0.84263  0.40590  1.0000
  C   C17       1.0  0.14473  0.15715  0.81262  1.0000
  C   C18       1.0  0.64470  0.34284  0.68739  1.0000
  C   C19       1.0  0.85531  0.84286  0.18738  1.0000
  C   C20       1.0  0.35527  0.65715  0.31262  1.0000
  Br  Br1       1.0  0.60352  0.66668  0.82653  1.0000
  Br  Br2       1.0  0.10353  0.83332  0.67348  1.0000
  Br  Br3       1.0  0.39650  0.33332  0.17347  1.0000
  Br  Br4       1.0  0.89649  0.16668  0.32652  1.0000
  Br  Br5       1.0  0.66496  0.24601  0.01802  1.0000
  Br  Br6       1.0  0.16496  0.25401  0.48198  1.0000
  Br  Br7       1.0  0.33504  0.75399  0.98198  1.0000
  Br  Br8       1.0  0.83501  0.74599  0.51802  1.0000
  N   N1        1.0  0.04545  0.03350  0.83898  1.0000
  N   N2        1.0  0.54541  0.46649  0.66103  1.0000
  N   N3        1.0  0.95459  0.96650  0.16102  1.0000
  N   N4        1.0  0.45458  0.53350  0.33898  1.0000
