data_image0
_chemical_formula_structural       Li4H32C44N4O16
_chemical_formula_sum              "Li4 H32 C44 N4 O16"
_cell_length_a       4.95598
_cell_length_b       14.177
_cell_length_c       14.4484
_cell_angle_alpha    112.514
_cell_angle_beta     90
_cell_angle_gamma    90.0001

_space_group_name_H-M_alt    "P 1"
_space_group_IT_number       1

loop_
  _space_group_symop_operation_xyz
  'x, y, z'

loop_
  _atom_site_type_symbol
  _atom_site_label
  _atom_site_symmetry_multiplicity
  _atom_site_fract_x
  _atom_site_fract_y
  _atom_site_fract_z
  _atom_site_occupancy
  Li  Li1       1.0  0.66832  0.30072  0.06325  1.0000
  Li  Li2       1.0  0.16832  0.19928  0.93675  1.0000
  Li  Li3       1.0  0.33168  0.69928  0.93675  1.0000
  Li  Li4       1.0  0.83168  0.80072  0.06325  1.0000
  H   H1        1.0  0.14383  0.21586  0.15049  1.0000
  H   H2        1.0  0.64383  0.28414  0.84950  1.0000
  H   H3        1.0  0.85617  0.78414  0.84951  1.0000
  H   H4        1.0  0.35617  0.71586  0.15049  1.0000
  H   H5        1.0  0.92709  0.18805  0.23488  1.0000
  H   H6        1.0  0.42709  0.31195  0.76512  1.0000
  H   H7        1.0  0.07291  0.81195  0.76512  1.0000
  H   H8        1.0  0.57291  0.68805  0.23488  1.0000
  H   H9        1.0  0.83287  0.46930  0.26847  1.0000
  H   H10       1.0  0.33287  0.03070  0.73153  1.0000
  H   H11       1.0  0.16713  0.53070  0.73153  1.0000
  H   H12       1.0  0.66713  0.96930  0.26847  1.0000
  H   H13       1.0  0.50936  0.10933  0.18701  1.0000
  H   H14       1.0  0.00936  0.39067  0.81299  1.0000
  H   H15       1.0  0.49064  0.89067  0.81299  1.0000
  H   H16       1.0  0.99064  0.60933  0.18701  1.0000
  H   H17       1.0  0.27771  0.07857  0.26494  1.0000
  H   H18       1.0  0.77771  0.42143  0.73506  1.0000
  H   H19       1.0  0.72229  0.92143  0.73506  1.0000
  H   H20       1.0  0.22229  0.57857  0.26494  1.0000
  H   H21       1.0  0.98983  0.37560  0.58893  1.0000
  H   H22       1.0  0.48983  0.12440  0.41107  1.0000
  H   H23       1.0  0.01017  0.62440  0.41107  1.0000
  H   H24       1.0  0.51017  0.87560  0.58893  1.0000
  H   H25       1.0  0.19109  0.03640  0.04241  1.0000
  H   H26       1.0  0.69109  0.46360  0.95759  1.0000
  H   H27       1.0  0.80891  0.96360  0.95759  1.0000
  H   H28       1.0  0.30891  0.53640  0.04241  1.0000
  H   H29       1.0  0.96425  0.00086  0.11678  1.0000
  H   H30       1.0  0.46425  0.49914  0.88321  1.0000
  H   H31       1.0  0.03575  0.99913  0.88322  1.0000
  H   H32       1.0  0.53575  0.50086  0.11679  1.0000
  C   C1        1.0  0.13788  0.19644  0.21694  1.0000
  C   C2        1.0  0.63788  0.30356  0.78306  1.0000
  C   C3        1.0  0.86213  0.80356  0.78305  1.0000
  C   C4        1.0  0.36212  0.69644  0.21695  1.0000
  C   C5        1.0  0.44911  0.45642  0.46008  1.0000
  C   C6        1.0  0.94911  0.04358  0.53992  1.0000
  C   C7        1.0  0.55089  0.54358  0.53992  1.0000
  C   C8        1.0  0.05089  0.95642  0.46008  1.0000
  C   C9        1.0  0.45720  0.33795  0.28054  1.0000
  C   C10       1.0  0.95719  0.16205  0.71946  1.0000
  C   C11       1.0  0.54280  0.66206  0.71946  1.0000
  C   C12       1.0  0.04280  0.83795  0.28054  1.0000
  C   C13       1.0  0.55595  0.43041  0.36261  1.0000
  C   C14       1.0  0.05595  0.06959  0.63739  1.0000
  C   C15       1.0  0.44405  0.56959  0.63739  1.0000
  C   C16       1.0  0.94405  0.93041  0.36261  1.0000
  C   C17       1.0  0.24391  0.39714  0.47957  1.0000
  C   C18       1.0  0.74390  0.10285  0.52043  1.0000
  C   C19       1.0  0.75610  0.60286  0.52043  1.0000
  C   C20       1.0  0.25610  0.89714  0.47957  1.0000
  C   C21       1.0  0.75556  0.49033  0.34460  1.0000
  C   C22       1.0  0.25556  0.00967  0.65540  1.0000
  C   C23       1.0  0.24444  0.50967  0.65540  1.0000
  C   C24       1.0  0.74444  0.99033  0.34460  1.0000
  C   C25       1.0  0.13072  0.30813  0.39658  1.0000
  C   C26       1.0  0.63072  0.19187  0.60342  1.0000
  C   C27       1.0  0.86928  0.69187  0.60342  1.0000
  C   C28       1.0  0.36928  0.80813  0.39658  1.0000
  C   C29       1.0  0.29461  0.09818  0.19851  1.0000
  C   C30       1.0  0.79461  0.40182  0.80149  1.0000
  C   C31       1.0  0.70539  0.90182  0.80149  1.0000
  C   C32       1.0  0.20539  0.59818  0.19850  1.0000
  C   C33       1.0  0.14537  0.42347  0.57620  1.0000
  C   C34       1.0  0.64537  0.07653  0.42380  1.0000
  C   C35       1.0  0.85463  0.57653  0.42380  1.0000
  C   C36       1.0  0.35463  0.92347  0.57620  1.0000
  C   C37       1.0  0.32356  0.91069  0.07322  1.0000
  C   C38       1.0  0.82356  0.58931  0.92678  1.0000
  C   C39       1.0  0.67644  0.08931  0.92678  1.0000
  C   C40       1.0  0.17644  0.41069  0.07322  1.0000
  C   C41       1.0  0.17952  0.01298  0.10676  1.0000
  C   C42       1.0  0.67952  0.48702  0.89324  1.0000
  C   C43       1.0  0.82048  0.98702  0.89324  1.0000
  C   C44       1.0  0.32048  0.51298  0.10675  1.0000
  N   N1        1.0  0.24514  0.28472  0.30128  1.0000
  N   N2        1.0  0.74513  0.21528  0.69872  1.0000
  N   N3        1.0  0.75486  0.71528  0.69872  1.0000
  N   N4        1.0  0.25487  0.78472  0.30128  1.0000
  O   O1        1.0  0.55551  0.30719  0.19542  1.0000
  O   O2        1.0  0.05550  0.19281  0.80458  1.0000
  O   O3        1.0  0.44449  0.69281  0.80458  1.0000
  O   O4        1.0  0.94450  0.80719  0.19542  1.0000
  O   O5        1.0  0.18645  0.83155  0.02001  1.0000
  O   O6        1.0  0.68645  0.66845  0.97999  1.0000
  O   O7        1.0  0.81355  0.16845  0.98000  1.0000
  O   O8        1.0  0.31355  0.33155  0.02001  1.0000
  O   O9        1.0  0.94331  0.25652  0.40821  1.0000
  O   O10       1.0  0.44330  0.24349  0.59179  1.0000
  O   O11       1.0  0.05669  0.74349  0.59179  1.0000
  O   O12       1.0  0.55670  0.75651  0.40821  1.0000
  O   O13       1.0  0.56910  0.90805  0.09603  1.0000
  O   O14       1.0  0.06910  0.59195  0.90397  1.0000
  O   O15       1.0  0.43091  0.09196  0.90397  1.0000
  O   O16       1.0  0.93090  0.40805  0.09603  1.0000
