data_image0
_chemical_formula_structural       K2H34C44N4O16
_chemical_formula_sum              "K2 H34 C44 N4 O16"
_cell_length_a       4.6197
_cell_length_b       12.5852
_cell_length_c       16.8934
_cell_angle_alpha    93.4181
_cell_angle_beta     92.573
_cell_angle_gamma    91.6149

_space_group_name_H-M_alt    "P 1"
_space_group_IT_number       1

loop_
  _space_group_symop_operation_xyz
  'x, y, z'

loop_
  _atom_site_type_symbol
  _atom_site_label
  _atom_site_symmetry_multiplicity
  _atom_site_fract_x
  _atom_site_fract_y
  _atom_site_fract_z
  _atom_site_occupancy
  K   K1        1.0  0.23635  0.94639  0.41235  1.0000
  K   K2        1.0  0.76365  0.05361  0.58765  1.0000
  H   H1        1.0  0.40468  0.83783  0.59482  1.0000
  H   H2        1.0  0.59532  0.16217  0.40518  1.0000
  H   H3        1.0  0.53784  0.95174  0.07500  1.0000
  H   H4        1.0  0.46216  0.04826  0.92500  1.0000
  H   H5        1.0  0.39171  0.89757  0.20764  1.0000
  H   H6        1.0  0.60829  0.10242  0.79236  1.0000
  H   H7        1.0  0.22225  0.46630  0.17044  1.0000
  H   H8        1.0  0.77775  0.53370  0.82956  1.0000
  H   H9        1.0  0.38339  0.52388  0.04196  1.0000
  H   H10       1.0  0.61662  0.47612  0.95804  1.0000
  H   H11       1.0  0.46297  0.50249  0.36643  1.0000
  H   H12       1.0  0.53703  0.49751  0.63357  1.0000
  H   H13       1.0  0.35727  0.63372  0.39526  1.0000
  H   H14       1.0  0.64273  0.36628  0.60474  1.0000
  H   H15       1.0  0.65642  0.56513  0.50206  1.0000
  H   H16       1.0  0.34358  0.43487  0.49794  1.0000
  H   H17       1.0  0.93215  0.53072  0.43681  1.0000
  H   H18       1.0  0.06785  0.46928  0.56320  1.0000
  H   H19       1.0  0.99987  0.73004  0.41498  1.0000
  H   H20       1.0  0.00012  0.26996  0.58502  1.0000
  H   H21       1.0  0.09819  0.69158  0.51064  1.0000
  H   H22       1.0  0.90181  0.30842  0.48936  1.0000
  H   H23       1.0  0.42941  0.80786  0.85805  1.0000
  H   H24       1.0  0.57059  0.19214  0.14195  1.0000
  H   H25       1.0  0.16418  0.90842  0.85857  1.0000
  H   H26       1.0  0.83581  0.09158  0.14143  1.0000
  H   H27       1.0  0.02494  0.67631  0.80175  1.0000
  H   H28       1.0  0.97506  0.32369  0.19825  1.0000
  H   H29       1.0  0.80319  0.78784  0.78973  1.0000
  H   H30       1.0  0.19681  0.21216  0.21027  1.0000
  H   H31       1.0  0.38650  0.75092  0.71218  1.0000
  H   H32       1.0  0.61350  0.24909  0.28782  1.0000
  H   H33       1.0  0.04480  0.72248  0.66630  1.0000
  H   H34       1.0  0.95520  0.27752  0.33370  1.0000
  C   C1        1.0  0.89984  0.85186  0.97674  1.0000
  C   C2        1.0  0.10017  0.14814  0.02326  1.0000
  C   C3        1.0  0.81853  0.82035  0.05605  1.0000
  C   C4        1.0  0.18147  0.17965  0.94395  1.0000
  C   C5        1.0  0.62712  0.88084  0.09960  1.0000
  C   C6        1.0  0.37289  0.11916  0.90040  1.0000
  C   C7        1.0  0.54256  0.84967  0.17401  1.0000
  C   C8        1.0  0.45744  0.15033  0.82599  1.0000
  C   C9        1.0  0.64553  0.75684  0.20440  1.0000
  C   C10       1.0  0.35448  0.24316  0.79560  1.0000
  C   C11       1.0  0.54432  0.72123  0.28061  1.0000
  C   C12       1.0  0.45568  0.27877  0.71939  1.0000
  C   C13       1.0  0.84642  0.56193  0.26606  1.0000
  C   C14       1.0  0.15358  0.43807  0.73394  1.0000
  C   C15       1.0  0.94618  0.59892  0.19027  1.0000
  C   C16       1.0  0.05382  0.40108  0.80973  1.0000
  C   C17       1.0  0.13988  0.53905  0.14717  1.0000
  C   C18       1.0  0.86012  0.46095  0.85283  1.0000
  C   C19       1.0  0.23061  0.57200  0.07417  1.0000
  C   C20       1.0  0.76939  0.42800  0.92583  1.0000
  C   C21       1.0  0.12729  0.66436  0.04341  1.0000
  C   C22       1.0  0.87272  0.33564  0.95660  1.0000
  C   C23       1.0  0.22649  0.69867  0.96656  1.0000
  C   C24       1.0  0.77351  0.30133  0.03344  1.0000
  C   C25       1.0  0.93041  0.72673  0.08642  1.0000
  C   C26       1.0  0.06959  0.27327  0.91358  1.0000
  C   C27       1.0  0.84082  0.69414  0.16098  1.0000
  C   C28       1.0  0.15918  0.30586  0.83902  1.0000
  C   C29       1.0  0.54106  0.58489  0.38049  1.0000
  C   C30       1.0  0.45894  0.41511  0.61951  1.0000
  C   C31       1.0  0.76720  0.58944  0.44959  1.0000
  C   C32       1.0  0.23280  0.41056  0.55041  1.0000
  C   C33       1.0  0.91137  0.69896  0.46856  1.0000
  C   C34       1.0  0.08863  0.30104  0.53144  1.0000
  C   C35       1.0  0.72134  0.78286  0.50612  1.0000
  C   C36       1.0  0.27866  0.21714  0.49388  1.0000
  C   C37       1.0  0.19766  0.82291  0.86038  1.0000
  C   C38       1.0  0.80234  0.17709  0.13962  1.0000
  C   C39       1.0  0.02799  0.76164  0.79179  1.0000
  C   C40       1.0  0.97201  0.23836  0.20821  1.0000
  C   C41       1.0  0.16005  0.77592  0.71201  1.0000
  C   C42       1.0  0.83995  0.22408  0.28799  1.0000
  C   C43       1.0  0.14519  0.88744  0.68345  1.0000
  C   C44       1.0  0.85480  0.11256  0.31655  1.0000
  N   N1        1.0  0.10720  0.79075  0.93821  1.0000
  N   N2        1.0  0.89281  0.20925  0.06179  1.0000
  N   N3        1.0  0.64942  0.62537  0.30665  1.0000
  N   N4        1.0  0.35058  0.37463  0.69335  1.0000
  O   O1        1.0  0.79215  0.92780  0.94460  1.0000
  O   O2        1.0  0.20785  0.07220  0.05540  1.0000
  O   O3        1.0  0.36881  0.77240  0.31958  1.0000
  O   O4        1.0  0.63119  0.22759  0.68042  1.0000
  O   O5        1.0  0.92734  0.47845  0.29335  1.0000
  O   O6        1.0  0.07266  0.52155  0.70665  1.0000
  O   O7        1.0  0.40715  0.64908  0.92840  1.0000
  O   O8        1.0  0.59286  0.35092  0.07160  1.0000
  O   O9        1.0  0.74223  0.87716  0.48419  1.0000
  O   O10       1.0  0.25776  0.12284  0.51581  1.0000
  O   O11       1.0  0.55516  0.75321  0.56028  1.0000
  O   O12       1.0  0.44484  0.24680  0.43973  1.0000
  O   O13       1.0  0.29097  0.90629  0.61938  1.0000
  O   O14       1.0  0.70903  0.09371  0.38062  1.0000
  O   O15       1.0  0.99982  0.95768  0.71536  1.0000
  O   O16       1.0  0.00017  0.04232  0.28464  1.0000
