data_image0
_chemical_formula_structural       Th2H24C12S4N4O24
_chemical_formula_sum              "Th2 H24 C12 S4 N4 O24"
_cell_length_a       6.8804
_cell_length_b       10.5707
_cell_length_c       10.6898
_cell_angle_alpha    74.2152
_cell_angle_beta     81.9913
_cell_angle_gamma    76.6469

_space_group_name_H-M_alt    "P 1"
_space_group_IT_number       1

loop_
  _space_group_symop_operation_xyz
  'x, y, z'

loop_
  _atom_site_type_symbol
  _atom_site_label
  _atom_site_symmetry_multiplicity
  _atom_site_fract_x
  _atom_site_fract_y
  _atom_site_fract_z
  _atom_site_occupancy
  Th  Th1       1.0  0.25179  0.33608  0.71157  1.0000
  Th  Th2       1.0  0.74821  0.66392  0.28843  1.0000
  H   H1        1.0  0.42481  0.41938  0.36449  1.0000
  H   H2        1.0  0.57519  0.58062  0.63550  1.0000
  H   H3        1.0  0.46423  0.34224  0.16161  1.0000
  H   H4        1.0  0.53578  0.65775  0.83839  1.0000
  H   H5        1.0  0.38788  0.11669  0.17321  1.0000
  H   H6        1.0  0.61211  0.88331  0.82679  1.0000
  H   H7        1.0  0.27056  0.98194  0.38754  1.0000
  H   H8        1.0  0.72943  0.01806  0.61246  1.0000
  H   H9        1.0  0.12796  0.89133  0.73701  1.0000
  H   H10       1.0  0.87204  0.10868  0.26299  1.0000
  H   H11       1.0  0.17374  0.89343  0.57256  1.0000
  H   H12       1.0  0.82626  0.10656  0.42743  1.0000
  H   H13       1.0  0.57337  0.15995  0.91598  1.0000
  H   H14       1.0  0.42663  0.84005  0.08402  1.0000
  H   H15       1.0  0.37340  0.10332  0.94749  1.0000
  H   H16       1.0  0.62660  0.89668  0.05251  1.0000
  H   H17       1.0  0.32408  0.47351  0.92169  1.0000
  H   H18       1.0  0.67592  0.52649  0.07831  1.0000
  H   H19       1.0  0.52940  0.36954  0.89914  1.0000
  H   H20       1.0  0.47061  0.63046  0.10086  1.0000
  H   H21       1.0  0.06623  0.62187  0.77550  1.0000
  H   H22       1.0  0.93378  0.37813  0.22450  1.0000
  H   H23       1.0  0.93360  0.51478  0.84303  1.0000
  H   H24       1.0  0.06640  0.48522  0.15697  1.0000
  C   C1        1.0  0.39050  0.32354  0.36659  1.0000
  C   C2        1.0  0.60950  0.67646  0.63341  1.0000
  C   C3        1.0  0.41301  0.27933  0.25295  1.0000
  C   C4        1.0  0.58699  0.72067  0.74705  1.0000
  C   C5        1.0  0.36927  0.15565  0.25937  1.0000
  C   C6        1.0  0.63073  0.84435  0.74063  1.0000
  C   C7        1.0  0.30450  0.07974  0.37971  1.0000
  C   C8        1.0  0.69550  0.92027  0.62029  1.0000
  C   C9        1.0  0.28520  0.13147  0.48877  1.0000
  C   C10       1.0  0.71480  0.86854  0.51123  1.0000
  C   C11       1.0  0.21716  0.06030  0.62268  1.0000
  C   C12       1.0  0.78282  0.93969  0.37732  1.0000
  S   S1        1.0  0.87279  0.29793  0.00354  1.0000
  S   S2        1.0  0.12720  0.70207  0.99646  1.0000
  S   S3        1.0  0.78115  0.34350  0.55759  1.0000
  S   S4        1.0  0.21885  0.65651  0.44241  1.0000
  N   N1        1.0  0.32769  0.25169  0.48304  1.0000
  N   N2        1.0  0.67231  0.74831  0.51695  1.0000
  N   N3        1.0  0.16538  0.94358  0.64349  1.0000
  N   N4        1.0  0.83462  0.05644  0.35651  1.0000
  O   O1        1.0  0.21318  0.11487  0.71563  1.0000
  O   O2        1.0  0.78681  0.88514  0.28437  1.0000
  O   O3        1.0  0.47056  0.13409  0.87664  1.0000
  O   O4        1.0  0.52944  0.86591  0.12336  1.0000
  O   O5        1.0  0.40680  0.42474  0.85760  1.0000
  O   O6        1.0  0.59320  0.57526  0.14240  1.0000
  O   O7        1.0  0.03148  0.53951  0.76602  1.0000
  O   O8        1.0  0.96853  0.46049  0.23398  1.0000
  O   O9        1.0  0.05484  0.26589  0.91281  1.0000
  O   O10       1.0  0.94517  0.73411  0.08719  1.0000
  O   O11       1.0  0.80165  0.44767  0.97066  1.0000
  O   O12       1.0  0.19835  0.55233  0.02935  1.0000
  O   O13       1.0  0.71091  0.23621  0.98332  1.0000
  O   O14       1.0  0.28909  0.76379  0.01668  1.0000
  O   O15       1.0  0.92894  0.24925  0.13915  1.0000
  O   O16       1.0  0.07106  0.75074  0.86085  1.0000
  O   O17       1.0  0.93361  0.36557  0.63124  1.0000
  O   O18       1.0  0.06638  0.63443  0.36876  1.0000
  O   O19       1.0  0.60521  0.31375  0.65116  1.0000
  O   O20       1.0  0.39479  0.68625  0.34884  1.0000
  O   O21       1.0  0.71378  0.47266  0.45965  1.0000
  O   O22       1.0  0.28621  0.52734  0.54035  1.0000
  O   O23       1.0  0.86095  0.23450  0.49435  1.0000
  O   O24       1.0  0.13905  0.76549  0.50565  1.0000
