data_image0
_chemical_formula_structural       K4H16C28Cl8O10
_chemical_formula_sum              "K4 H16 C28 Cl8 O10"
_cell_length_a       4.26154
_cell_length_b       12.828
_cell_length_c       15.9533
_cell_angle_alpha    93.9559
_cell_angle_beta     97.6752
_cell_angle_gamma    89.9944

_space_group_name_H-M_alt    "P 1"
_space_group_IT_number       1

loop_
  _space_group_symop_operation_xyz
  'x, y, z'

loop_
  _atom_site_type_symbol
  _atom_site_label
  _atom_site_symmetry_multiplicity
  _atom_site_fract_x
  _atom_site_fract_y
  _atom_site_fract_z
  _atom_site_occupancy
  K   K1        1.0  0.75647  0.39461  0.06680  1.0000
  K   K2        1.0  0.69028  0.10536  0.93325  1.0000
  K   K3        1.0  0.24352  0.60539  0.93320  1.0000
  K   K4        1.0  0.30972  0.89464  0.06675  1.0000
  H   H1        1.0  0.48719  0.48330  0.41588  1.0000
  H   H2        1.0  0.07246  0.01678  0.58414  1.0000
  H   H3        1.0  0.51282  0.51670  0.58412  1.0000
  H   H4        1.0  0.92754  0.98322  0.41586  1.0000
  H   H5        1.0  0.94762  0.76955  0.37020  1.0000
  H   H6        1.0  0.57729  0.73020  0.62961  1.0000
  H   H7        1.0  0.05238  0.23045  0.62980  1.0000
  H   H8        1.0  0.42271  0.26980  0.37039  1.0000
  H   H9        1.0  0.67279  0.75662  0.22268  1.0000
  H   H10       1.0  0.45054  0.74320  0.77719  1.0000
  H   H11       1.0  0.32720  0.24338  0.77732  1.0000
  H   H12       1.0  0.54946  0.25680  0.22281  1.0000
  H   H13       1.0  0.18062  0.22335  0.04403  1.0000
  H   H14       1.0  0.13682  0.27651  0.95610  1.0000
  H   H15       1.0  0.81938  0.77665  0.95597  1.0000
  H   H16       1.0  0.86319  0.72349  0.04390  1.0000
  C   C1        1.0  0.43055  0.61257  0.23354  1.0000
  C   C2        1.0  0.19808  0.88741  0.76643  1.0000
  C   C3        1.0  0.56945  0.38743  0.76646  1.0000
  C   C4        1.0  0.80192  0.11259  0.23357  1.0000
  C   C5        1.0  0.38663  0.53568  0.28943  1.0000
  C   C6        1.0  0.09838  0.96436  0.71058  1.0000
  C   C7        1.0  0.61337  0.46432  0.71057  1.0000
  C   C8        1.0  0.90162  0.03564  0.28942  1.0000
  C   C9        1.0  0.53194  0.54279  0.37346  1.0000
  C   C10       1.0  0.15950  0.95724  0.62653  1.0000
  C   C11       1.0  0.46806  0.45720  0.62654  1.0000
  C   C12       1.0  0.84050  0.04276  0.37347  1.0000
  C   C13       1.0  0.73309  0.62728  0.40169  1.0000
  C   C14       1.0  0.33199  0.87267  0.59825  1.0000
  C   C15       1.0  0.26691  0.37272  0.59831  1.0000
  C   C16       1.0  0.66802  0.12733  0.40175  1.0000
  C   C17       1.0  0.78660  0.70477  0.34788  1.0000
  C   C18       1.0  0.43904  0.79509  0.65200  1.0000
  C   C19       1.0  0.21340  0.29523  0.65212  1.0000
  C   C20       1.0  0.56096  0.20491  0.34800  1.0000
  C   C21       1.0  0.63185  0.69682  0.26530  1.0000
  C   C22       1.0  0.36719  0.80308  0.73461  1.0000
  C   C23       1.0  0.36814  0.30317  0.73470  1.0000
  C   C24       1.0  0.63281  0.19692  0.26539  1.0000
  C   C25       1.0  0.27689  0.61187  0.14247  1.0000
  C   C26       1.0  0.13547  0.88813  0.85750  1.0000
  C   C27       1.0  0.72311  0.38813  0.85753  1.0000
  C   C28       1.0  0.86453  0.11187  0.14250  1.0000
  Cl  Cl1       1.0  0.14377  0.42680  0.25870  1.0000
  Cl  Cl2       1.0  0.88633  0.07323  0.74136  1.0000
  Cl  Cl3       1.0  0.85622  0.57320  0.74130  1.0000
  Cl  Cl4       1.0  0.11367  0.92677  0.25864  1.0000
  Cl  Cl5       1.0  0.91982  0.63576  0.50517  1.0000
  Cl  Cl6       1.0  0.41483  0.86415  0.49471  1.0000
  Cl  Cl7       1.0  0.08018  0.36424  0.49483  1.0000
  Cl  Cl8       1.0  0.58517  0.13585  0.50529  1.0000
  O   O1        1.0  0.30035  0.24990  0.00007  1.0000
  O   O2        1.0  0.69965  0.75010  0.99993  1.0000
  O   O3        1.0  0.16757  0.69904  0.11877  1.0000
  O   O4        1.0  0.04948  0.80100  0.88117  1.0000
  O   O5        1.0  0.83243  0.30096  0.88123  1.0000
  O   O6        1.0  0.95052  0.19900  0.11883  1.0000
  O   O7        1.0  0.27376  0.52760  0.09546  1.0000
  O   O8        1.0  0.17962  0.97237  0.90454  1.0000
  O   O9        1.0  0.72623  0.47240  0.90454  1.0000
  O   O10       1.0  0.82039  0.02764  0.09546  1.0000
