data_image0
_chemical_formula_structural       NaCuH18C18S6N6O2
_chemical_formula_sum              "Na1 Cu1 H18 C18 S6 N6 O2"
_cell_length_a       8.52987
_cell_length_b       8.67625
_cell_length_c       8.93075
_cell_angle_alpha    107.206
_cell_angle_beta     94.4511
_cell_angle_gamma    98.0626

_space_group_name_H-M_alt    "P 1"
_space_group_IT_number       1

loop_
  _space_group_symop_operation_xyz
  'x, y, z'

loop_
  _atom_site_type_symbol
  _atom_site_label
  _atom_site_symmetry_multiplicity
  _atom_site_fract_x
  _atom_site_fract_y
  _atom_site_fract_z
  _atom_site_occupancy
  Na  Na1       1.0  0.50001  0.00000  0.50000  1.0000
  Cu  Cu1       1.0  0.50000  1.00000  1.00000  1.0000
  H   H1        1.0  0.70694  0.23102  0.91337  1.0000
  H   H2        1.0  0.29307  0.76902  0.08665  1.0000
  H   H3        1.0  0.90185  0.29238  0.09896  1.0000
  H   H4        1.0  0.09816  0.70764  0.90104  1.0000
  H   H5        1.0  0.07598  0.41435  0.06779  1.0000
  H   H6        1.0  0.92402  0.58566  0.93221  1.0000
  H   H7        1.0  0.07366  0.20386  0.04322  1.0000
  H   H8        1.0  0.92635  0.79616  0.95678  1.0000
  H   H9        1.0  0.98861  0.20328  0.62948  1.0000
  H   H10       1.0  0.01138  0.79669  0.37051  1.0000
  H   H11       1.0  0.13156  0.15576  0.75943  1.0000
  H   H12       1.0  0.86844  0.84422  0.24057  1.0000
  H   H13       1.0  0.12677  0.36416  0.77327  1.0000
  H   H14       1.0  0.87322  0.63582  0.22671  1.0000
  H   H15       1.0  0.84737  0.32281  0.48919  1.0000
  H   H16       1.0  0.15263  0.67719  0.51080  1.0000
  H   H17       1.0  0.46288  0.58601  0.22654  1.0000
  H   H18       1.0  0.53712  0.41398  0.77346  1.0000
  C   C1        1.0  0.55468  0.36389  0.22085  1.0000
  C   C2        1.0  0.44531  0.63608  0.77914  1.0000
  C   C3        1.0  0.64696  0.62214  0.42193  1.0000
  C   C4        1.0  0.35304  0.37785  0.57806  1.0000
  C   C5        1.0  0.75902  0.54708  0.49575  1.0000
  C   C6        1.0  0.24098  0.45293  0.50425  1.0000
  C   C7        1.0  0.54467  0.52846  0.28328  1.0000
  C   C8        1.0  0.45534  0.47152  0.71673  1.0000
  C   C9        1.0  0.66315  0.28911  0.29701  1.0000
  C   C10       1.0  0.33685  0.71089  0.70298  1.0000
  C   C11       1.0  0.76562  0.37932  0.43176  1.0000
  C   C12       1.0  0.23437  0.62068  0.56822  1.0000
  C   C13       1.0  0.77935  0.21610  0.81391  1.0000
  C   C14       1.0  0.22065  0.78392  0.18612  1.0000
  C   C15       1.0  0.99983  0.29304  0.02674  1.0000
  C   C16       1.0  0.00018  0.70698  0.97326  1.0000
  C   C17       1.0  0.05272  0.24303  0.74913  1.0000
  C   C18       1.0  0.94727  0.75695  0.25086  1.0000
  S   S1        1.0  0.43569  0.24393  0.04530  1.0000
  S   S2        1.0  0.56430  0.75605  0.95469  1.0000
  S   S3        1.0  0.66349  0.07873  0.21893  1.0000
  S   S4        1.0  0.33654  0.92128  0.78106  1.0000
  S   S5        1.0  0.79918  0.83023  0.64595  1.0000
  S   S6        1.0  0.20082  0.16977  0.35407  1.0000
  N   N1        1.0  0.85162  0.65388  0.62470  1.0000
  N   N2        1.0  0.14838  0.34612  0.37531  1.0000
  N   N3        1.0  0.65857  0.78453  0.49762  1.0000
  N   N4        1.0  0.34143  0.21548  0.50238  1.0000
  N   N5        1.0  0.93718  0.25101  0.86108  1.0000
  N   N6        1.0  0.06281  0.74900  0.13892  1.0000
  O   O1        1.0  0.71584  0.17035  0.67371  1.0000
  O   O2        1.0  0.28414  0.82967  0.32630  1.0000
