data_image0
_chemical_formula_structural       Na2Cu2H20C32S12N12
_chemical_formula_sum              "Na2 Cu2 H20 C32 S12 N12"
_cell_length_a       8.22942
_cell_length_b       10.0835
_cell_length_c       13.0161
_cell_angle_alpha    90.0003
_cell_angle_beta     103.729
_cell_angle_gamma    90.0004

_space_group_name_H-M_alt    "P 1"
_space_group_IT_number       1

loop_
  _space_group_symop_operation_xyz
  'x, y, z'

loop_
  _atom_site_type_symbol
  _atom_site_label
  _atom_site_symmetry_multiplicity
  _atom_site_fract_x
  _atom_site_fract_y
  _atom_site_fract_z
  _atom_site_occupancy
  Na  Na1       1.0  1.00000  0.00001  0.00000  1.0000
  Na  Na2       1.0  0.49999  0.50000  0.99999  1.0000
  Cu  Cu1       1.0  0.00000  0.50000  0.50000  1.0000
  Cu  Cu2       1.0  0.49999  1.00000  0.50000  1.0000
  H   H1        1.0  0.22647  0.62292  0.19564  1.0000
  H   H2        1.0  0.27352  0.12292  0.80437  1.0000
  H   H3        1.0  0.77353  0.37707  0.80437  1.0000
  H   H4        1.0  0.72647  0.87708  0.19563  1.0000
  H   H5        1.0  0.93666  0.18297  0.20587  1.0000
  H   H6        1.0  0.56335  0.68298  0.79414  1.0000
  H   H7        1.0  0.06335  0.81703  0.79413  1.0000
  H   H8        1.0  0.43665  0.31704  0.20587  1.0000
  H   H9        1.0  0.05784  0.08434  0.61239  1.0000
  H   H10       1.0  0.44217  0.58433  0.38762  1.0000
  H   H11       1.0  0.94216  0.91566  0.38761  1.0000
  H   H12       1.0  0.55785  0.41567  0.61238  1.0000
  H   H13       1.0  0.83715  0.09966  0.56195  1.0000
  H   H14       1.0  0.66286  0.59965  0.43805  1.0000
  H   H15       1.0  0.16285  0.90033  0.43806  1.0000
  H   H16       1.0  0.33716  0.40034  0.56194  1.0000
  H   H17       1.0  0.92709  0.93937  0.59562  1.0000
  H   H18       1.0  0.57293  0.43937  0.40437  1.0000
  H   H19       1.0  0.07291  0.06062  0.40437  1.0000
  H   H20       1.0  0.42710  0.56062  0.59561  1.0000
  C   C1        1.0  0.16481  0.52771  0.19763  1.0000
  C   C2        1.0  0.33520  0.02769  0.80237  1.0000
  C   C3        1.0  0.83520  0.47230  0.80237  1.0000
  C   C4        1.0  0.66479  0.97231  0.19763  1.0000
  C   C5        1.0  0.99851  0.27795  0.20375  1.0000
  C   C6        1.0  0.50149  0.77796  0.79624  1.0000
  C   C7        1.0  0.00150  0.72204  0.79624  1.0000
  C   C8        1.0  0.49851  0.22204  0.20376  1.0000
  C   C9        1.0  0.06623  0.31085  0.11741  1.0000
  C   C10       1.0  0.43378  0.81084  0.88260  1.0000
  C   C11       1.0  0.93378  0.68916  0.88260  1.0000
  C   C12       1.0  0.56622  0.18916  0.11741  1.0000
  C   C13       1.0  0.15183  0.43562  0.11436  1.0000
  C   C14       1.0  0.34818  0.93562  0.88564  1.0000
  C   C15       1.0  0.84818  0.56438  0.88564  1.0000
  C   C16       1.0  0.65182  0.06439  0.11436  1.0000
  C   C17       1.0  0.01413  0.36859  0.28540  1.0000
  C   C18       1.0  0.48586  0.86860  0.71461  1.0000
  C   C19       1.0  0.98587  0.63140  0.71461  1.0000
  C   C20       1.0  0.51413  0.13141  0.28540  1.0000
  C   C21       1.0  0.91431  0.05914  0.72405  1.0000
  C   C22       1.0  0.58569  0.55914  0.27594  1.0000
  C   C23       1.0  0.08569  0.94085  0.27595  1.0000
  C   C24       1.0  0.41432  0.44085  0.72405  1.0000
  C   C25       1.0  0.93533  0.04491  0.61761  1.0000
  C   C26       1.0  0.56467  0.54490  0.38239  1.0000
  C   C27       1.0  0.06467  0.95509  0.38239  1.0000
  C   C28       1.0  0.43534  0.45509  0.61760  1.0000
  C   C29       1.0  0.09578  0.49415  0.28179  1.0000
  C   C30       1.0  0.40422  0.99414  0.71821  1.0000
  C   C31       1.0  0.90423  0.50585  0.71821  1.0000
  C   C32       1.0  0.59577  0.00586  0.28179  1.0000
  S   S1        1.0  0.15747  0.31632  0.95560  1.0000
  S   S2        1.0  0.34252  0.81632  0.04439  1.0000
  S   S3        1.0  0.84253  0.68368  0.04439  1.0000
  S   S4        1.0  0.65747  0.18368  0.95561  1.0000
  S   S5        1.0  0.93505  0.32996  0.39481  1.0000
  S   S6        1.0  0.56494  0.82997  0.60519  1.0000
  S   S7        1.0  0.06496  0.67003  0.60519  1.0000
  S   S8        1.0  0.43505  0.17004  0.39482  1.0000
  S   S9        1.0  0.10702  0.60560  0.38556  1.0000
  S   S10       1.0  0.39297  0.10560  0.61444  1.0000
  S   S11       1.0  0.89299  0.39440  0.61444  1.0000
  S   S12       1.0  0.60700  0.89440  0.38556  1.0000
  N   N1        1.0  0.06238  0.23478  0.03121  1.0000
  N   N2        1.0  0.43760  0.73478  0.96879  1.0000
  N   N3        1.0  0.93761  0.76523  0.96879  1.0000
  N   N4        1.0  0.56239  0.26523  0.03122  1.0000
  N   N5        1.0  0.90161  0.06794  0.81106  1.0000
  N   N6        1.0  0.59838  0.56795  0.18894  1.0000
  N   N7        1.0  0.09839  0.93205  0.18894  1.0000
  N   N8        1.0  0.40162  0.43204  0.81106  1.0000
  N   N9        1.0  0.21121  0.44932  0.02617  1.0000
  N   N10       1.0  0.28878  0.94931  0.97383  1.0000
  N   N11       1.0  0.78879  0.55069  0.97382  1.0000
  N   N12       1.0  0.71121  0.05070  0.02618  1.0000
