data_image0
_chemical_formula_structural       Mn2H22C30N4O10
_chemical_formula_sum              "Mn2 H22 C30 N4 O10"
_cell_length_a       7.90961
_cell_length_b       8.69713
_cell_length_c       10.8086
_cell_angle_alpha    80.0152
_cell_angle_beta     69.4605
_cell_angle_gamma    76.3674

_space_group_name_H-M_alt    "P 1"
_space_group_IT_number       1

loop_
  _space_group_symop_operation_xyz
  'x, y, z'

loop_
  _atom_site_type_symbol
  _atom_site_label
  _atom_site_symmetry_multiplicity
  _atom_site_fract_x
  _atom_site_fract_y
  _atom_site_fract_z
  _atom_site_occupancy
  Mn  Mn1       1.0  0.71110  0.62760  0.77978  1.0000
  Mn  Mn2       1.0  0.28890  0.37239  0.22023  1.0000
  H   H1        1.0  0.55272  0.30159  0.86966  1.0000
  H   H2        1.0  0.44727  0.69841  0.13034  1.0000
  H   H3        1.0  0.49898  0.09352  0.76184  1.0000
  H   H4        1.0  0.50103  0.90648  0.23816  1.0000
  H   H5        1.0  0.58167  0.12324  0.51258  1.0000
  H   H6        1.0  0.41834  0.87675  0.48742  1.0000
  H   H7        1.0  0.72192  0.35039  0.38317  1.0000
  H   H8        1.0  0.27808  0.64960  0.61683  1.0000
  H   H9        1.0  0.85544  0.53435  0.28541  1.0000
  H   H10       1.0  0.14456  0.46565  0.71459  1.0000
  H   H11       1.0  0.97776  0.77908  0.18443  1.0000
  H   H12       1.0  0.02225  0.22091  0.81558  1.0000
  H   H13       1.0  0.98072  0.97230  0.33164  1.0000
  H   H14       1.0  0.01928  0.02770  0.66836  1.0000
  H   H15       1.0  0.87454  0.89819  0.57921  1.0000
  H   H16       1.0  0.12545  0.10181  0.42080  1.0000
  H   H17       1.0  0.29738  0.04277  0.00331  1.0000
  H   H18       1.0  0.70261  0.95722  0.99670  1.0000
  H   H19       1.0  0.66606  0.39188  0.99119  1.0000
  H   H20       1.0  0.33393  0.60813  0.00882  1.0000
  H   H21       1.0  0.83299  0.45246  0.99728  1.0000
  H   H22       1.0  0.16700  0.54753  0.00274  1.0000
  C   C1        1.0  0.58978  0.30867  0.76191  1.0000
  C   C2        1.0  0.41021  0.69133  0.23809  1.0000
  C   C3        1.0  0.55960  0.19307  0.70195  1.0000
  C   C4        1.0  0.44040  0.80693  0.29805  1.0000
  C   C5        1.0  0.60642  0.20851  0.56402  1.0000
  C   C6        1.0  0.39359  0.79148  0.43598  1.0000
  C   C7        1.0  0.68488  0.33711  0.49092  1.0000
  C   C8        1.0  0.31512  0.66289  0.50908  1.0000
  C   C9        1.0  0.71295  0.44837  0.55774  1.0000
  C   C10       1.0  0.28705  0.55163  0.44226  1.0000
  C   C11       1.0  0.79408  0.58880  0.48773  1.0000
  C   C12       1.0  0.20593  0.41120  0.51227  1.0000
  C   C13       1.0  0.85733  0.61789  0.34926  1.0000
  C   C14       1.0  0.14267  0.38211  0.65074  1.0000
  C   C15       1.0  0.92618  0.75609  0.29206  1.0000
  C   C16       1.0  0.07382  0.24391  0.70794  1.0000
  C   C17       1.0  0.93036  0.86216  0.37343  1.0000
  C   C18       1.0  0.06963  0.13784  0.62656  1.0000
  C   C19       1.0  0.87046  0.82277  0.51010  1.0000
  C   C20       1.0  0.12954  0.17722  0.48991  1.0000
  C   C21       1.0  0.98391  0.75048  0.85950  1.0000
  C   C22       1.0  0.01609  0.24953  0.14050  1.0000
  C   C23       1.0  0.34627  0.82548  0.83810  1.0000
  C   C24       1.0  0.65373  0.17452  0.16190  1.0000
  C   C25       1.0  0.99598  0.88327  0.92632  1.0000
  C   C26       1.0  0.00403  0.11673  0.07367  1.0000
  C   C27       1.0  0.16716  0.02251  0.00184  1.0000
  C   C28       1.0  0.83285  0.97749  0.99815  1.0000
  C   C29       1.0  0.16552  0.90768  0.92666  1.0000
  C   C30       1.0  0.83449  0.09233  0.07332  1.0000
  N   N1        1.0  0.66434  0.43387  0.69204  1.0000
  N   N2        1.0  0.33566  0.56613  0.30796  1.0000
  N   N3        1.0  0.80440  0.68959  0.56608  1.0000
  N   N4        1.0  0.19559  0.31041  0.43392  1.0000
  O   O1        1.0  0.38620  0.85244  0.71562  1.0000
  O   O2        1.0  0.61380  0.14759  0.28435  1.0000
  O   O3        1.0  0.45625  0.73457  0.89910  1.0000
  O   O4        1.0  0.54375  0.26544  0.10088  1.0000
  O   O5        1.0  0.86155  0.78211  0.80128  1.0000
  O   O6        1.0  0.13845  0.21789  0.19873  1.0000
  O   O7        1.0  0.08843  0.61731  0.86729  1.0000
  O   O8        1.0  0.91157  0.38269  0.13271  1.0000
  O   O9        1.0  0.75388  0.46403  0.94057  1.0000
  O   O10       1.0  0.24611  0.53598  0.05944  1.0000
