data_image0
_chemical_formula_structural       Nd2H16C24Br12O20
_chemical_formula_sum              "Nd2 H16 C24 Br12 O20"
_cell_length_a       10.0444
_cell_length_b       10.7271
_cell_length_c       10.1754
_cell_angle_alpha    92.0307
_cell_angle_beta     76.9355
_cell_angle_gamma    81.2394

_space_group_name_H-M_alt    "P 1"
_space_group_IT_number       1

loop_
  _space_group_symop_operation_xyz
  'x, y, z'

loop_
  _atom_site_type_symbol
  _atom_site_label
  _atom_site_symmetry_multiplicity
  _atom_site_fract_x
  _atom_site_fract_y
  _atom_site_fract_z
  _atom_site_occupancy
  Nd  Nd1       1.0  0.97662  0.04739  0.76724  1.0000
  Nd  Nd2       1.0  0.02338  0.95262  0.23276  1.0000
  H   H1        1.0  0.17587  0.83053  0.63777  1.0000
  H   H2        1.0  0.82414  0.16947  0.36222  1.0000
  H   H3        1.0  0.28308  0.03023  0.78127  1.0000
  H   H4        1.0  0.71692  0.96977  0.21872  1.0000
  H   H5        1.0  0.07272  0.78232  0.55860  1.0000
  H   H6        1.0  0.92728  0.21768  0.44140  1.0000
  H   H7        1.0  0.17009  0.06650  0.48245  1.0000
  H   H8        1.0  0.82991  0.93351  0.51755  1.0000
  H   H9        1.0  0.22942  0.93700  0.88999  1.0000
  H   H10       1.0  0.77058  0.06301  0.11002  1.0000
  H   H11       1.0  0.67976  0.10149  0.91786  1.0000
  H   H12       1.0  0.32025  0.89851  0.08214  1.0000
  H   H13       1.0  0.74916  0.21597  0.96319  1.0000
  H   H14       1.0  0.25084  0.78403  0.03680  1.0000
  H   H15       1.0  0.14901  0.19998  0.56500  1.0000
  H   H16       1.0  0.85098  0.80003  0.43498  1.0000
  C   C1        1.0  0.53651  0.11683  0.52930  1.0000
  C   C2        1.0  0.46351  0.88314  0.47071  1.0000
  C   C3        1.0  0.81165  0.63196  0.90720  1.0000
  C   C4        1.0  0.18835  0.36804  0.09281  1.0000
  C   C5        1.0  0.56719  0.01462  0.60562  1.0000
  C   C6        1.0  0.43282  0.98535  0.39439  1.0000
  C   C7        1.0  0.90430  0.34087  0.65190  1.0000
  C   C8        1.0  0.09569  0.65913  0.34809  1.0000
  C   C9        1.0  0.94180  0.66622  0.90177  1.0000
  C   C10       1.0  0.05819  0.33378  0.09823  1.0000
  C   C11       1.0  0.05908  0.59235  0.81801  1.0000
  C   C12       1.0  0.94092  0.40766  0.18198  1.0000
  C   C13       1.0  0.95327  0.78547  0.98004  1.0000
  C   C14       1.0  0.04673  0.21454  0.01996  1.0000
  C   C15       1.0  0.80018  0.52697  0.82689  1.0000
  C   C16       1.0  0.19982  0.47303  0.17311  1.0000
  C   C17       1.0  0.04672  0.48994  0.73492  1.0000
  C   C18       1.0  0.95328  0.51008  0.26507  1.0000
  C   C19       1.0  0.64666  0.02793  0.71432  1.0000
  C   C20       1.0  0.35335  0.97206  0.28568  1.0000
  C   C21       1.0  0.91670  0.45582  0.73834  1.0000
  C   C22       1.0  0.08329  0.54419  0.26166  1.0000
  C   C23       1.0  0.52919  0.89829  0.57658  1.0000
  C   C24       1.0  0.47081  0.10168  0.42344  1.0000
  Br  Br1       1.0  0.23702  0.63440  0.81608  1.0000
  Br  Br2       1.0  0.76297  0.36561  0.18391  1.0000
  Br  Br3       1.0  0.62320  0.48026  0.83670  1.0000
  Br  Br4       1.0  0.37679  0.51974  0.16332  1.0000
  Br  Br5       1.0  0.20908  0.39875  0.61721  1.0000
  Br  Br6       1.0  0.79092  0.60126  0.38277  1.0000
  Br  Br7       1.0  0.65474  0.73311  0.02370  1.0000
  Br  Br8       1.0  0.34525  0.26690  0.97631  1.0000
  Br  Br9       1.0  0.58508  0.27430  0.57214  1.0000
  Br  Br10      1.0  0.41495  0.72567  0.42786  1.0000
  Br  Br11      1.0  0.56834  0.76208  0.68303  1.0000
  Br  Br12      1.0  0.43163  0.23791  0.31700  1.0000
  O   O1        1.0  0.75903  0.12370  0.95839  1.0000
  O   O2        1.0  0.24097  0.87630  0.04161  1.0000
  O   O3        1.0  0.77884  0.99471  0.67680  1.0000
  O   O4        1.0  0.22116  0.00528  0.32320  1.0000
  O   O5        1.0  0.95007  0.88590  0.91788  1.0000
  O   O6        1.0  0.04994  0.11410  0.08212  1.0000
  O   O7        1.0  0.86721  0.24721  0.71615  1.0000
  O   O8        1.0  0.13279  0.75280  0.28386  1.0000
  O   O9        1.0  0.96602  0.77837  0.10011  1.0000
  O   O10       1.0  0.03397  0.22164  0.89990  1.0000
  O   O11       1.0  0.21880  0.97034  0.80167  1.0000
  O   O12       1.0  0.78120  0.02967  0.19833  1.0000
  O   O13       1.0  0.57927  0.06933  0.83100  1.0000
  O   O14       1.0  0.42073  0.93066  0.16901  1.0000
  O   O15       1.0  0.08706  0.85746  0.61495  1.0000
  O   O16       1.0  0.91295  0.14254  0.38504  1.0000
  O   O17       1.0  0.93407  0.34518  0.52571  1.0000
  O   O18       1.0  0.06592  0.65482  0.47429  1.0000
  O   O19       1.0  0.14251  0.11041  0.57575  1.0000
  O   O20       1.0  0.85748  0.88960  0.42424  1.0000
