data_image0
_chemical_formula_structural       Pr2H24C40N2O12
_chemical_formula_sum              "Pr2 H24 C40 N2 O12"
_cell_length_a       8.05105
_cell_length_b       9.41679
_cell_length_c       12.0456
_cell_angle_alpha    92.6455
_cell_angle_beta     93.138
_cell_angle_gamma    108.43

_space_group_name_H-M_alt    "P 1"
_space_group_IT_number       1

loop_
  _space_group_symop_operation_xyz
  'x, y, z'

loop_
  _atom_site_type_symbol
  _atom_site_label
  _atom_site_symmetry_multiplicity
  _atom_site_fract_x
  _atom_site_fract_y
  _atom_site_fract_z
  _atom_site_occupancy
  Pr  Pr1       1.0  0.26485  0.56187  0.44072  1.0000
  Pr  Pr2       1.0  0.73515  0.43812  0.55928  1.0000
  H   H1        1.0  0.83030  0.07476  0.39310  1.0000
  H   H2        1.0  0.16969  0.92524  0.60690  1.0000
  H   H3        1.0  0.60291  0.85013  0.29818  1.0000
  H   H4        1.0  0.39708  0.14988  0.70182  1.0000
  H   H5        1.0  0.42701  0.88203  0.12970  1.0000
  H   H6        1.0  0.57299  0.11797  0.87029  1.0000
  H   H7        1.0  0.47679  0.13456  0.05996  1.0000
  H   H8        1.0  0.52322  0.86544  0.94003  1.0000
  H   H9        1.0  0.81395  0.30655  0.99264  1.0000
  H   H10       1.0  0.18605  0.69345  0.00736  1.0000
  H   H11       1.0  0.83898  0.52368  0.87802  1.0000
  H   H12       1.0  0.16102  0.47632  0.12197  1.0000
  H   H13       1.0  0.73284  0.73077  0.94828  1.0000
  H   H14       1.0  0.26716  0.26923  0.05172  1.0000
  H   H15       1.0  0.61499  0.72087  0.13569  1.0000
  H   H16       1.0  0.38502  0.27913  0.86431  1.0000
  H   H17       1.0  0.37662  0.93617  0.46452  1.0000
  H   H18       1.0  0.62338  0.06383  0.53548  1.0000
  H   H19       1.0  0.03059  0.67327  0.21253  1.0000
  H   H20       1.0  0.96941  0.32673  0.78747  1.0000
  H   H21       1.0  0.96602  0.89592  0.13983  1.0000
  H   H22       1.0  0.03398  0.10408  0.86017  1.0000
  H   H23       1.0  0.11431  0.15142  0.23982  1.0000
  H   H24       1.0  0.88569  0.84858  0.76018  1.0000
  C   C1        1.0  0.92694  0.35370  0.33830  1.0000
  C   C2        1.0  0.07307  0.64630  0.66170  1.0000
  C   C3        1.0  0.78242  0.22862  0.27938  1.0000
  C   C4        1.0  0.21757  0.77138  0.72062  1.0000
  C   C5        1.0  0.75139  0.08589  0.31964  1.0000
  C   C6        1.0  0.24860  0.91411  0.68036  1.0000
  C   C7        1.0  0.62593  0.96052  0.26601  1.0000
  C   C8        1.0  0.37407  0.03949  0.73399  1.0000
  C   C9        1.0  0.52786  0.97871  0.17177  1.0000
  C   C10       1.0  0.47214  0.02129  0.82823  1.0000
  C   C11       1.0  0.55580  0.12090  0.13261  1.0000
  C   C12       1.0  0.44420  0.87910  0.86739  1.0000
  C   C13       1.0  0.68372  0.24847  0.18468  1.0000
  C   C14       1.0  0.31628  0.75153  0.81532  1.0000
  C   C15       1.0  0.70990  0.39312  0.13122  1.0000
  C   C16       1.0  0.29011  0.60689  0.86878  1.0000
  C   C17       1.0  0.77250  0.39945  0.02437  1.0000
  C   C18       1.0  0.22750  0.60055  0.97563  1.0000
  C   C19       1.0  0.78607  0.52077  0.95952  1.0000
  C   C20       1.0  0.21394  0.47923  0.04048  1.0000
  C   C21       1.0  0.72891  0.63737  0.99959  1.0000
  C   C22       1.0  0.27110  0.36263  0.00041  1.0000
  C   C23       1.0  0.66348  0.63231  0.10436  1.0000
  C   C24       1.0  0.33652  0.36769  0.89564  1.0000
  C   C25       1.0  0.65790  0.51437  0.17285  1.0000
  C   C26       1.0  0.34210  0.48563  0.82715  1.0000
  C   C27       1.0  0.59508  0.52723  0.28696  1.0000
  C   C28       1.0  0.40492  0.47277  0.71304  1.0000
  C   C29       1.0  0.35016  0.21043  0.42221  1.0000
  C   C30       1.0  0.64984  0.78957  0.57779  1.0000
  C   C31       1.0  0.25608  0.06231  0.36013  1.0000
  C   C32       1.0  0.74392  0.93768  0.63987  1.0000
  C   C33       1.0  0.28527  0.93166  0.39347  1.0000
  C   C34       1.0  0.71473  0.06834  0.60653  1.0000
  C   C35       1.0  0.09388  0.78551  0.25209  1.0000
  C   C36       1.0  0.90612  0.21448  0.74791  1.0000
  C   C37       1.0  0.05851  0.91047  0.21216  1.0000
  C   C38       1.0  0.94149  0.08953  0.78785  1.0000
  C   C39       1.0  0.13946  0.05091  0.26730  1.0000
  C   C40       1.0  0.86054  0.94909  0.73270  1.0000
  N   N1        1.0  0.20547  0.79532  0.34197  1.0000
  N   N2        1.0  0.79453  0.20468  0.65803  1.0000
  O   O1        1.0  0.94613  0.35617  0.44572  1.0000
  O   O2        1.0  0.05387  0.64383  0.55428  1.0000
  O   O3        1.0  0.03396  0.44972  0.28414  1.0000
  O   O4        1.0  0.96605  0.55027  0.71586  1.0000
  O   O5        1.0  0.67157  0.48640  0.36914  1.0000
  O   O6        1.0  0.32843  0.51360  0.63086  1.0000
  O   O7        1.0  0.47173  0.58392  0.29593  1.0000
  O   O8        1.0  0.52827  0.41608  0.70407  1.0000
  O   O9        1.0  0.28946  0.31701  0.40547  1.0000
  O   O10       1.0  0.71054  0.68299  0.59453  1.0000
  O   O11       1.0  0.48416  0.21979  0.48682  1.0000
  O   O12       1.0  0.51585  0.78021  0.51318  1.0000
