data_image0
_chemical_formula_structural       Mn2H8C8N6O10
_chemical_formula_sum              "Mn2 H8 C8 N6 O10"
_cell_length_a       6.90484
_cell_length_b       7.31502
_cell_length_c       9.04189
_cell_angle_alpha    99.1152
_cell_angle_beta     99.0755
_cell_angle_gamma    112.089

_space_group_name_H-M_alt    "P 1"
_space_group_IT_number       1

loop_
  _space_group_symop_operation_xyz
  'x, y, z'

loop_
  _atom_site_type_symbol
  _atom_site_label
  _atom_site_symmetry_multiplicity
  _atom_site_fract_x
  _atom_site_fract_y
  _atom_site_fract_z
  _atom_site_occupancy
  Mn  Mn1       1.0  0.74492  0.97965  0.77212  1.0000
  Mn  Mn2       1.0  0.25508  0.02035  0.22788  1.0000
  H   H1        1.0  0.80624  0.70762  0.45276  1.0000
  H   H2        1.0  0.19376  0.29237  0.54724  1.0000
  H   H3        1.0  0.12644  0.46738  0.75832  1.0000
  H   H4        1.0  0.87355  0.53261  0.24168  1.0000
  H   H5        1.0  0.01989  0.27741  0.00770  1.0000
  H   H6        1.0  0.98011  0.72259  0.99230  1.0000
  H   H7        1.0  0.17677  0.20723  0.93586  1.0000
  H   H8        1.0  0.82324  0.79278  0.06414  1.0000
  C   C1        1.0  0.87800  0.67879  0.55685  1.0000
  C   C2        1.0  0.12200  0.32121  0.44315  1.0000
  C   C3        1.0  0.04726  0.55724  0.71399  1.0000
  C   C4        1.0  0.95274  0.44275  0.28601  1.0000
  C   C5        1.0  0.40233  0.90473  0.50371  1.0000
  C   C6        1.0  0.59766  0.09527  0.49629  1.0000
  C   C7        1.0  0.51989  0.91211  0.02816  1.0000
  C   C8        1.0  0.48012  0.08790  0.97185  1.0000
  N   N1        1.0  0.88034  0.75680  0.69919  1.0000
  N   N2        1.0  0.11966  0.24320  0.30081  1.0000
  N   N3        1.0  0.98727  0.68027  0.79788  1.0000
  N   N4        1.0  0.01273  0.31973  0.20212  1.0000
  N   N5        1.0  0.98138  0.55263  0.56184  1.0000
  N   N6        1.0  0.01862  0.44737  0.43816  1.0000
  O   O1        1.0  0.43664  0.80091  0.59592  1.0000
  O   O2        1.0  0.56335  0.19909  0.40408  1.0000
  O   O3        1.0  0.22274  0.86867  0.41585  1.0000
  O   O4        1.0  0.77726  0.13132  0.58415  1.0000
  O   O5        1.0  0.63655  0.84438  0.95985  1.0000
  O   O6        1.0  0.36346  0.15563  0.04016  1.0000
  O   O7        1.0  0.43710  0.84999  0.13470  1.0000
  O   O8        1.0  0.56291  0.15003  0.86530  1.0000
  O   O9        1.0  0.04366  0.23006  0.90422  1.0000
  O   O10       1.0  0.95634  0.76994  0.09578  1.0000
