data_image0
_chemical_formula_structural       Cd6H40C20Cl12O10
_chemical_formula_sum              "Cd6 H40 C20 Cl12 O10"
_cell_length_a       7.16903
_cell_length_b       10.3521
_cell_length_c       14.0684
_cell_angle_alpha    89.9998
_cell_angle_beta     90.0002
_cell_angle_gamma    103.693

_space_group_name_H-M_alt    "P 1"
_space_group_IT_number       1

loop_
  _space_group_symop_operation_xyz
  'x, y, z'

loop_
  _atom_site_type_symbol
  _atom_site_label
  _atom_site_symmetry_multiplicity
  _atom_site_fract_x
  _atom_site_fract_y
  _atom_site_fract_z
  _atom_site_occupancy
  Cd  Cd1       1.0  0.96717  0.66200  0.74997  1.0000
  Cd  Cd2       1.0  0.03283  0.33800  0.24997  1.0000
  Cd  Cd3       1.0  0.51176  0.80441  0.77486  1.0000
  Cd  Cd4       1.0  0.48824  0.19559  0.27486  1.0000
  Cd  Cd5       1.0  0.74124  0.23567  0.76656  1.0000
  Cd  Cd6       1.0  0.25877  0.76433  0.26656  1.0000
  H   H1        1.0  0.73005  0.41130  0.03119  1.0000
  H   H2        1.0  0.26995  0.58870  0.53119  1.0000
  H   H3        1.0  0.86235  0.50299  0.93491  1.0000
  H   H4        1.0  0.13765  0.49701  0.43491  1.0000
  H   H5        1.0  0.51314  0.50068  0.92440  1.0000
  H   H6        1.0  0.48686  0.49931  0.42440  1.0000
  H   H7        1.0  0.45374  0.32218  0.92413  1.0000
  H   H8        1.0  0.54626  0.67782  0.42413  1.0000
  H   H9        1.0  0.30445  0.33161  0.77482  1.0000
  H   H10       1.0  0.69555  0.66838  0.27482  1.0000
  H   H11       1.0  0.39269  0.49972  0.73856  1.0000
  H   H12       1.0  0.60730  0.50028  0.23856  1.0000
  H   H13       1.0  0.59594  0.42218  0.61317  1.0000
  H   H14       1.0  0.40406  0.57782  0.11317  1.0000
  H   H15       1.0  0.34240  0.35438  0.59930  1.0000
  H   H16       1.0  0.65760  0.64562  0.09931  1.0000
  H   H17       1.0  0.43595  0.05160  0.57635  1.0000
  H   H18       1.0  0.56405  0.94840  0.07635  1.0000
  H   H19       1.0  0.48218  0.20006  0.50650  1.0000
  H   H20       1.0  0.51782  0.79994  0.00650  1.0000
  H   H21       1.0  0.83047  0.24521  0.54485  1.0000
  H   H22       1.0  0.16953  0.75479  0.04486  1.0000
  H   H23       1.0  0.74706  0.08153  0.49702  1.0000
  H   H24       1.0  0.25294  0.91847  0.99702  1.0000
  H   H25       1.0  0.01645  0.00420  0.60251  1.0000
  H   H26       1.0  0.98355  0.99580  0.10251  1.0000
  H   H27       1.0  0.08228  0.18119  0.61836  1.0000
  H   H28       1.0  0.91772  0.81882  0.11836  1.0000
  H   H29       1.0  0.19939  0.05599  0.75049  1.0000
  H   H30       1.0  0.80061  0.94401  0.25049  1.0000
  H   H31       1.0  0.95636  0.97454  0.77837  1.0000
  H   H32       1.0  0.04364  0.02546  0.27837  1.0000
  H   H33       1.0  0.93603  0.07838  0.92968  1.0000
  H   H34       1.0  0.06398  0.92162  0.42968  1.0000
  H   H35       1.0  0.18785  0.15691  0.92564  1.0000
  H   H36       1.0  0.81216  0.84309  0.42564  1.0000
  H   H37       1.0  0.10558  0.38208  0.92052  1.0000
  H   H38       1.0  0.89442  0.61792  0.42052  1.0000
  H   H39       1.0  0.02093  0.28927  0.02607  1.0000
  H   H40       1.0  0.97908  0.71073  0.52607  1.0000
  C   C1        1.0  0.75131  0.41339  0.95362  1.0000
  C   C2        1.0  0.24869  0.58661  0.45362  1.0000
  C   C3        1.0  0.56330  0.41206  0.90417  1.0000
  C   C4        1.0  0.43670  0.58794  0.40417  1.0000
  C   C5        1.0  0.42758  0.40240  0.74321  1.0000
  C   C6        1.0  0.57241  0.59760  0.24321  1.0000
  C   C7        1.0  0.46795  0.35618  0.64484  1.0000
  C   C8        1.0  0.53205  0.64382  0.14484  1.0000
  C   C9        1.0  0.52774  0.15242  0.56918  1.0000
  C   C10       1.0  0.47226  0.84758  0.06918  1.0000
  C   C11       1.0  0.73606  0.14633  0.55776  1.0000
  C   C12       1.0  0.26394  0.85368  0.05776  1.0000
  C   C13       1.0  0.99463  0.08702  0.64669  1.0000
  C   C14       1.0  0.00537  0.91299  0.14669  1.0000
  C   C15       1.0  0.04990  0.06516  0.74817  1.0000
  C   C16       1.0  0.95010  0.93484  0.24817  1.0000
  C   C17       1.0  0.04343  0.16701  0.90552  1.0000
  C   C18       1.0  0.95657  0.83299  0.40552  1.0000
  C   C19       1.0  0.00558  0.29239  0.94857  1.0000
  C   C20       1.0  0.99442  0.70761  0.44857  1.0000
  Cl  Cl1       1.0  0.97308  0.43968  0.67412  1.0000
  Cl  Cl2       1.0  0.02692  0.56032  0.17412  1.0000
  Cl  Cl3       1.0  0.79866  0.75831  0.88421  1.0000
  Cl  Cl4       1.0  0.20134  0.24168  0.38421  1.0000
  Cl  Cl5       1.0  0.23578  0.81926  0.65535  1.0000
  Cl  Cl6       1.0  0.76421  0.18074  0.15535  1.0000
  Cl  Cl7       1.0  0.24905  0.64352  0.87105  1.0000
  Cl  Cl8       1.0  0.75095  0.35648  0.37105  1.0000
  Cl  Cl9       1.0  0.69064  0.71803  0.64206  1.0000
  Cl  Cl10      1.0  0.30936  0.28197  0.14206  1.0000
  Cl  Cl11      1.0  0.52399  0.02792  0.85174  1.0000
  Cl  Cl12      1.0  0.47601  0.97208  0.35174  1.0000
  O   O1        1.0  0.81142  0.29610  0.92469  1.0000
  O   O2        1.0  0.18858  0.70390  0.42469  1.0000
  O   O3        1.0  0.59604  0.41239  0.80259  1.0000
  O   O4        1.0  0.40396  0.58761  0.30259  1.0000
  O   O5        1.0  0.49545  0.22264  0.65482  1.0000
  O   O6        1.0  0.50455  0.77736  0.15482  1.0000
  O   O7        1.0  0.79464  0.09132  0.64445  1.0000
  O   O8        1.0  0.20536  0.90869  0.14445  1.0000
  O   O9        1.0  0.03140  0.17930  0.80358  1.0000
  O   O10       1.0  0.96860  0.82071  0.30358  1.0000
