data_image0
_chemical_formula_structural       Zn2H12C8N16
_chemical_formula_sum              "Zn2 H12 C8 N16"
_cell_length_a       9.48951
_cell_length_b       9.48943
_cell_length_c       9.58149
_cell_angle_alpha    115.478
_cell_angle_beta     115.479
_cell_angle_gamma    90.6686

_space_group_name_H-M_alt    "P 1"
_space_group_IT_number       1

loop_
  _space_group_symop_operation_xyz
  'x, y, z'

loop_
  _atom_site_type_symbol
  _atom_site_label
  _atom_site_symmetry_multiplicity
  _atom_site_fract_x
  _atom_site_fract_y
  _atom_site_fract_z
  _atom_site_occupancy
  Zn  Zn1       1.0  0.47930  0.19598  0.12157  1.0000
  Zn  Zn2       1.0  0.19598  0.47930  0.62157  1.0000
  H   H1        1.0  0.63407  0.34743  0.53840  1.0000
  H   H2        1.0  0.34742  0.63407  0.03841  1.0000
  H   H3        1.0  0.52535  0.30570  0.63416  1.0000
  H   H4        1.0  0.30569  0.52536  0.13417  1.0000
  H   H5        1.0  0.57806  0.50547  0.67699  1.0000
  H   H6        1.0  0.50546  0.57807  0.17700  1.0000
  H   H7        1.0  0.13950  0.00986  0.91434  1.0000
  H   H8        1.0  0.00986  0.13949  0.41435  1.0000
  H   H9        1.0  0.06461  0.81163  0.86451  1.0000
  H   H10       1.0  0.81164  0.06461  0.36452  1.0000
  H   H11       1.0  0.05704  0.84504  0.69478  1.0000
  H   H12       1.0  0.84505  0.05703  0.19479  1.0000
  C   C1        1.0  0.54023  0.37842  0.57573  1.0000
  C   C2        1.0  0.37842  0.54024  0.07575  1.0000
  C   C3        1.0  0.29099  0.84906  0.87276  1.0000
  C   C4        1.0  0.84906  0.29098  0.37276  1.0000
  C   C5        1.0  0.38531  0.34758  0.41981  1.0000
  C   C6        1.0  0.34758  0.38530  0.91980  1.0000
  C   C7        1.0  0.12999  0.88201  0.83542  1.0000
  C   C8        1.0  0.88201  0.12999  0.33543  1.0000
  N   N1        1.0  0.32099  0.70609  0.79379  1.0000
  N   N2        1.0  0.70609  0.32099  0.29379  1.0000
  N   N3        1.0  0.43331  0.95691  0.99087  1.0000
  N   N4        1.0  0.95692  0.43332  0.49086  1.0000
  N   N5        1.0  0.35240  0.27571  0.25047  1.0000
  N   N6        1.0  0.27572  0.35241  0.75049  1.0000
  N   N7        1.0  0.25111  0.38565  0.42500  1.0000
  N   N8        1.0  0.38565  0.25112  0.92501  1.0000
  N   N9        1.0  0.13483  0.33572  0.25631  1.0000
  N   N10       1.0  0.33573  0.13483  0.75632  1.0000
  N   N11       1.0  0.48405  0.72856  0.86466  1.0000
  N   N12       1.0  0.72857  0.48405  0.36466  1.0000
  N   N13       1.0  0.19524  0.27036  0.15188  1.0000
  N   N14       1.0  0.27036  0.19524  0.65190  1.0000
  N   N15       1.0  0.55081  0.87842  0.98179  1.0000
  N   N16       1.0  0.87842  0.55081  0.48179  1.0000
