data_image0
_chemical_formula_structural       Zn2H12C8N16
_chemical_formula_sum              "Zn2 H12 C8 N16"
_cell_length_a       9.33288
_cell_length_b       9.5351
_cell_length_c       9.53513
_cell_angle_alpha    92.9808
_cell_angle_beta     114.147
_cell_angle_gamma    114.147

_space_group_name_H-M_alt    "P 1"
_space_group_IT_number       1

loop_
  _space_group_symop_operation_xyz
  'x, y, z'

loop_
  _atom_site_type_symbol
  _atom_site_label
  _atom_site_symmetry_multiplicity
  _atom_site_fract_x
  _atom_site_fract_y
  _atom_site_fract_z
  _atom_site_occupancy
  Zn  Zn1       1.0  0.60326  0.42814  0.14006  1.0000
  Zn  Zn2       1.0  0.10326  0.14006  0.42814  1.0000
  H   H1        1.0  0.88903  0.95647  0.08851  1.0000
  H   H2        1.0  0.38903  0.08851  0.95647  1.0000
  H   H3        1.0  0.66455  0.80387  0.01444  1.0000
  H   H4        1.0  0.16455  0.01444  0.80387  1.0000
  H   H5        1.0  0.82190  0.75588  0.99956  1.0000
  H   H6        1.0  0.32190  0.99956  0.75588  1.0000
  H   H7        1.0  0.68571  0.41212  0.48047  1.0000
  H   H8        1.0  0.18571  0.48047  0.41213  1.0000
  H   H9        1.0  0.56297  0.23430  0.52218  1.0000
  H   H10       1.0  0.06297  0.52218  0.23430  1.0000
  H   H11       1.0  0.56380  0.41503  0.58166  1.0000
  H   H12       1.0  0.06380  0.58166  0.41503  1.0000
  C   C1        1.0  0.84943  0.79674  0.23383  1.0000
  C   C2        1.0  0.34943  0.23383  0.79674  1.0000
  C   C3        1.0  0.40439  0.30134  0.33328  1.0000
  C   C4        1.0  0.90439  0.33329  0.30135  1.0000
  C   C5        1.0  0.80484  0.83111  0.07597  1.0000
  C   C6        1.0  0.30484  0.07597  0.83111  1.0000
  C   C7        1.0  0.56346  0.34267  0.48800  1.0000
  C   C8        1.0  0.06346  0.48800  0.34268  1.0000
  N   N1        1.0  0.97065  0.90371  0.37572  1.0000
  N   N2        1.0  0.47065  0.37572  0.90371  1.0000
  N   N3        1.0  0.77565  0.65471  0.26184  1.0000
  N   N4        1.0  0.27565  0.26184  0.65470  1.0000
  N   N5        1.0  0.13111  0.21011  0.14595  1.0000
  N   N6        1.0  0.63111  0.14595  0.21011  1.0000
  N   N7        1.0  0.40684  0.33872  0.20014  1.0000
  N   N8        1.0  0.90684  0.20014  0.33872  1.0000
  N   N9        1.0  0.23480  0.28006  0.08552  1.0000
  N   N10       1.0  0.73480  0.08552  0.28006  1.0000
  N   N11       1.0  0.96871  0.82577  0.49092  1.0000
  N   N12       1.0  0.46872  0.49092  0.82577  1.0000
  N   N13       1.0  0.23328  0.22120  0.30134  1.0000
  N   N14       1.0  0.73328  0.30134  0.22120  1.0000
  N   N15       1.0  0.85263  0.67700  0.42311  1.0000
  N   N16       1.0  0.35263  0.42311  0.67700  1.0000
