data_image0
_chemical_formula_structural       Mn2H8C8O12
_chemical_formula_sum              "Mn2 H8 C8 O12"
_cell_length_a       7.16681
_cell_length_b       7.56502
_cell_length_c       7.81431
_cell_angle_alpha    91.2395
_cell_angle_beta     117.313
_cell_angle_gamma    118.29

_space_group_name_H-M_alt    "P 1"
_space_group_IT_number       1

loop_
  _space_group_symop_operation_xyz
  'x, y, z'

loop_
  _atom_site_type_symbol
  _atom_site_label
  _atom_site_symmetry_multiplicity
  _atom_site_fract_x
  _atom_site_fract_y
  _atom_site_fract_z
  _atom_site_occupancy
  Mn  Mn1       1.0  0.50000  0.00000  0.50001  1.0000
  Mn  Mn2       1.0  0.50000  0.50000  1.00000  1.0000
  H   H1        1.0  0.73743  0.40462  0.44624  1.0000
  H   H2        1.0  0.38672  0.09546  0.05374  1.0000
  H   H3        1.0  0.26258  0.59539  0.55376  1.0000
  H   H4        1.0  0.61327  0.90453  0.94625  1.0000
  H   H5        1.0  0.91670  0.36575  0.64111  1.0000
  H   H6        1.0  0.40990  0.13448  0.85892  1.0000
  H   H7        1.0  0.08330  0.63425  0.35889  1.0000
  H   H8        1.0  0.59010  0.86551  0.14108  1.0000
  C   C1        1.0  0.03439  0.77018  0.05026  1.0000
  C   C2        1.0  0.71410  0.72971  0.44976  1.0000
  C   C3        1.0  0.96561  0.22982  0.94974  1.0000
  C   C4        1.0  0.28590  0.27029  0.55023  1.0000
  C   C5        1.0  0.92816  0.75446  0.83881  1.0000
  C   C6        1.0  0.83519  0.74569  0.66124  1.0000
  C   C7        1.0  0.07184  0.24553  0.16117  1.0000
  C   C8        1.0  0.16483  0.25432  0.33877  1.0000
  O   O1        1.0  0.76519  0.29680  0.50306  1.0000
  O   O2        1.0  0.46550  0.20335  0.99700  1.0000
  O   O3        1.0  0.23480  0.70321  0.49694  1.0000
  O   O4        1.0  0.53450  0.79665  0.00299  1.0000
  O   O5        1.0  0.26040  0.92405  0.17147  1.0000
  O   O6        1.0  0.66486  0.57574  0.32869  1.0000
  O   O7        1.0  0.73960  0.07595  0.82854  1.0000
  O   O8        1.0  0.33515  0.42427  0.67132  1.0000
  O   O9        1.0  0.89766  0.63278  0.10159  1.0000
  O   O10       1.0  0.66363  0.86715  0.39842  1.0000
  O   O11       1.0  0.10233  0.36721  0.89840  1.0000
  O   O12       1.0  0.33637  0.13285  0.60159  1.0000
