data_image0
_chemical_formula_structural       Cu4H18C28N10
_chemical_formula_sum              "Cu4 H18 C28 N10"
_cell_length_a       8.24404
_cell_length_b       9.15429
_cell_length_c       9.32004
_cell_angle_alpha    99.3082
_cell_angle_beta     97.0745
_cell_angle_gamma    111.011

_space_group_name_H-M_alt    "P 1"
_space_group_IT_number       1

loop_
  _space_group_symop_operation_xyz
  'x, y, z'

loop_
  _atom_site_type_symbol
  _atom_site_label
  _atom_site_symmetry_multiplicity
  _atom_site_fract_x
  _atom_site_fract_y
  _atom_site_fract_z
  _atom_site_occupancy
  Cu  Cu1       1.0  0.73780  0.20735  0.56007  1.0000
  Cu  Cu2       1.0  0.26219  0.79265  0.43992  1.0000
  Cu  Cu3       1.0  0.31868  0.28145  0.26349  1.0000
  Cu  Cu4       1.0  0.68132  0.71855  0.73652  1.0000
  H   H1        1.0  0.95361  0.07462  0.35932  1.0000
  H   H2        1.0  0.04639  0.92538  0.64068  1.0000
  H   H3        1.0  0.94837  0.02148  0.08853  1.0000
  H   H4        1.0  0.05163  0.97852  0.91147  1.0000
  H   H5        1.0  0.74559  0.09484  0.91898  1.0000
  H   H6        1.0  0.25441  0.90516  0.08103  1.0000
  H   H7        1.0  0.61016  0.30865  0.31221  1.0000
  H   H8        1.0  0.38984  0.69135  0.68779  1.0000
  H   H9        1.0  0.11278  0.39075  0.05004  1.0000
  H   H10       1.0  0.88722  0.60925  0.94997  1.0000
  H   H11       1.0  0.98582  0.43256  0.80864  1.0000
  H   H12       1.0  0.01417  0.56743  0.19136  1.0000
  H   H13       1.0  0.10509  0.38319  0.58328  1.0000
  H   H14       1.0  0.89491  0.61681  0.41672  1.0000
  H   H15       1.0  0.35406  0.29115  0.58751  1.0000
  H   H16       1.0  0.64594  0.70886  0.41249  1.0000
  H   H17       1.0  0.59530  0.22742  0.79947  1.0000
  H   H18       1.0  0.40470  0.77258  0.20053  1.0000
  C   C1        1.0  0.87306  0.11309  0.28438  1.0000
  C   C2        1.0  0.12694  0.88691  0.71562  1.0000
  C   C3        1.0  0.86823  0.08313  0.13242  1.0000
  C   C4        1.0  0.13177  0.91687  0.86758  1.0000
  C   C5        1.0  0.75551  0.12527  0.03875  1.0000
  C   C6        1.0  0.24449  0.87473  0.96125  1.0000
  C   C7        1.0  0.65384  0.20355  0.10150  1.0000
  C   C8        1.0  0.34616  0.79646  0.89850  1.0000
  C   C9        1.0  0.67644  0.23859  0.25671  1.0000
  C   C10       1.0  0.32356  0.76141  0.74329  1.0000
  C   C11       1.0  0.52564  0.24657  0.01492  1.0000
  C   C12       1.0  0.47436  0.75344  0.98507  1.0000
  C   C13       1.0  0.30656  0.31983  0.95318  1.0000
  C   C14       1.0  0.69345  0.68017  0.04682  1.0000
  C   C15       1.0  0.16427  0.36948  0.95003  1.0000
  C   C16       1.0  0.83573  0.63051  0.04997  1.0000
  C   C17       1.0  0.09486  0.39182  0.81562  1.0000
  C   C18       1.0  0.90513  0.60818  0.18438  1.0000
  C   C19       1.0  0.16235  0.36309  0.68649  1.0000
  C   C20       1.0  0.83765  0.63691  0.31351  1.0000
  C   C21       1.0  0.30288  0.31258  0.68748  1.0000
  C   C22       1.0  0.69713  0.68742  0.31252  1.0000
  C   C23       1.0  0.37447  0.29250  0.82332  1.0000
  C   C24       1.0  0.62553  0.70750  0.17668  1.0000
  C   C25       1.0  0.72247  0.40717  0.61880  1.0000
  C   C26       1.0  0.27752  0.59281  0.38120  1.0000
  C   C27       1.0  0.72157  0.02423  0.62914  1.0000
  C   C28       1.0  0.27842  0.97575  0.37084  1.0000
  N   N1        1.0  0.77806  0.19044  0.34557  1.0000
  N   N2        1.0  0.22194  0.80956  0.65442  1.0000
  N   N3        1.0  0.51199  0.24640  0.86657  1.0000
  N   N4        1.0  0.48802  0.75360  0.13343  1.0000
  N   N5        1.0  0.40162  0.28892  0.06966  1.0000
  N   N6        1.0  0.59838  0.71109  0.93034  1.0000
  N   N7        1.0  0.71560  0.53332  0.65806  1.0000
  N   N8        1.0  0.28439  0.46668  0.34194  1.0000
  N   N9        1.0  0.71557  0.90903  0.67308  1.0000
  N   N10       1.0  0.28444  0.09097  0.32692  1.0000
