data_image0
_chemical_formula_structural       Cd2H30C38N2O12
_chemical_formula_sum              "Cd2 H30 C38 N2 O12"
_cell_length_a       8.01618
_cell_length_b       10.9128
_cell_length_c       10.9128
_cell_angle_alpha    70.2647
_cell_angle_beta     77.4502
_cell_angle_gamma    77.4501

_space_group_name_H-M_alt    "P 1"
_space_group_IT_number       1

loop_
  _space_group_symop_operation_xyz
  'x, y, z'

loop_
  _atom_site_type_symbol
  _atom_site_label
  _atom_site_symmetry_multiplicity
  _atom_site_fract_x
  _atom_site_fract_y
  _atom_site_fract_z
  _atom_site_occupancy
  Cd  Cd1       1.0  0.25000  0.12274  0.87726  1.0000
  Cd  Cd2       1.0  0.75000  0.87726  0.12274  1.0000
  H   H1        1.0  0.57569  0.15402  0.93841  1.0000
  H   H2        1.0  0.92431  0.06159  0.84598  1.0000
  H   H3        1.0  0.42431  0.84598  0.06159  1.0000
  H   H4        1.0  0.07570  0.93841  0.15401  1.0000
  H   H5        1.0  0.62116  0.06683  0.84735  1.0000
  H   H6        1.0  0.87884  0.15265  0.93317  1.0000
  H   H7        1.0  0.37884  0.93317  0.15265  1.0000
  H   H8        1.0  0.12116  0.84736  0.06683  1.0000
  H   H9        1.0  0.26610  0.64788  0.98947  1.0000
  H   H10       1.0  0.23390  0.01053  0.35212  1.0000
  H   H11       1.0  0.73389  0.35212  0.01053  1.0000
  H   H12       1.0  0.76610  0.98947  0.64788  1.0000
  H   H13       1.0  0.33734  0.42765  0.95337  1.0000
  H   H14       1.0  0.16266  0.04663  0.57235  1.0000
  H   H15       1.0  0.66267  0.57235  0.04664  1.0000
  H   H16       1.0  0.83733  0.95337  0.42765  1.0000
  H   H17       1.0  0.51481  0.40080  0.74673  1.0000
  H   H18       1.0  0.98519  0.25327  0.59920  1.0000
  H   H19       1.0  0.48519  0.59920  0.25327  1.0000
  H   H20       1.0  0.01481  0.74673  0.40080  1.0000
  H   H21       1.0  0.53262  0.82005  0.60272  1.0000
  H   H22       1.0  0.96738  0.39728  0.17995  1.0000
  H   H23       1.0  0.46738  0.17995  0.39728  1.0000
  H   H24       1.0  0.03262  0.60272  0.82005  1.0000
  H   H25       1.0  0.75000  0.38774  0.61226  1.0000
  H   H26       1.0  0.25000  0.61226  0.38774  1.0000
  H   H27       1.0  0.56549  0.79528  0.41531  1.0000
  H   H28       1.0  0.93451  0.58469  0.20472  1.0000
  H   H29       1.0  0.43451  0.20472  0.58469  1.0000
  H   H30       1.0  0.06549  0.41531  0.79528  1.0000
  C   C1        1.0  0.35223  0.87992  0.81613  1.0000
  C   C2        1.0  0.14777  0.18387  0.12008  1.0000
  C   C3        1.0  0.64777  0.12008  0.18387  1.0000
  C   C4        1.0  0.85223  0.81613  0.87992  1.0000
  C   C5        1.0  0.39523  0.74685  0.79690  1.0000
  C   C6        1.0  0.10477  0.20310  0.25315  1.0000
  C   C7        1.0  0.60477  0.25315  0.20310  1.0000
  C   C8        1.0  0.89523  0.79690  0.74685  1.0000
  C   C9        1.0  0.34177  0.63635  0.89718  1.0000
  C   C10       1.0  0.15823  0.10282  0.36365  1.0000
  C   C11       1.0  0.65823  0.36365  0.10282  1.0000
  C   C12       1.0  0.84177  0.89718  0.63635  1.0000
  C   C13       1.0  0.38401  0.51286  0.87744  1.0000
  C   C14       1.0  0.11599  0.12256  0.48714  1.0000
  C   C15       1.0  0.61599  0.48714  0.12256  1.0000
  C   C16       1.0  0.88401  0.87744  0.51286  1.0000
  C   C17       1.0  0.48327  0.49837  0.75993  1.0000
  C   C18       1.0  0.01673  0.24007  0.50163  1.0000
  C   C19       1.0  0.51673  0.50163  0.24007  1.0000
  C   C20       1.0  0.98327  0.75993  0.49837  1.0000
  C   C21       1.0  0.53863  0.60802  0.65834  1.0000
  C   C22       1.0  0.96137  0.34166  0.39198  1.0000
  C   C23       1.0  0.46137  0.39198  0.34166  1.0000
  C   C24       1.0  0.03863  0.65834  0.60802  1.0000
  C   C25       1.0  0.49130  0.73245  0.67783  1.0000
  C   C26       1.0  0.00869  0.32217  0.26755  1.0000
  C   C27       1.0  0.50870  0.26755  0.32217  1.0000
  C   C28       1.0  0.99130  0.67783  0.73245  1.0000
  C   C29       1.0  0.64563  0.59343  0.53404  1.0000
  C   C30       1.0  0.85437  0.46596  0.40657  1.0000
  C   C31       1.0  0.35437  0.40657  0.46596  1.0000
  C   C32       1.0  0.14563  0.53404  0.59343  1.0000
  C   C33       1.0  0.75000  0.47463  0.52537  1.0000
  C   C34       1.0  0.25000  0.52537  0.47463  1.0000
  C   C35       1.0  0.64703  0.70071  0.41838  1.0000
  C   C36       1.0  0.85297  0.58162  0.29929  1.0000
  C   C37       1.0  0.35297  0.29929  0.58162  1.0000
  C   C38       1.0  0.14703  0.41839  0.70071  1.0000
  N   N1        1.0  0.75000  0.69443  0.30557  1.0000
  N   N2        1.0  0.25000  0.30557  0.69443  1.0000
  O   O1        1.0  0.29385  0.88615  0.93521  1.0000
  O   O2        1.0  0.20615  0.06479  0.11385  1.0000
  O   O3        1.0  0.70615  0.11385  0.06479  1.0000
  O   O4        1.0  0.79385  0.93521  0.88615  1.0000
  O   O5        1.0  0.37249  0.98265  0.72038  1.0000
  O   O6        1.0  0.12751  0.27962  0.01735  1.0000
  O   O7        1.0  0.62751  0.01735  0.27962  1.0000
  O   O8        1.0  0.87249  0.72038  0.98265  1.0000
  O   O9        1.0  0.54033  0.14579  0.86029  1.0000
  O   O10       1.0  0.95967  0.13971  0.85420  1.0000
  O   O11       1.0  0.45967  0.85420  0.13971  1.0000
  O   O12       1.0  0.04033  0.86029  0.14579  1.0000
