data_image0
_chemical_formula_structural       Ag2H20C20S2N6O16
_chemical_formula_sum              "Ag2 H20 C20 S2 N6 O16"
_cell_length_a       5.70455
_cell_length_b       11.2558
_cell_length_c       12.5834
_cell_angle_alpha    113.268
_cell_angle_beta     89.9904
_cell_angle_gamma    104.684

_space_group_name_H-M_alt    "P 1"
_space_group_IT_number       1

loop_
  _space_group_symop_operation_xyz
  'x, y, z'

loop_
  _atom_site_type_symbol
  _atom_site_label
  _atom_site_symmetry_multiplicity
  _atom_site_fract_x
  _atom_site_fract_y
  _atom_site_fract_z
  _atom_site_occupancy
  Ag  Ag1       1.0  0.41401  0.47433  0.29386  1.0000
  Ag  Ag2       1.0  0.06021  0.47402  0.79366  1.0000
  H   H1        1.0  0.91000  0.27202  0.02383  1.0000
  H   H2        1.0  0.36180  0.27211  0.52377  1.0000
  H   H3        1.0  0.93727  0.03548  0.96261  1.0000
  H   H4        1.0  0.09848  0.03544  0.46235  1.0000
  H   H5        1.0  0.58231  0.14030  0.79960  1.0000
  H   H6        1.0  0.55775  0.14022  0.29968  1.0000
  H   H7        1.0  0.52177  0.37265  0.86366  1.0000
  H   H8        1.0  0.85033  0.37269  0.36390  1.0000
  H   H9        1.0  0.63152  0.57416  0.52775  1.0000
  H   H10       1.0  0.94197  0.57342  0.02761  1.0000
  H   H11       1.0  0.81459  0.72089  0.73699  1.0000
  H   H12       1.0  0.90573  0.72029  0.23688  1.0000
  H   H13       1.0  0.44709  0.89542  0.60179  1.0000
  H   H14       1.0  0.44984  0.89570  0.10162  1.0000
  H   H15       1.0  0.23582  0.74468  0.40104  1.0000
  H   H16       1.0  0.51005  0.74474  0.90088  1.0000
  H   H17       1.0  0.03550  0.54906  0.24187  1.0000
  H   H18       1.0  0.51356  0.54897  0.74172  1.0000
  H   H19       1.0  0.17507  0.51585  0.12450  1.0000
  H   H20       1.0  0.34052  0.51593  0.62453  1.0000
  C   C1        1.0  0.05162  0.23546  0.97291  1.0000
  C   C2        1.0  0.18365  0.23547  0.47285  1.0000
  C   C3        1.0  0.07043  0.10564  0.93829  1.0000
  C   C4        1.0  0.03520  0.10560  0.43817  1.0000
  C   C5        1.0  0.25981  0.06996  0.87404  1.0000
  C   C6        1.0  0.81014  0.06991  0.37394  1.0000
  C   C7        1.0  0.42794  0.16417  0.84617  1.0000
  C   C8        1.0  0.73599  0.16416  0.34624  1.0000
  C   C9        1.0  0.40079  0.29214  0.88122  1.0000
  C   C10       1.0  0.89093  0.29218  0.38138  1.0000
  C   C11       1.0  0.80895  0.64830  0.55212  1.0000
  C   C12       1.0  0.83922  0.64782  0.05200  1.0000
  C   C13       1.0  0.91320  0.72892  0.66516  1.0000
  C   C14       1.0  0.81567  0.72852  0.16503  1.0000
  C   C15       1.0  0.14622  0.81647  0.68468  1.0000
  C   C16       1.0  0.67079  0.81635  0.18452  1.0000
  C   C17       1.0  0.26753  0.82605  0.59067  1.0000
  C   C18       1.0  0.55954  0.82610  0.09049  1.0000
  C   C19       1.0  0.15547  0.74438  0.47909  1.0000
  C   C20       1.0  0.58985  0.74436  0.97894  1.0000
  S   S1        1.0  0.29569  0.90565  0.82920  1.0000
  S   S2        1.0  0.61018  0.90552  0.32897  1.0000
  N   N1        1.0  0.52610  0.22382  0.14315  1.0000
  N   N2        1.0  0.69674  0.22376  0.64304  1.0000
  N   N3        1.0  0.21447  0.32586  0.94345  1.0000
  N   N4        1.0  0.11101  0.32590  0.44352  1.0000
  N   N5        1.0  0.93225  0.65477  0.46105  1.0000
  N   N6        1.0  0.72291  0.65452  0.96093  1.0000
  O   O1        1.0  0.55258  0.91485  0.82039  1.0000
  O   O2        1.0  0.36239  0.91454  0.32001  1.0000
  O   O3        1.0  0.16157  0.84418  0.90087  1.0000
  O   O4        1.0  0.68284  0.84412  0.40069  1.0000
  O   O5        1.0  0.19380  0.44974  0.97651  1.0000
  O   O6        1.0  0.25546  0.44983  0.47663  1.0000
  O   O7        1.0  0.83700  0.57143  0.35386  1.0000
  O   O8        1.0  0.73470  0.57118  0.85371  1.0000
  O   O9        1.0  0.63164  0.32936  0.12770  1.0000
  O   O10       1.0  0.69676  0.32926  0.62755  1.0000
  O   O11       1.0  0.58050  0.11560  0.09096  1.0000
  O   O12       1.0  0.53419  0.11551  0.59088  1.0000
  O   O13       1.0  0.36376  0.23069  0.21438  1.0000
  O   O14       1.0  0.86587  0.23067  0.71431  1.0000
  O   O15       1.0  0.19500  0.56464  0.21101  1.0000
  O   O16       1.0  0.36966  0.56471  0.71105  1.0000
