data_image0
_chemical_formula_structural       Li4H32C16S4Cl4O8
_chemical_formula_sum              "Li4 H32 C16 S4 Cl4 O8"
_cell_length_a       6.46164
_cell_length_b       9.49963
_cell_length_c       10.7751
_cell_angle_alpha    90.0009
_cell_angle_beta     90
_cell_angle_gamma    90.0006

_space_group_name_H-M_alt    "P 1"
_space_group_IT_number       1

loop_
  _space_group_symop_operation_xyz
  'x, y, z'

loop_
  _atom_site_type_symbol
  _atom_site_label
  _atom_site_symmetry_multiplicity
  _atom_site_fract_x
  _atom_site_fract_y
  _atom_site_fract_z
  _atom_site_occupancy
  Li  Li1       1.0  0.10555  0.59500  0.98013  1.0000
  Li  Li2       1.0  0.60555  0.09502  0.51986  1.0000
  Li  Li3       1.0  0.10554  0.90498  0.48013  1.0000
  Li  Li4       1.0  0.60554  0.40499  0.01987  1.0000
  H   H1        1.0  0.29252  0.56287  0.21504  1.0000
  H   H2        1.0  0.79254  0.06288  0.28495  1.0000
  H   H3        1.0  0.29255  0.93713  0.71504  1.0000
  H   H4        1.0  0.79254  0.43711  0.78496  1.0000
  H   H5        1.0  0.26940  0.62589  0.37197  1.0000
  H   H6        1.0  0.76940  0.12590  0.12803  1.0000
  H   H7        1.0  0.26941  0.87410  0.87197  1.0000
  H   H8        1.0  0.76939  0.37410  0.62803  1.0000
  H   H9        1.0  0.00885  0.39469  0.24486  1.0000
  H   H10       1.0  0.50887  0.89469  0.25514  1.0000
  H   H11       1.0  0.00888  0.10531  0.74486  1.0000
  H   H12       1.0  0.50888  0.60531  0.75514  1.0000
  H   H13       1.0  0.13767  0.37977  0.38966  1.0000
  H   H14       1.0  0.63767  0.87978  0.11034  1.0000
  H   H15       1.0  0.13769  0.12022  0.88966  1.0000
  H   H16       1.0  0.63770  0.62022  0.61034  1.0000
  H   H17       1.0  0.74337  0.42826  0.40734  1.0000
  H   H18       1.0  0.24337  0.92826  0.09268  1.0000
  H   H19       1.0  0.74338  0.07174  0.90732  1.0000
  H   H20       1.0  0.24338  0.57175  0.59267  1.0000
  H   H21       1.0  0.89940  0.55670  0.48322  1.0000
  H   H22       1.0  0.39939  0.05669  0.01678  1.0000
  H   H23       1.0  0.89941  0.94331  0.98323  1.0000
  H   H24       1.0  0.39941  0.44332  0.51678  1.0000
  H   H25       1.0  0.68811  0.58336  0.22800  1.0000
  H   H26       1.0  0.18812  0.08336  0.27201  1.0000
  H   H27       1.0  0.68814  0.91664  0.72799  1.0000
  H   H28       1.0  0.18812  0.41665  0.77200  1.0000
  H   H29       1.0  0.68037  0.70711  0.35527  1.0000
  H   H30       1.0  0.18038  0.20711  0.14475  1.0000
  H   H31       1.0  0.68038  0.79289  0.85526  1.0000
  H   H32       1.0  0.18037  0.29290  0.64473  1.0000
  C   C1        1.0  0.18604  0.57914  0.29315  1.0000
  C   C2        1.0  0.68605  0.07914  0.20685  1.0000
  C   C3        1.0  0.18605  0.92086  0.79315  1.0000
  C   C4        1.0  0.68605  0.42086  0.70685  1.0000
  C   C5        1.0  0.05333  0.45251  0.32908  1.0000
  C   C6        1.0  0.55334  0.95252  0.17092  1.0000
  C   C7        1.0  0.05335  0.04748  0.82908  1.0000
  C   C8        1.0  0.55335  0.54748  0.67092  1.0000
  C   C9        1.0  0.85892  0.51103  0.39275  1.0000
  C   C10       1.0  0.35892  0.01103  0.10726  1.0000
  C   C11       1.0  0.85894  0.98896  0.89275  1.0000
  C   C12       1.0  0.35893  0.48897  0.60726  1.0000
  C   C13       1.0  0.77248  0.62589  0.30806  1.0000
  C   C14       1.0  0.27248  0.12589  0.19195  1.0000
  C   C15       1.0  0.77249  0.87412  0.80806  1.0000
  C   C16       1.0  0.27249  0.37411  0.69194  1.0000
  S   S1        1.0  0.99978  0.71038  0.24633  1.0000
  S   S2        1.0  0.49979  0.21039  0.25366  1.0000
  S   S3        1.0  0.99979  0.78962  0.74634  1.0000
  S   S4        1.0  0.49978  0.28961  0.75366  1.0000
  Cl  Cl1       1.0  0.46403  0.62786  0.99956  1.0000
  Cl  Cl2       1.0  0.96403  0.12784  0.50045  1.0000
  Cl  Cl3       1.0  0.46403  0.87215  0.49955  1.0000
  Cl  Cl4       1.0  0.96403  0.37214  0.00044  1.0000
  O   O1        1.0  0.98966  0.72165  0.11083  1.0000
  O   O2        1.0  0.48968  0.22166  0.38917  1.0000
  O   O3        1.0  0.98967  0.77834  0.61083  1.0000
  O   O4        1.0  0.48965  0.27835  0.88917  1.0000
  O   O5        1.0  0.03690  0.84356  0.31133  1.0000
  O   O6        1.0  0.53690  0.34355  0.18867  1.0000
  O   O7        1.0  0.03693  0.65644  0.81132  1.0000
  O   O8        1.0  0.53690  0.15644  0.68867  1.0000
