data_image0
_chemical_formula_structural       Cu2H20C16O8
_chemical_formula_sum              "Cu2 H20 C16 O8"
_cell_length_a       5.14624
_cell_length_b       9.9056
_cell_length_c       10.7797
_cell_angle_alpha    76.7178
_cell_angle_beta     80.0141
_cell_angle_gamma    85.7804

_space_group_name_H-M_alt    "P 1"
_space_group_IT_number       1

loop_
  _space_group_symop_operation_xyz
  'x, y, z'

loop_
  _atom_site_type_symbol
  _atom_site_label
  _atom_site_symmetry_multiplicity
  _atom_site_fract_x
  _atom_site_fract_y
  _atom_site_fract_z
  _atom_site_occupancy
  Cu  Cu1       1.0  0.20454  0.06961  0.48266  1.0000
  Cu  Cu2       1.0  0.79546  0.93039  0.51734  1.0000
  H   H1        1.0  0.68285  0.96462  0.92580  1.0000
  H   H2        1.0  0.31714  0.03538  0.07420  1.0000
  H   H3        1.0  0.13967  0.16395  0.86232  1.0000
  H   H4        1.0  0.86033  0.83605  0.13768  1.0000
  H   H5        1.0  0.80112  0.21386  0.87316  1.0000
  H   H6        1.0  0.19888  0.78613  0.12684  1.0000
  H   H7        1.0  0.27922  0.90139  0.89167  1.0000
  H   H8        1.0  0.72077  0.09861  0.10833  1.0000
  H   H9        1.0  0.02994  0.77842  0.92454  1.0000
  H   H10       1.0  0.97006  0.22157  0.07546  1.0000
  H   H11       1.0  0.38819  0.35292  0.42281  1.0000
  H   H12       1.0  0.61181  0.64708  0.57720  1.0000
  H   H13       1.0  0.88533  0.50891  0.41773  1.0000
  H   H14       1.0  0.11467  0.49109  0.58228  1.0000
  H   H15       1.0  0.75311  0.49442  0.28089  1.0000
  H   H16       1.0  0.24690  0.50558  0.71912  1.0000
  H   H17       1.0  0.65957  0.37762  0.64723  1.0000
  H   H18       1.0  0.34044  0.62238  0.35277  1.0000
  H   H19       1.0  0.37986  0.27804  0.65718  1.0000
  H   H20       1.0  0.62014  0.72196  0.34282  1.0000
  C   C1        1.0  0.88718  0.99374  0.88387  1.0000
  C   C2        1.0  0.11282  0.00626  0.11613  1.0000
  C   C3        1.0  0.94114  0.13266  0.91275  1.0000
  C   C4        1.0  0.05886  0.86734  0.08725  1.0000
  C   C5        1.0  0.07696  0.87819  0.94233  1.0000
  C   C6        1.0  0.92304  0.12180  0.05767  1.0000
  C   C7        1.0  0.91826  0.00016  0.73972  1.0000
  C   C8        1.0  0.08173  0.99984  0.26028  1.0000
  C   C9        1.0  0.56685  0.36649  0.46123  1.0000
  C   C10       1.0  0.43316  0.63351  0.53877  1.0000
  C   C11       1.0  0.69994  0.49950  0.38316  1.0000
  C   C12       1.0  0.30006  0.50050  0.61684  1.0000
  C   C13       1.0  0.48112  0.37328  0.60457  1.0000
  C   C14       1.0  0.51889  0.62672  0.39543  1.0000
  C   C15       1.0  0.74056  0.23633  0.45987  1.0000
  C   C16       1.0  0.25945  0.76367  0.54013  1.0000
  O   O1        1.0  0.11429  0.06591  0.66922  1.0000
  O   O2        1.0  0.88570  0.93409  0.33078  1.0000
  O   O3        1.0  0.75184  0.93555  0.70226  1.0000
  O   O4        1.0  0.24815  0.06445  0.29773  1.0000
  O   O5        1.0  0.62238  0.12226  0.47747  1.0000
  O   O6        1.0  0.37763  0.87774  0.52252  1.0000
  O   O7        1.0  0.98842  0.24551  0.44954  1.0000
  O   O8        1.0  0.01158  0.75450  0.55046  1.0000
