data_image0
_chemical_formula_structural       Cu2H24C16O10
_chemical_formula_sum              "Cu2 H24 C16 O10"
_cell_length_a       6.82683
_cell_length_b       8.52502
_cell_length_c       8.54775
_cell_angle_alpha    72.5096
_cell_angle_beta     84.2952
_cell_angle_gamma    85.4321

_space_group_name_H-M_alt    "P 1"
_space_group_IT_number       1

loop_
  _space_group_symop_operation_xyz
  'x, y, z'

loop_
  _atom_site_type_symbol
  _atom_site_label
  _atom_site_symmetry_multiplicity
  _atom_site_fract_x
  _atom_site_fract_y
  _atom_site_fract_z
  _atom_site_occupancy
  Cu  Cu1       1.0  0.16045  0.96646  0.07191  1.0000
  Cu  Cu2       1.0  0.83957  0.03353  0.92810  1.0000
  H   H1        1.0  0.49896  0.00425  0.18990  1.0000
  H   H2        1.0  0.50101  0.99575  0.81011  1.0000
  H   H3        1.0  0.52009  0.83762  0.15871  1.0000
  H   H4        1.0  0.47987  0.16238  0.84129  1.0000
  H   H5        1.0  0.68518  0.07883  0.46285  1.0000
  H   H6        1.0  0.31483  0.92117  0.53715  1.0000
  H   H7        1.0  0.02085  0.16520  0.47820  1.0000
  H   H8        1.0  0.97916  0.83480  0.52181  1.0000
  H   H9        1.0  0.83084  0.28183  0.55298  1.0000
  H   H10       1.0  0.16916  0.71816  0.44702  1.0000
  H   H11       1.0  0.05784  0.38864  0.21156  1.0000
  H   H12       1.0  0.94218  0.61136  0.78845  1.0000
  H   H13       1.0  0.08596  0.46578  0.37681  1.0000
  H   H14       1.0  0.91405  0.53422  0.62320  1.0000
  H   H15       1.0  0.73891  0.57378  0.37601  1.0000
  H   H16       1.0  0.26110  0.42622  0.62399  1.0000
  H   H17       1.0  0.71446  0.45232  0.07582  1.0000
  H   H18       1.0  0.28556  0.54768  0.92418  1.0000
  H   H19       1.0  0.52778  0.56683  0.15770  1.0000
  H   H20       1.0  0.47223  0.43318  0.84230  1.0000
  H   H21       1.0  0.50241  0.34142  0.42280  1.0000
  H   H22       1.0  0.49760  0.65859  0.57719  1.0000
  H   H23       1.0  0.46485  0.26805  0.25578  1.0000
  H   H24       1.0  0.53516  0.73195  0.74422  1.0000
  C   C1        1.0  0.74454  0.18662  0.36696  1.0000
  C   C2        1.0  0.25547  0.81338  0.63304  1.0000
  C   C3        1.0  0.90000  0.25728  0.44043  1.0000
  C   C4        1.0  0.10001  0.74272  0.55957  1.0000
  C   C5        1.0  0.97849  0.41531  0.32024  1.0000
  C   C6        1.0  0.02153  0.58470  0.67976  1.0000
  C   C7        1.0  0.80946  0.54378  0.26508  1.0000
  C   C8        1.0  0.19054  0.45622  0.73492  1.0000
  C   C9        1.0  0.65137  0.47584  0.19096  1.0000
  C   C10       1.0  0.34864  0.52416  0.80904  1.0000
  C   C11       1.0  0.57585  0.31587  0.31152  1.0000
  C   C12       1.0  0.42416  0.68413  0.68848  1.0000
  C   C13       1.0  0.83595  0.11732  0.22846  1.0000
  C   C14       1.0  0.16408  0.88268  0.77154  1.0000
  C   C15       1.0  0.88232  0.70987  0.15637  1.0000
  C   C16       1.0  0.11770  0.29013  0.84363  1.0000
  O   O1        1.0  0.42441  0.90471  0.20939  1.0000
  O   O2        1.0  0.57556  0.09528  0.79062  1.0000
  O   O3        1.0  0.01435  0.06398  0.23571  1.0000
  O   O4        1.0  0.98559  0.93605  0.76427  1.0000
  O   O5        1.0  0.72408  0.11576  0.11718  1.0000
  O   O6        1.0  0.27589  0.88424  0.88281  1.0000
  O   O7        1.0  0.05353  0.74486  0.17549  1.0000
  O   O8        1.0  0.94642  0.25513  0.82450  1.0000
  O   O9        1.0  0.76147  0.80393  0.05956  1.0000
  O   O10       1.0  0.23850  0.19608  0.94042  1.0000
