data_image0
_chemical_formula_structural       Zn2P4H26C10N2O12
_chemical_formula_sum              "Zn2 P4 H26 C10 N2 O12"
_cell_length_a       7.9118
_cell_length_b       9.01437
_cell_length_c       9.06306
_cell_angle_alpha    103.268
_cell_angle_beta     111.528
_cell_angle_gamma    108.217

_space_group_name_H-M_alt    "P 1"
_space_group_IT_number       1

loop_
  _space_group_symop_operation_xyz
  'x, y, z'

loop_
  _atom_site_type_symbol
  _atom_site_label
  _atom_site_symmetry_multiplicity
  _atom_site_fract_x
  _atom_site_fract_y
  _atom_site_fract_z
  _atom_site_occupancy
  Zn  Zn1       1.0  0.98022  0.73395  0.43291  1.0000
  Zn  Zn2       1.0  0.01979  0.26605  0.56709  1.0000
  P   P1        1.0  0.24713  0.67262  0.76358  1.0000
  P   P2        1.0  0.75287  0.32737  0.23642  1.0000
  P   P3        1.0  0.86993  0.95281  0.68074  1.0000
  P   P4        1.0  0.13008  0.04720  0.31926  1.0000
  H   H1        1.0  0.10703  0.84191  0.84827  1.0000
  H   H2        1.0  0.89296  0.15808  0.15173  1.0000
  H   H3        1.0  0.56170  0.75639  0.01618  1.0000
  H   H4        1.0  0.43831  0.24362  0.98383  1.0000
  H   H5        1.0  0.55185  0.93193  0.96595  1.0000
  H   H6        1.0  0.44814  0.06808  0.03404  1.0000
  H   H7        1.0  0.50898  0.82654  0.60336  1.0000
  H   H8        1.0  0.49102  0.17346  0.39663  1.0000
  H   H9        1.0  0.65698  0.01728  0.79179  1.0000
  H   H10       1.0  0.34303  0.98272  0.20821  1.0000
  H   H11       1.0  0.73656  0.64045  0.69028  1.0000
  H   H12       1.0  0.26344  0.35955  0.30972  1.0000
  H   H13       1.0  0.48211  0.54722  0.65125  1.0000
  H   H14       1.0  0.51788  0.45278  0.34875  1.0000
  H   H15       1.0  0.85374  0.63471  0.98932  1.0000
  H   H16       1.0  0.14625  0.36528  0.01068  1.0000
  H   H17       1.0  0.59858  0.52141  0.93553  1.0000
  H   H18       1.0  0.40141  0.47858  0.06447  1.0000
  H   H19       1.0  0.76254  0.32836  0.88907  1.0000
  H   H20       1.0  0.23745  0.67164  0.11092  1.0000
  H   H21       1.0  0.55264  0.28663  0.69339  1.0000
  H   H22       1.0  0.44736  0.71336  0.30660  1.0000
  H   H23       1.0  0.80530  0.40265  0.73605  1.0000
  H   H24       1.0  0.19470  0.59735  0.26395  1.0000
  H   H25       1.0  0.80321  0.86937  0.94695  1.0000
  H   H26       1.0  0.19679  0.13063  0.05305  1.0000
  C   C1        1.0  0.51894  0.79882  0.90968  1.0000
  C   C2        1.0  0.48106  0.20119  0.09032  1.0000
  C   C3        1.0  0.65265  0.89771  0.72300  1.0000
  C   C4        1.0  0.34735  0.10229  0.27700  1.0000
  C   C5        1.0  0.63982  0.62476  0.75204  1.0000
  C   C6        1.0  0.36018  0.37524  0.24796  1.0000
  C   C7        1.0  0.70280  0.54588  0.88115  1.0000
  C   C8        1.0  0.29719  0.45412  0.11884  1.0000
  C   C9        1.0  0.70526  0.38075  0.79445  1.0000
  C   C10       1.0  0.29474  0.61925  0.20554  1.0000
  N   N1        1.0  0.66051  0.79874  0.83582  1.0000
  N   N2        1.0  0.33949  0.20127  0.16418  1.0000
  O   O1        1.0  0.19964  0.70526  0.59895  1.0000
  O   O2        1.0  0.80035  0.29472  0.40105  1.0000
  O   O3        1.0  0.20436  0.49206  0.74821  1.0000
  O   O4        1.0  0.79565  0.50794  0.25179  1.0000
  O   O5        1.0  0.15092  0.74462  0.86871  1.0000
  O   O6        1.0  0.84908  0.25538  0.13130  1.0000
  O   O7        1.0  0.81546  0.80448  0.52123  1.0000
  O   O8        1.0  0.18454  0.19552  0.47877  1.0000
  O   O9        1.0  0.05047  0.97529  0.84314  1.0000
  O   O10       1.0  0.94953  0.02470  0.15687  1.0000
  O   O11       1.0  0.89041  0.11794  0.65615  1.0000
  O   O12       1.0  0.10960  0.88206  0.34387  1.0000
