data_image0
_chemical_formula_structural       CuH16C22N6O10
_chemical_formula_sum              "Cu1 H16 C22 N6 O10"
_cell_length_a       9.02237
_cell_length_b       7.36788
_cell_length_c       12.6754
_cell_angle_alpha    73.3294
_cell_angle_beta     72.3162
_cell_angle_gamma    64.5438

_space_group_name_H-M_alt    "P 1"
_space_group_IT_number       1

loop_
  _space_group_symop_operation_xyz
  'x, y, z'

loop_
  _atom_site_type_symbol
  _atom_site_label
  _atom_site_symmetry_multiplicity
  _atom_site_fract_x
  _atom_site_fract_y
  _atom_site_fract_z
  _atom_site_occupancy
  Cu  Cu1       1.0  1.00000  0.00000  1.00000  1.0000
  H   H1        1.0  0.18064  0.67591  0.64107  1.0000
  H   H2        1.0  0.81935  0.32407  0.35895  1.0000
  H   H3        1.0  0.77147  0.87666  0.47084  1.0000
  H   H4        1.0  0.22856  0.12333  0.52915  1.0000
  H   H5        1.0  0.69325  0.09008  0.77346  1.0000
  H   H6        1.0  0.30674  0.90992  0.22654  1.0000
  H   H7        1.0  0.35627  0.36927  0.60982  1.0000
  H   H8        1.0  0.64373  0.63073  0.39017  1.0000
  H   H9        1.0  0.51868  0.35062  0.67180  1.0000
  H   H10       1.0  0.48132  0.64938  0.32820  1.0000
  H   H11       1.0  0.31406  0.06450  0.03764  1.0000
  H   H12       1.0  0.68591  0.93557  0.96235  1.0000
  H   H13       1.0  0.14637  0.18496  0.73990  1.0000
  H   H14       1.0  0.85365  0.81499  0.26010  1.0000
  H   H15       1.0  0.13119  0.58892  0.31549  1.0000
  H   H16       1.0  0.86883  0.41109  0.68451  1.0000
  C   C1        1.0  0.94246  0.87962  0.71694  1.0000
  C   C2        1.0  0.05752  0.12037  0.28307  1.0000
  C   C3        1.0  0.04981  0.76191  0.63554  1.0000
  C   C4        1.0  0.95018  0.23808  0.36447  1.0000
  C   C5        1.0  0.98953  0.76146  0.54599  1.0000
  C   C6        1.0  0.01048  0.23852  0.45402  1.0000
  C   C7        1.0  0.82113  0.87464  0.53949  1.0000
  C   C8        1.0  0.17887  0.12535  0.46051  1.0000
  C   C9        1.0  0.71424  0.99280  0.62138  1.0000
  C   C10       1.0  0.28576  0.00719  0.37862  1.0000
  C   C11       1.0  0.77450  0.99730  0.70965  1.0000
  C   C12       1.0  0.22550  0.00270  0.29035  1.0000
  C   C13       1.0  0.01014  0.87910  0.81226  1.0000
  C   C14       1.0  0.98985  0.12091  0.18774  1.0000
  C   C15       1.0  0.11014  0.64598  0.45705  1.0000
  C   C16       1.0  0.88987  0.35402  0.54295  1.0000
  C   C17       1.0  0.44764  0.26897  0.66263  1.0000
  C   C18       1.0  0.55237  0.73103  0.33736  1.0000
  C   C19       1.0  0.30507  0.10950  0.94998  1.0000
  C   C20       1.0  0.69491  0.89055  0.05002  1.0000
  C   C21       1.0  0.21663  0.16768  0.80038  1.0000
  C   C22       1.0  0.78337  0.83231  0.19961  1.0000
  N   N1        1.0  0.35761  0.20620  0.77403  1.0000
  N   N2        1.0  0.64239  0.79380  0.22596  1.0000
  N   N3        1.0  0.41585  0.16929  0.86877  1.0000
  N   N4        1.0  0.58413  0.83075  0.13123  1.0000
  N   N5        1.0  0.17982  0.10588  0.91157  1.0000
  N   N6        1.0  0.82018  0.89412  0.08842  1.0000
  O   O1        1.0  0.92258  0.03741  0.86203  1.0000
  O   O2        1.0  0.07741  0.96260  0.13797  1.0000
  O   O3        1.0  0.13897  0.73589  0.83796  1.0000
  O   O4        1.0  0.86101  0.26411  0.16205  1.0000
  O   O5        1.0  0.25945  0.54378  0.45682  1.0000
  O   O6        1.0  0.74058  0.45622  0.54318  1.0000
  O   O7        1.0  0.04041  0.66330  0.37162  1.0000
  O   O8        1.0  0.95960  0.33668  0.62839  1.0000
  O   O9        1.0  0.55225  0.10195  0.60582  1.0000
  O   O10       1.0  0.44775  0.89805  0.39417  1.0000
