data_image0
_chemical_formula_structural       Cd4H36C32N4O24
_chemical_formula_sum              "Cd4 H36 C32 N4 O24"
_cell_length_a       8.49317
_cell_length_b       10.1891
_cell_length_c       14.8623
_cell_angle_alpha    101.506
_cell_angle_beta     89.9826
_cell_angle_gamma    114.626

_space_group_name_H-M_alt    "P 1"
_space_group_IT_number       1

loop_
  _space_group_symop_operation_xyz
  'x, y, z'

loop_
  _atom_site_type_symbol
  _atom_site_label
  _atom_site_symmetry_multiplicity
  _atom_site_fract_x
  _atom_site_fract_y
  _atom_site_fract_z
  _atom_site_occupancy
  Cd  Cd1       1.0  0.72365  0.44717  0.83320  1.0000
  Cd  Cd2       1.0  0.27643  0.55296  0.66682  1.0000
  Cd  Cd3       1.0  0.27635  0.55283  0.16680  1.0000
  Cd  Cd4       1.0  0.72357  0.44703  0.33318  1.0000
  H   H1        1.0  0.72615  0.67939  0.75153  1.0000
  H   H2        1.0  0.04725  0.32048  0.74853  1.0000
  H   H3        1.0  0.27386  0.32061  0.24847  1.0000
  H   H4        1.0  0.95275  0.67952  0.25147  1.0000
  H   H5        1.0  0.66515  0.54066  0.67097  1.0000
  H   H6        1.0  0.12456  0.45931  0.82905  1.0000
  H   H7        1.0  0.33485  0.45935  0.32903  1.0000
  H   H8        1.0  0.87543  0.54069  0.17095  1.0000
  H   H9        1.0  0.49669  0.57814  0.84402  1.0000
  H   H10       1.0  0.91858  0.42188  0.65606  1.0000
  H   H11       1.0  0.50331  0.42186  0.15598  1.0000
  H   H12       1.0  0.08141  0.57812  0.34394  1.0000
  H   H13       1.0  0.36325  0.41664  0.83537  1.0000
  H   H14       1.0  0.94642  0.58336  0.66470  1.0000
  H   H15       1.0  0.63675  0.58336  0.16463  1.0000
  H   H16       1.0  0.05358  0.41664  0.33530  1.0000
  H   H17       1.0  0.47924  0.69049  0.03742  1.0000
  H   H18       1.0  0.78900  0.30948  0.46266  1.0000
  H   H19       1.0  0.52076  0.30951  0.96257  1.0000
  H   H20       1.0  0.21100  0.69052  0.53734  1.0000
  H   H21       1.0  0.27432  0.59565  0.98539  1.0000
  H   H22       1.0  0.67884  0.40439  0.51462  1.0000
  H   H23       1.0  0.72568  0.40436  0.01461  1.0000
  H   H24       1.0  0.32115  0.59561  0.48538  1.0000
  H   H25       1.0  0.55675  0.93628  0.14614  1.0000
  H   H26       1.0  0.62068  0.06371  0.35383  1.0000
  H   H27       1.0  0.44325  0.06372  0.85386  1.0000
  H   H28       1.0  0.37932  0.93628  0.64617  1.0000
  H   H29       1.0  0.25515  0.16443  0.08530  1.0000
  H   H30       1.0  0.09093  0.83567  0.41474  1.0000
  H   H31       1.0  0.74485  0.83557  0.91470  1.0000
  H   H32       1.0  0.90907  0.16433  0.58526  1.0000
  H   H33       1.0  0.05306  0.93296  0.97661  1.0000
  H   H34       1.0  0.12027  0.06693  0.52359  1.0000
  H   H35       1.0  0.94695  0.06704  0.02340  1.0000
  H   H36       1.0  0.87974  0.93306  0.47642  1.0000
  C   C1        1.0  0.18219  0.80352  0.00356  1.0000
  C   C2        1.0  0.37900  0.19644  0.49667  1.0000
  C   C3        1.0  0.81781  0.19648  0.99644  1.0000
  C   C4        1.0  0.62100  0.80356  0.50332  1.0000
  C   C5        1.0  0.32817  0.80470  0.04989  1.0000
  C   C6        1.0  0.52376  0.19523  0.45027  1.0000
  C   C7        1.0  0.67183  0.19530  0.95011  1.0000
  C   C8        1.0  0.47624  0.80477  0.54973  1.0000
  C   C9        1.0  0.44573  0.93526  0.10878  1.0000
  C   C10       1.0  0.51071  0.06470  0.39126  1.0000
  C   C11       1.0  0.55427  0.06475  0.89122  1.0000
  C   C12       1.0  0.48929  0.93530  0.60874  1.0000
  C   C13       1.0  0.41866  0.06352  0.12352  1.0000
  C   C14       1.0  0.35530  0.93651  0.37647  1.0000
  C   C15       1.0  0.58135  0.93648  0.87649  1.0000
  C   C16       1.0  0.64469  0.06348  0.62353  1.0000
  C   C17       1.0  0.27653  0.06442  0.07559  1.0000
  C   C18       1.0  0.21234  0.93563  0.42449  1.0000
  C   C19       1.0  0.72348  0.93559  0.92441  1.0000
  C   C20       1.0  0.78766  0.06436  0.57551  1.0000
  C   C21       1.0  0.16253  0.93573  0.01595  1.0000
  C   C22       1.0  0.22708  0.06426  0.48426  1.0000
  C   C23       1.0  0.83747  0.06427  0.98405  1.0000
  C   C24       1.0  0.77292  0.93573  0.51574  1.0000
  C   C25       1.0  0.53793  0.19660  0.19302  1.0000
  C   C26       1.0  0.34128  0.80341  0.30690  1.0000
  C   C27       1.0  0.46206  0.80340  0.80698  1.0000
  C   C28       1.0  0.65872  0.19659  0.69310  1.0000
  C   C29       1.0  0.04663  0.66803  0.94189  1.0000
  C   C30       1.0  0.37886  0.33206  0.55823  1.0000
  C   C31       1.0  0.95337  0.33197  0.05811  1.0000
  C   C32       1.0  0.62114  0.66793  0.44176  1.0000
  N   N1        1.0  0.35258  0.67375  0.04147  1.0000
  N   N2        1.0  0.67905  0.32618  0.45860  1.0000
  N   N3        1.0  0.64742  0.32625  0.95854  1.0000
  N   N4        1.0  0.32095  0.67382  0.54140  1.0000
  O   O1        1.0  0.90263  0.67127  0.92096  1.0000
  O   O2        1.0  0.23161  0.32876  0.57924  1.0000
  O   O3        1.0  0.09737  0.32873  0.07904  1.0000
  O   O4        1.0  0.76839  0.67124  0.42076  1.0000
  O   O5        1.0  0.07628  0.55416  0.91433  1.0000
  O   O6        1.0  0.52226  0.44611  0.58560  1.0000
  O   O7        1.0  0.92372  0.44584  0.08567  1.0000
  O   O8        1.0  0.47774  0.55389  0.41440  1.0000
  O   O9        1.0  0.68206  0.20860  0.22398  1.0000
  O   O10       1.0  0.47337  0.79126  0.27592  1.0000
  O   O11       1.0  0.31794  0.79141  0.77602  1.0000
  O   O12       1.0  0.52663  0.20875  0.72408  1.0000
  O   O13       1.0  0.48439  0.29948  0.22216  1.0000
  O   O14       1.0  0.18481  0.70065  0.27781  1.0000
  O   O15       1.0  0.51561  0.70052  0.77784  1.0000
  O   O16       1.0  0.81519  0.29935  0.72219  1.0000
  O   O17       1.0  0.76022  0.60074  0.72221  1.0000
  O   O18       1.0  0.15980  0.39924  0.77788  1.0000
  O   O19       1.0  0.23978  0.39925  0.27779  1.0000
  O   O20       1.0  0.84020  0.60076  0.22211  1.0000
  O   O21       1.0  0.47605  0.48912  0.86915  1.0000
  O   O22       1.0  0.98686  0.51092  0.63094  1.0000
  O   O23       1.0  0.52395  0.51088  0.13086  1.0000
  O   O24       1.0  0.01314  0.48908  0.36906  1.0000
