data_image0
_chemical_formula_structural       Zn4H36C32N4O24
_chemical_formula_sum              "Zn4 H36 C32 N4 O24"
_cell_length_a       6.41181
_cell_length_b       9.61318
_cell_length_c       14.8707
_cell_angle_alpha    93.879
_cell_angle_beta     90
_cell_angle_gamma    90

_space_group_name_H-M_alt    "P 1"
_space_group_IT_number       1

loop_
  _space_group_symop_operation_xyz
  'x, y, z'

loop_
  _atom_site_type_symbol
  _atom_site_label
  _atom_site_symmetry_multiplicity
  _atom_site_fract_x
  _atom_site_fract_y
  _atom_site_fract_z
  _atom_site_occupancy
  Zn  Zn1       1.0  0.98974  0.64777  0.37440  1.0000
  Zn  Zn2       1.0  0.48974  0.35223  0.12559  1.0000
  Zn  Zn3       1.0  0.01025  0.35223  0.62560  1.0000
  Zn  Zn4       1.0  0.51026  0.64777  0.87440  1.0000
  H   H1        1.0  0.64367  0.61934  0.43645  1.0000
  H   H2        1.0  0.14367  0.38066  0.06355  1.0000
  H   H3        1.0  0.35633  0.38066  0.56355  1.0000
  H   H4        1.0  0.85634  0.61934  0.93645  1.0000
  H   H5        1.0  0.78517  0.57263  0.51941  1.0000
  H   H6        1.0  0.28517  0.42737  0.98059  1.0000
  H   H7        1.0  0.21483  0.42737  0.48059  1.0000
  H   H8        1.0  0.71483  0.57263  0.01941  1.0000
  H   H9        1.0  0.30006  0.74167  0.46614  1.0000
  H   H10       1.0  0.80006  0.25833  0.03386  1.0000
  H   H11       1.0  0.69994  0.25833  0.53385  1.0000
  H   H12       1.0  0.19994  0.74167  0.96615  1.0000
  H   H13       1.0  0.19968  0.62941  0.52584  1.0000
  H   H14       1.0  0.69968  0.37059  0.97417  1.0000
  H   H15       1.0  0.80032  0.37060  0.47416  1.0000
  H   H16       1.0  0.30033  0.62941  0.02583  1.0000
  H   H17       1.0  0.81209  0.24131  0.21023  1.0000
  H   H18       1.0  0.31209  0.75869  0.28977  1.0000
  H   H19       1.0  0.18791  0.75869  0.78977  1.0000
  H   H20       1.0  0.68791  0.24131  0.71023  1.0000
  H   H21       1.0  0.71722  0.38895  0.25987  1.0000
  H   H22       1.0  0.21722  0.61105  0.24013  1.0000
  H   H23       1.0  0.28278  0.61105  0.74013  1.0000
  H   H24       1.0  0.78278  0.38895  0.75987  1.0000
  H   H25       1.0  0.80504  0.04591  0.29095  1.0000
  H   H26       1.0  0.30505  0.95409  0.20905  1.0000
  H   H27       1.0  0.19495  0.95409  0.70905  1.0000
  H   H28       1.0  0.69496  0.04590  0.79095  1.0000
  H   H29       1.0  0.25338  0.96276  0.44394  1.0000
  H   H30       1.0  0.75338  0.03724  0.05606  1.0000
  H   H31       1.0  0.74662  0.03724  0.55606  1.0000
  H   H32       1.0  0.24662  0.96276  0.94394  1.0000
  H   H33       1.0  0.11446  0.19411  0.41374  1.0000
  H   H34       1.0  0.61446  0.80589  0.08626  1.0000
  H   H35       1.0  0.88554  0.80590  0.58626  1.0000
  H   H36       1.0  0.38554  0.19411  0.91374  1.0000
  C   C1        1.0  0.37443  0.25007  0.33152  1.0000
  C   C2        1.0  0.87443  0.74993  0.16848  1.0000
  C   C3        1.0  0.62557  0.74993  0.66848  1.0000
  C   C4        1.0  0.12557  0.25007  0.83152  1.0000
  C   C5        1.0  0.56916  0.20664  0.29460  1.0000
  C   C6        1.0  0.06916  0.79336  0.20540  1.0000
  C   C7        1.0  0.43084  0.79336  0.70540  1.0000
  C   C8        1.0  0.93084  0.20664  0.79460  1.0000
  C   C9        1.0  0.65199  0.07883  0.31626  1.0000
  C   C10       1.0  0.15199  0.92117  0.18374  1.0000
  C   C11       1.0  0.34801  0.92117  0.68374  1.0000
  C   C12       1.0  0.84801  0.07882  0.81626  1.0000
  C   C13       1.0  0.54080  0.99021  0.36952  1.0000
  C   C14       1.0  0.04080  0.00979  0.13048  1.0000
  C   C15       1.0  0.45920  0.00979  0.63048  1.0000
  C   C16       1.0  0.95920  0.99021  0.86952  1.0000
  C   C17       1.0  0.34370  0.03045  0.40292  1.0000
  C   C18       1.0  0.84371  0.96955  0.09708  1.0000
  C   C19       1.0  0.65629  0.96955  0.59708  1.0000
  C   C20       1.0  0.15629  0.03045  0.90292  1.0000
  C   C21       1.0  0.26504  0.16080  0.38571  1.0000
  C   C22       1.0  0.76505  0.83920  0.11429  1.0000
  C   C23       1.0  0.73495  0.83920  0.61429  1.0000
  C   C24       1.0  0.23495  0.16080  0.88571  1.0000
  C   C25       1.0  0.27489  0.38586  0.31225  1.0000
  C   C26       1.0  0.77489  0.61414  0.18775  1.0000
  C   C27       1.0  0.72511  0.61415  0.68775  1.0000
  C   C28       1.0  0.22511  0.38585  0.81225  1.0000
  C   C29       1.0  0.63625  0.85260  0.38797  1.0000
  C   C30       1.0  0.13625  0.14740  0.11203  1.0000
  C   C31       1.0  0.36375  0.14740  0.61203  1.0000
  C   C32       1.0  0.86376  0.85260  0.88797  1.0000
  N   N1        1.0  0.67862  0.28862  0.23429  1.0000
  N   N2        1.0  0.17862  0.71138  0.26571  1.0000
  N   N3        1.0  0.32138  0.71138  0.76571  1.0000
  N   N4        1.0  0.82138  0.28862  0.73429  1.0000
  O   O1        1.0  0.15953  0.44504  0.37388  1.0000
  O   O2        1.0  0.65953  0.55496  0.12612  1.0000
  O   O3        1.0  0.84047  0.55496  0.62612  1.0000
  O   O4        1.0  0.34047  0.44504  0.87388  1.0000
  O   O5        1.0  0.30295  0.43688  0.23636  1.0000
  O   O6        1.0  0.80296  0.56312  0.26364  1.0000
  O   O7        1.0  0.69705  0.56312  0.76364  1.0000
  O   O8        1.0  0.19704  0.43688  0.73636  1.0000
  O   O9        1.0  0.83228  0.84049  0.38099  1.0000
  O   O10       1.0  0.33229  0.15951  0.11900  1.0000
  O   O11       1.0  0.16771  0.15952  0.61901  1.0000
  O   O12       1.0  0.66772  0.84048  0.88099  1.0000
  O   O13       1.0  0.51331  0.75333  0.40734  1.0000
  O   O14       1.0  0.01332  0.24667  0.09266  1.0000
  O   O15       1.0  0.48668  0.24667  0.59266  1.0000
  O   O16       1.0  0.98669  0.75333  0.90734  1.0000
  O   O17       1.0  0.75915  0.55356  0.45299  1.0000
  O   O18       1.0  0.25915  0.44644  0.04701  1.0000
  O   O19       1.0  0.24085  0.44644  0.54701  1.0000
  O   O20       1.0  0.74085  0.55356  0.95299  1.0000
  O   O21       1.0  0.16397  0.71105  0.49161  1.0000
  O   O22       1.0  0.66397  0.28895  0.00839  1.0000
  O   O23       1.0  0.83602  0.28895  0.50839  1.0000
  O   O24       1.0  0.33603  0.71105  0.99161  1.0000
