data_image0
_chemical_formula_structural       Ag4H16C24N20
_chemical_formula_sum              "Ag4 H16 C24 N20"
_cell_length_a       7.24267
_cell_length_b       8.43024
_cell_length_c       11.1222
_cell_angle_alpha    90.0002
_cell_angle_beta     90.0001
_cell_angle_gamma    98.6566

_space_group_name_H-M_alt    "P 1"
_space_group_IT_number       1

loop_
  _space_group_symop_operation_xyz
  'x, y, z'

loop_
  _atom_site_type_symbol
  _atom_site_label
  _atom_site_symmetry_multiplicity
  _atom_site_fract_x
  _atom_site_fract_y
  _atom_site_fract_z
  _atom_site_occupancy
  Ag  Ag1       1.0  0.20648  0.85633  0.47993  1.0000
  Ag  Ag2       1.0  0.79352  0.64367  0.97993  1.0000
  Ag  Ag3       1.0  0.79352  0.14367  0.52007  1.0000
  Ag  Ag4       1.0  0.20648  0.35633  0.02007  1.0000
  H   H1        1.0  0.50472  0.97232  0.31604  1.0000
  H   H2        1.0  0.49527  0.52768  0.81603  1.0000
  H   H3        1.0  0.49528  0.02768  0.68396  1.0000
  H   H4        1.0  0.50472  0.47232  0.18397  1.0000
  H   H5        1.0  0.72751  0.81166  0.21884  1.0000
  H   H6        1.0  0.27250  0.68834  0.71884  1.0000
  H   H7        1.0  0.27250  0.18834  0.78116  1.0000
  H   H8        1.0  0.72751  0.31167  0.28116  1.0000
  H   H9        1.0  0.39691  0.73919  0.91344  1.0000
  H   H10       1.0  0.60309  0.76081  0.41344  1.0000
  H   H11       1.0  0.60309  0.26081  0.08656  1.0000
  H   H12       1.0  0.39691  0.23919  0.58656  1.0000
  H   H13       1.0  0.16078  0.89223  0.99791  1.0000
  H   H14       1.0  0.83922  0.60777  0.49791  1.0000
  H   H15       1.0  0.83922  0.10777  0.00209  1.0000
  H   H16       1.0  0.16078  0.39223  0.50209  1.0000
  C   C1        1.0  0.17041  0.02498  0.22087  1.0000
  C   C2        1.0  0.82958  0.47502  0.72087  1.0000
  C   C3        1.0  0.82959  0.97502  0.77913  1.0000
  C   C4        1.0  0.17041  0.52498  0.27913  1.0000
  C   C5        1.0  0.31158  0.94192  0.16582  1.0000
  C   C6        1.0  0.68842  0.55807  0.66582  1.0000
  C   C7        1.0  0.68842  0.05807  0.83418  1.0000
  C   C8        1.0  0.31158  0.44192  0.33418  1.0000
  C   C9        1.0  0.47448  0.91970  0.22735  1.0000
  C   C10       1.0  0.52552  0.58030  0.72734  1.0000
  C   C11       1.0  0.52552  0.08030  0.77265  1.0000
  C   C12       1.0  0.47448  0.41970  0.27265  1.0000
  C   C13       1.0  0.60001  0.83252  0.17319  1.0000
  C   C14       1.0  0.39999  0.66748  0.67319  1.0000
  C   C15       1.0  0.39999  0.16748  0.82681  1.0000
  C   C16       1.0  0.60001  0.33252  0.32681  1.0000
  C   C17       1.0  0.41644  0.79136  0.00278  1.0000
  C   C18       1.0  0.58356  0.70864  0.50278  1.0000
  C   C19       1.0  0.58355  0.20864  0.99722  1.0000
  C   C20       1.0  0.41645  0.29136  0.49722  1.0000
  C   C21       1.0  0.28484  0.87808  0.04979  1.0000
  C   C22       1.0  0.71517  0.62192  0.54979  1.0000
  C   C23       1.0  0.71516  0.12192  0.95021  1.0000
  C   C24       1.0  0.28483  0.37808  0.45021  1.0000
  N   N1        1.0  0.12255  0.01547  0.33818  1.0000
  N   N2        1.0  0.87745  0.48453  0.83818  1.0000
  N   N3        1.0  0.87745  0.98453  0.66182  1.0000
  N   N4        1.0  0.12255  0.51547  0.16182  1.0000
  N   N5        1.0  0.98023  0.10047  0.34866  1.0000
  N   N6        1.0  0.01977  0.39953  0.84866  1.0000
  N   N7        1.0  0.01977  0.89953  0.65134  1.0000
  N   N8        1.0  0.98023  0.60047  0.15134  1.0000
  N   N9        1.0  0.94526  0.16064  0.24270  1.0000
  N   N10       1.0  0.05474  0.33936  0.74269  1.0000
  N   N11       1.0  0.05474  0.83936  0.75731  1.0000
  N   N12       1.0  0.94526  0.66064  0.25731  1.0000
  N   N13       1.0  0.06196  0.11477  0.16043  1.0000
  N   N14       1.0  0.93804  0.38523  0.66043  1.0000
  N   N15       1.0  0.93804  0.88523  0.83957  1.0000
  N   N16       1.0  0.06196  0.61477  0.33957  1.0000
  N   N17       1.0  0.57147  0.76659  0.06280  1.0000
  N   N18       1.0  0.42852  0.73341  0.56280  1.0000
  N   N19       1.0  0.42853  0.23341  0.93720  1.0000
  N   N20       1.0  0.57147  0.26659  0.43720  1.0000
