data_image0
_chemical_formula_structural       Ag2H6C10N4O4
_chemical_formula_sum              "Ag2 H6 C10 N4 O4"
_cell_length_a       5.51497
_cell_length_b       6.82929
_cell_length_c       7.81307
_cell_angle_alpha    105.025
_cell_angle_beta     87.1167
_cell_angle_gamma    81.0346

_space_group_name_H-M_alt    "P 1"
_space_group_IT_number       1

loop_
  _space_group_symop_operation_xyz
  'x, y, z'

loop_
  _atom_site_type_symbol
  _atom_site_label
  _atom_site_symmetry_multiplicity
  _atom_site_fract_x
  _atom_site_fract_y
  _atom_site_fract_z
  _atom_site_occupancy
  Ag  Ag1       1.0  0.98758  0.78479  0.60640  1.0000
  Ag  Ag2       1.0  0.01242  0.21517  0.39356  1.0000
  H   H1        1.0  0.71987  0.13245  0.97327  1.0000
  H   H2        1.0  0.28017  0.86754  0.02671  1.0000
  H   H3        1.0  0.31657  0.36507  0.07757  1.0000
  H   H4        1.0  0.68348  0.63496  0.92244  1.0000
  H   H5        1.0  0.01155  0.38881  0.83886  1.0000
  H   H6        1.0  0.98842  0.61123  0.16120  1.0000
  C   C1        1.0  0.47049  0.05938  0.59535  1.0000
  C   C2        1.0  0.52951  0.94064  0.40467  1.0000
  C   C3        1.0  0.58297  0.14766  0.87935  1.0000
  C   C4        1.0  0.41699  0.85231  0.12064  1.0000
  C   C5        1.0  0.35694  0.27830  0.93747  1.0000
  C   C6        1.0  0.64308  0.72173  0.06254  1.0000
  C   C7        1.0  0.19281  0.29084  0.80988  1.0000
  C   C8        1.0  0.80721  0.70918  0.19011  1.0000
  C   C9        1.0  0.52029  0.54701  0.60008  1.0000
  C   C10       1.0  0.47972  0.45297  0.39992  1.0000
  N   N1        1.0  0.64075  0.03664  0.70937  1.0000
  N   N2        1.0  0.35919  0.96336  0.29063  1.0000
  N   N3        1.0  0.25005  0.18176  0.63947  1.0000
  N   N4        1.0  0.74992  0.81822  0.36051  1.0000
  O   O1        1.0  0.34594  0.67726  0.70005  1.0000
  O   O2        1.0  0.65406  0.32271  0.29996  1.0000
  O   O3        1.0  0.72619  0.48860  0.65190  1.0000
  O   O4        1.0  0.27383  0.51140  0.34812  1.0000
