data_image0
_chemical_formula_structural       Cd2H40C38N4O14
_chemical_formula_sum              "Cd2 H40 C38 N4 O14"
_cell_length_a       5.66619
_cell_length_b       12.8445
_cell_length_c       13.8927
_cell_angle_alpha    114.61
_cell_angle_beta     95.0329
_cell_angle_gamma    93.4656

_space_group_name_H-M_alt    "P 1"
_space_group_IT_number       1

loop_
  _space_group_symop_operation_xyz
  'x, y, z'

loop_
  _atom_site_type_symbol
  _atom_site_label
  _atom_site_symmetry_multiplicity
  _atom_site_fract_x
  _atom_site_fract_y
  _atom_site_fract_z
  _atom_site_occupancy
  Cd  Cd1       1.0  0.83005  0.26993  0.27668  1.0000
  Cd  Cd2       1.0  0.16994  0.73008  0.72332  1.0000
  H   H1        1.0  0.24935  0.75817  0.35722  1.0000
  H   H2        1.0  0.75065  0.24184  0.64278  1.0000
  H   H3        1.0  0.37026  0.87263  0.25872  1.0000
  H   H4        1.0  0.62974  0.12736  0.74129  1.0000
  H   H5        1.0  0.66509  0.79769  0.08953  1.0000
  H   H6        1.0  0.33491  0.20230  0.91047  1.0000
  H   H7        1.0  0.54656  0.68321  0.18935  1.0000
  H   H8        1.0  0.45341  0.31676  0.81064  1.0000
  H   H9        1.0  0.06784  0.85972  0.02122  1.0000
  H   H10       1.0  0.93219  0.14028  0.97879  1.0000
  H   H11       1.0  0.29192  0.94253  0.12889  1.0000
  H   H12       1.0  0.70810  0.05748  0.87111  1.0000
  H   H13       1.0  0.25409  0.42295  0.23894  1.0000
  H   H14       1.0  0.74591  0.57705  0.76105  1.0000
  H   H15       1.0  0.33598  0.52259  0.12876  1.0000
  H   H16       1.0  0.66402  0.47741  0.87123  1.0000
  H   H17       1.0  0.61442  0.40010  0.96784  1.0000
  H   H18       1.0  0.38558  0.59990  0.03215  1.0000
  H   H19       1.0  0.56762  0.30141  0.08622  1.0000
  H   H20       1.0  0.43236  0.69859  0.91377  1.0000
  H   H21       1.0  0.98679  0.06577  0.33334  1.0000
  H   H22       1.0  0.01323  0.93424  0.66667  1.0000
  H   H23       1.0  0.85090  0.94137  0.41709  1.0000
  H   H24       1.0  0.14912  0.05863  0.58292  1.0000
  H   H25       1.0  0.26307  0.15012  0.50793  1.0000
  H   H26       1.0  0.73696  0.84988  0.49208  1.0000
  H   H27       1.0  0.41742  0.25857  0.41415  1.0000
  H   H28       1.0  0.58257  0.74144  0.58585  1.0000
  H   H29       1.0  0.12140  0.36947  0.48011  1.0000
  H   H30       1.0  0.87858  0.63053  0.51990  1.0000
  H   H31       1.0  0.29848  0.39790  0.40318  1.0000
  H   H32       1.0  0.70150  0.60209  0.59683  1.0000
  H   H33       1.0  0.61149  0.48869  0.35102  1.0000
  H   H34       1.0  0.38851  0.51131  0.64898  1.0000
  H   H35       1.0  0.70685  0.46119  0.44862  1.0000
  H   H36       1.0  0.29314  0.53880  0.55139  1.0000
  H   H37       1.0  0.33739  0.15415  0.17100  1.0000
  H   H38       1.0  0.66261  0.84585  0.82900  1.0000
  H   H39       1.0  0.56654  0.10248  0.11657  1.0000
  H   H40       1.0  0.43345  0.89752  0.88343  1.0000
  C   C1        1.0  0.81562  0.64640  0.34139  1.0000
  C   C2        1.0  0.18437  0.35360  0.65861  1.0000
  C   C3        1.0  0.88980  0.71312  0.27959  1.0000
  C   C4        1.0  0.11019  0.28688  0.72041  1.0000
  C   C5        1.0  0.12183  0.76762  0.29881  1.0000
  C   C6        1.0  0.87817  0.23239  0.70120  1.0000
  C   C7        1.0  0.18842  0.83145  0.24320  1.0000
  C   C8        1.0  0.81158  0.16855  0.75681  1.0000
  C   C9        1.0  0.02628  0.84306  0.16685  1.0000
  C   C10       1.0  0.97372  0.15694  0.83316  1.0000
  C   C11       1.0  0.79387  0.78796  0.14758  1.0000
  C   C12       1.0  0.20614  0.21204  0.85242  1.0000
  C   C13       1.0  0.72804  0.72387  0.20277  1.0000
  C   C14       1.0  0.27195  0.27611  0.79722  1.0000
  C   C15       1.0  0.10094  0.91311  0.10774  1.0000
  C   C16       1.0  0.89908  0.08689  0.89228  1.0000
  C   C17       1.0  0.95547  0.01624  0.13034  1.0000
  C   C18       1.0  0.04453  0.98376  0.86967  1.0000
  C   C19       1.0  0.11718  0.41845  0.17695  1.0000
  C   C20       1.0  0.88283  0.58154  0.82304  1.0000
  C   C21       1.0  0.16078  0.47538  0.11355  1.0000
  C   C22       1.0  0.83922  0.52460  0.88644  1.0000
  C   C23       1.0  0.98133  0.47077  0.03506  1.0000
  C   C24       1.0  0.01865  0.52922  0.96492  1.0000
  C   C25       1.0  0.76320  0.40781  0.02620  1.0000
  C   C26       1.0  0.23679  0.59218  0.97379  1.0000
  C   C27       1.0  0.73342  0.35257  0.09204  1.0000
  C   C28       1.0  0.26659  0.64742  0.90797  1.0000
  C   C29       1.0  0.82626  0.08053  0.37264  1.0000
  C   C30       1.0  0.17375  0.91948  0.62736  1.0000
  C   C31       1.0  0.74929  0.01199  0.42130  1.0000
  C   C32       1.0  0.25074  0.98802  0.57869  1.0000
  C   C33       1.0  0.54352  0.03451  0.47279  1.0000
  C   C34       1.0  0.45649  0.96549  0.52722  1.0000
  C   C35       1.0  0.42376  0.12589  0.47032  1.0000
  C   C36       1.0  0.57625  0.87412  0.52967  1.0000
  C   C37       1.0  0.51050  0.18875  0.41815  1.0000
  C   C38       1.0  0.48952  0.81126  0.58184  1.0000
  N   N1        1.0  0.70908  0.16738  0.37036  1.0000
  N   N2        1.0  0.29093  0.83263  0.62964  1.0000
  N   N3        1.0  0.90811  0.35723  0.16634  1.0000
  N   N4        1.0  0.09189  0.64277  0.83365  1.0000
  O   O1        1.0  0.93924  0.67024  0.43038  1.0000
  O   O2        1.0  0.06075  0.32977  0.56962  1.0000
  O   O3        1.0  0.63220  0.57224  0.30104  1.0000
  O   O4        1.0  0.36779  0.42776  0.69896  1.0000
  O   O5        1.0  0.06271  0.11724  0.19280  1.0000
  O   O6        1.0  0.93729  0.88277  0.80720  1.0000
  O   O7        1.0  0.74178  0.99634  0.08967  1.0000
  O   O8        1.0  0.25822  0.00366  0.91034  1.0000
  O   O9        1.0  0.13066  0.39164  0.41758  1.0000
  O   O10       1.0  0.86932  0.60836  0.58242  1.0000
  O   O11       1.0  0.59961  0.42600  0.38112  1.0000
  O   O12       1.0  0.40039  0.57400  0.61888  1.0000
  O   O13       1.0  0.49249  0.17621  0.15193  1.0000
  O   O14       1.0  0.50751  0.82379  0.84807  1.0000
