data_image0
_chemical_formula_structural       Zn2H30C30N6O10
_chemical_formula_sum              "Zn2 H30 C30 N6 O10"
_cell_length_a       7.79264
_cell_length_b       8.98649
_cell_length_c       11.0174
_cell_angle_alpha    86.0059
_cell_angle_beta     79.388
_cell_angle_gamma    81.1994

_space_group_name_H-M_alt    "P 1"
_space_group_IT_number       1

loop_
  _space_group_symop_operation_xyz
  'x, y, z'

loop_
  _atom_site_type_symbol
  _atom_site_label
  _atom_site_symmetry_multiplicity
  _atom_site_fract_x
  _atom_site_fract_y
  _atom_site_fract_z
  _atom_site_occupancy
  Zn  Zn1       1.0  0.37066  0.38942  0.42112  1.0000
  Zn  Zn2       1.0  0.62934  0.61058  0.57888  1.0000
  H   H1        1.0  0.44598  0.09859  0.55654  1.0000
  H   H2        1.0  0.55402  0.90140  0.44345  1.0000
  H   H3        1.0  0.32981  0.95199  0.74651  1.0000
  H   H4        1.0  0.67019  0.04800  0.25349  1.0000
  H   H5        1.0  0.08095  0.07611  0.90083  1.0000
  H   H6        1.0  0.91905  0.92389  0.09917  1.0000
  H   H7        1.0  0.07960  0.47450  0.65737  1.0000
  H   H8        1.0  0.92040  0.52550  0.34263  1.0000
  H   H9        1.0  0.89641  0.48248  0.83937  1.0000
  H   H10       1.0  0.10359  0.51753  0.16063  1.0000
  H   H11       1.0  0.65033  0.28045  0.20507  1.0000
  H   H12       1.0  0.34968  0.71955  0.79493  1.0000
  H   H13       1.0  0.35943  0.70195  0.26547  1.0000
  H   H14       1.0  0.64056  0.29805  0.73453  1.0000
  H   H15       1.0  0.52627  0.81170  0.07272  1.0000
  H   H16       1.0  0.47371  0.18830  0.92729  1.0000
  H   H17       1.0  0.76218  0.64419  0.94024  1.0000
  H   H18       1.0  0.23781  0.35582  0.05976  1.0000
  H   H19       1.0  0.82404  0.07197  0.53853  1.0000
  H   H20       1.0  0.17596  0.92803  0.46147  1.0000
  H   H21       1.0  0.00649  0.17649  0.52147  1.0000
  H   H22       1.0  0.99351  0.82351  0.47853  1.0000
  H   H23       1.0  0.92199  0.13102  0.38977  1.0000
  H   H24       1.0  0.07801  0.86898  0.61023  1.0000
  H   H25       1.0  0.11419  0.09711  0.14706  1.0000
  H   H26       1.0  0.88580  0.90288  0.85293  1.0000
  H   H27       1.0  0.23596  0.97903  0.25026  1.0000
  H   H28       1.0  0.76403  0.02097  0.74974  1.0000
  H   H29       1.0  0.34972  0.06892  0.11914  1.0000
  H   H30       1.0  0.65028  0.93107  0.88086  1.0000
  C   C1        1.0  0.33666  0.14800  0.62477  1.0000
  C   C2        1.0  0.66334  0.85199  0.37523  1.0000
  C   C3        1.0  0.27107  0.06799  0.73103  1.0000
  C   C4        1.0  0.72893  0.93201  0.26897  1.0000
  C   C5        1.0  0.13282  0.13678  0.81694  1.0000
  C   C6        1.0  0.86718  0.86322  0.18305  1.0000
  C   C7        1.0  0.06397  0.28755  0.79306  1.0000
  C   C8        1.0  0.93604  0.71246  0.20694  1.0000
  C   C9        1.0  0.13437  0.35960  0.68122  1.0000
  C   C10       1.0  0.86563  0.64040  0.31878  1.0000
  C   C11       1.0  0.85002  0.32887  0.98815  1.0000
  C   C12       1.0  0.14999  0.67113  0.01186  1.0000
  C   C13       1.0  0.72002  0.44601  0.05999  1.0000
  C   C14       1.0  0.27998  0.55400  0.94001  1.0000
  C   C15       1.0  0.62434  0.39716  0.17215  1.0000
  C   C16       1.0  0.37566  0.60285  0.82785  1.0000
  C   C17       1.0  0.46428  0.63311  0.20600  1.0000
  C   C18       1.0  0.53571  0.36689  0.79400  1.0000
  C   C19       1.0  0.55651  0.69260  0.09803  1.0000
  C   C20       1.0  0.44348  0.30740  0.90197  1.0000
  C   C21       1.0  0.68728  0.59865  0.02431  1.0000
  C   C22       1.0  0.31272  0.40136  0.97568  1.0000
  C   C23       1.0  0.75698  0.30591  0.49454  1.0000
  C   C24       1.0  0.24302  0.69409  0.50546  1.0000
  C   C25       1.0  0.88770  0.16342  0.48625  1.0000
  C   C26       1.0  0.11230  0.83658  0.51375  1.0000
  C   C27       1.0  0.23517  0.21774  0.26505  1.0000
  C   C28       1.0  0.76482  0.78226  0.73495  1.0000
  C   C29       1.0  0.23082  0.08243  0.19118  1.0000
  C   C30       1.0  0.76918  0.91756  0.80882  1.0000
  N   N1        1.0  0.26743  0.29154  0.60003  1.0000
  N   N2        1.0  0.73257  0.70845  0.39997  1.0000
  N   N3        1.0  0.93183  0.37424  0.87336  1.0000
  N   N4        1.0  0.06817  0.62577  0.12664  1.0000
  N   N5        1.0  0.49959  0.48781  0.24371  1.0000
  N   N6        1.0  0.50041  0.51219  0.75630  1.0000
  O   O1        1.0  0.87721  0.19854  0.03291  1.0000
  O   O2        1.0  0.12281  0.80146  0.96710  1.0000
  O   O3        1.0  0.62101  0.30550  0.44703  1.0000
  O   O4        1.0  0.37900  0.69450  0.55297  1.0000
  O   O5        1.0  0.79105  0.41522  0.55025  1.0000
  O   O6        1.0  0.20895  0.58477  0.44975  1.0000
  O   O7        1.0  0.34645  0.19956  0.33959  1.0000
  O   O8        1.0  0.65356  0.80044  0.66041  1.0000
  O   O9        1.0  0.13573  0.33967  0.24955  1.0000
  O   O10       1.0  0.86427  0.66032  0.75045  1.0000
