data_image0
_chemical_formula_structural       CdH18C22N8O8
_chemical_formula_sum              "Cd1 H18 C22 N8 O8"
_cell_length_a       7.79987
_cell_length_b       8.25563
_cell_length_c       9.91381
_cell_angle_alpha    93.5275
_cell_angle_beta     97.3641
_cell_angle_gamma    112.67

_space_group_name_H-M_alt    "P 1"
_space_group_IT_number       1

loop_
  _space_group_symop_operation_xyz
  'x, y, z'

loop_
  _atom_site_type_symbol
  _atom_site_label
  _atom_site_symmetry_multiplicity
  _atom_site_fract_x
  _atom_site_fract_y
  _atom_site_fract_z
  _atom_site_occupancy
  Cd  Cd1       1.0  0.50000  0.50000  1.00000  1.0000
  H   H1        1.0  0.51788  0.12665  0.86321  1.0000
  H   H2        1.0  0.48212  0.87335  0.13679  1.0000
  H   H3        1.0  0.40916  0.92723  0.64035  1.0000
  H   H4        1.0  0.59084  0.07277  0.35965  1.0000
  H   H5        1.0  0.26346  0.02075  0.43751  1.0000
  H   H6        1.0  0.73654  0.97925  0.56249  1.0000
  H   H7        1.0  0.36131  0.50383  0.68703  1.0000
  H   H8        1.0  0.63869  0.49617  0.31297  1.0000
  H   H9        1.0  0.17384  0.22623  0.34572  1.0000
  H   H10       1.0  0.82616  0.77377  0.65428  1.0000
  H   H11       1.0  0.89958  0.18205  0.25761  1.0000
  H   H12       1.0  0.10042  0.81795  0.74239  1.0000
  H   H13       1.0  0.65542  0.20084  0.08182  1.0000
  H   H14       1.0  0.34458  0.79916  0.91818  1.0000
  H   H15       1.0  0.93315  0.74634  0.10480  1.0000
  H   H16       1.0  0.06685  0.25365  0.89520  1.0000
  H   H17       1.0  0.18146  0.75129  0.29038  1.0000
  H   H18       1.0  0.81854  0.24870  0.70962  1.0000
  C   C1        1.0  0.45612  0.16429  0.77213  1.0000
  C   C2        1.0  0.54388  0.83571  0.22787  1.0000
  C   C3        1.0  0.39598  0.05395  0.64819  1.0000
  C   C4        1.0  0.60402  0.94605  0.35181  1.0000
  C   C5        1.0  0.31491  0.10556  0.53512  1.0000
  C   C6        1.0  0.68509  0.89444  0.46487  1.0000
  C   C7        1.0  0.30031  0.27017  0.54668  1.0000
  C   C8        1.0  0.69969  0.72983  0.45331  1.0000
  C   C9        1.0  0.36721  0.37469  0.67445  1.0000
  C   C10       1.0  0.63279  0.62531  0.32555  1.0000
  C   C11       1.0  0.19088  0.47180  0.41864  1.0000
  C   C12       1.0  0.80912  0.52820  0.58136  1.0000
  C   C13       1.0  0.06032  0.46709  0.29165  1.0000
  C   C14       1.0  0.93968  0.53291  0.70835  1.0000
  C   C15       1.0  0.91410  0.31046  0.22742  1.0000
  C   C16       1.0  0.08590  0.68954  0.77258  1.0000
  C   C17       1.0  0.77680  0.31956  0.12769  1.0000
  C   C18       1.0  0.22320  0.68044  0.87231  1.0000
  C   C19       1.0  0.93014  0.62355  0.14116  1.0000
  C   C20       1.0  0.06986  0.37645  0.85884  1.0000
  C   C21       1.0  0.06963  0.62604  0.24457  1.0000
  C   C22       1.0  0.93037  0.37396  0.75543  1.0000
  N   N1        1.0  0.43962  0.32037  0.78451  1.0000
  N   N2        1.0  0.56038  0.67963  0.21549  1.0000
  N   N3        1.0  0.21457  0.31734  0.43228  1.0000
  N   N4        1.0  0.78543  0.68266  0.56772  1.0000
  N   N5        1.0  0.78197  0.47339  0.08659  1.0000
  N   N6        1.0  0.21803  0.52661  0.91341  1.0000
  N   N7        1.0  0.25696  0.12552  0.13018  1.0000
  N   N8        1.0  0.74304  0.87448  0.86982  1.0000
  O   O1        1.0  0.26086  0.60518  0.50461  1.0000
  O   O2        1.0  0.73914  0.39482  0.49539  1.0000
  O   O3        1.0  0.31388  0.29454  0.13986  1.0000
  O   O4        1.0  0.68612  0.70546  0.86014  1.0000
  O   O5        1.0  0.14620  0.04477  0.21018  1.0000
  O   O6        1.0  0.85380  0.95523  0.78982  1.0000
  O   O7        1.0  0.30982  0.04384  0.04524  1.0000
  O   O8        1.0  0.69018  0.95616  0.95476  1.0000
