data_image0
_chemical_formula_structural       CdH24C24Br2N12
_chemical_formula_sum              "Cd1 H24 C24 Br2 N12"
_cell_length_a       7.76014
_cell_length_b       8.94602
_cell_length_c       11.3791
_cell_angle_alpha    105.347
_cell_angle_beta     90.8186
_cell_angle_gamma    112.695

_space_group_name_H-M_alt    "P 1"
_space_group_IT_number       1

loop_
  _space_group_symop_operation_xyz
  'x, y, z'

loop_
  _atom_site_type_symbol
  _atom_site_label
  _atom_site_symmetry_multiplicity
  _atom_site_fract_x
  _atom_site_fract_y
  _atom_site_fract_z
  _atom_site_occupancy
  Cd  Cd1       1.0  0.50000  1.00000  0.00000  1.0000
  H   H1        1.0  0.29667  0.49050  0.62929  1.0000
  H   H2        1.0  0.70333  0.50950  0.37071  1.0000
  H   H3        1.0  0.87680  0.10579  0.33891  1.0000
  H   H4        1.0  0.12321  0.89422  0.66108  1.0000
  H   H5        1.0  0.69694  0.97818  0.49405  1.0000
  H   H6        1.0  0.30307  0.02183  0.50595  1.0000
  H   H7        1.0  0.82022  0.10797  0.71627  1.0000
  H   H8        1.0  0.17978  0.89203  0.28373  1.0000
  H   H9        1.0  0.21359  0.52148  0.84713  1.0000
  H   H10       1.0  0.78641  0.47852  0.15287  1.0000
  H   H11       1.0  0.04428  0.34236  0.88151  1.0000
  H   H12       1.0  0.95572  0.65763  0.11849  1.0000
  H   H13       1.0  0.11502  0.38347  0.30790  1.0000
  H   H14       1.0  0.88498  0.61653  0.69210  1.0000
  H   H15       1.0  0.31008  0.51449  0.42642  1.0000
  H   H16       1.0  0.68992  0.48551  0.57358  1.0000
  H   H17       1.0  0.71727  0.35861  0.87487  1.0000
  H   H18       1.0  0.28273  0.64139  0.12514  1.0000
  H   H19       1.0  0.14476  0.10891  0.90698  1.0000
  H   H20       1.0  0.85524  0.89109  0.09302  1.0000
  H   H21       1.0  0.61784  0.13465  0.32383  1.0000
  H   H22       1.0  0.38216  0.86535  0.67617  1.0000
  H   H23       1.0  0.20304  0.20899  0.13296  1.0000
  H   H24       1.0  0.79696  0.79101  0.86704  1.0000
  C   C1        1.0  0.06714  0.30746  0.68728  1.0000
  C   C2        1.0  0.93286  0.69254  0.31272  1.0000
  C   C3        1.0  0.16436  0.37911  0.59991  1.0000
  C   C4        1.0  0.83564  0.62088  0.40009  1.0000
  C   C5        1.0  0.09584  0.30850  0.47508  1.0000
  C   C6        1.0  0.90416  0.69151  0.52492  1.0000
  C   C7        1.0  0.92712  0.16340  0.43708  1.0000
  C   C8        1.0  0.07288  0.83660  0.56292  1.0000
  C   C9        1.0  0.82710  0.09232  0.52345  1.0000
  C   C10       1.0  0.17290  0.90768  0.47654  1.0000
  C   C11       1.0  0.89698  0.16426  0.64847  1.0000
  C   C12       1.0  0.10302  0.83574  0.35153  1.0000
  C   C13       1.0  0.15087  0.38251  0.82080  1.0000
  C   C14       1.0  0.84914  0.61748  0.17920  1.0000
  C   C15       1.0  0.20741  0.38421  0.38238  1.0000
  C   C16       1.0  0.79259  0.61580  0.61762  1.0000
  C   C17       1.0  0.56653  0.32422  0.87087  1.0000
  C   C18       1.0  0.43347  0.67578  0.12913  1.0000
  C   C19       1.0  0.27781  0.19459  0.88833  1.0000
  C   C20       1.0  0.72219  0.80540  0.11167  1.0000
  C   C21       1.0  0.50790  0.17360  0.30290  1.0000
  C   C22       1.0  0.49210  0.82640  0.69710  1.0000
  C   C23       1.0  0.30134  0.21023  0.20257  1.0000
  C   C24       1.0  0.69865  0.78977  0.79743  1.0000
  Br  Br1       1.0  0.11684  0.78853  0.93505  1.0000
  Br  Br2       1.0  0.88316  0.21147  0.06495  1.0000
  N   N1        1.0  0.29872  0.32876  0.84905  1.0000
  N   N2        1.0  0.70128  0.67124  0.15095  1.0000
  N   N3        1.0  0.48260  0.41327  0.83646  1.0000
  N   N4        1.0  0.51740  0.58673  0.16355  1.0000
  N   N5        1.0  0.44574  0.18792  0.90337  1.0000
  N   N6        1.0  0.55426  0.81208  0.09664  1.0000
  N   N7        1.0  0.31164  0.28516  0.32294  1.0000
  N   N8        1.0  0.68837  0.71484  0.67706  1.0000
  N   N9        1.0  0.44314  0.26320  0.38913  1.0000
  N   N10       1.0  0.55687  0.73680  0.61087  1.0000
  N   N11       1.0  0.42478  0.13801  0.18669  1.0000
  N   N12       1.0  0.57522  0.86199  0.81331  1.0000
