data_image0
_chemical_formula_structural       CdH24C24N12Cl2
_chemical_formula_sum              "Cd1 H24 C24 N12 Cl2"
_cell_length_a       7.5618
_cell_length_b       8.82939
_cell_length_c       11.3344
_cell_angle_alpha    105.642
_cell_angle_beta     90.4126
_cell_angle_gamma    111.592

_space_group_name_H-M_alt    "P 1"
_space_group_IT_number       1

loop_
  _space_group_symop_operation_xyz
  'x, y, z'

loop_
  _atom_site_type_symbol
  _atom_site_label
  _atom_site_symmetry_multiplicity
  _atom_site_fract_x
  _atom_site_fract_y
  _atom_site_fract_z
  _atom_site_occupancy
  Cd  Cd1       1.0  1.00000  0.50000  0.50000  1.0000
  H   H1        1.0  0.23191  0.00654  0.86828  1.0000
  H   H2        1.0  0.76809  0.99346  0.13172  1.0000
  H   H3        1.0  0.69931  0.40456  0.78393  1.0000
  H   H4        1.0  0.30069  0.59544  0.21607  1.0000
  H   H5        1.0  0.81517  0.53817  0.00782  1.0000
  H   H6        1.0  0.18483  0.46183  0.99218  1.0000
  H   H7        1.0  0.63455  0.40536  0.16220  1.0000
  H   H8        1.0  0.36545  0.59465  0.83780  1.0000
  H   H9        1.0  0.21782  0.98196  0.07203  1.0000
  H   H10       1.0  0.78218  0.01804  0.92797  1.0000
  H   H11       1.0  0.41308  0.11634  0.19069  1.0000
  H   H12       1.0  0.58692  0.88366  0.80931  1.0000
  H   H13       1.0  0.48521  0.16778  0.61702  1.0000
  H   H14       1.0  0.51479  0.83222  0.38298  1.0000
  H   H15       1.0  0.32054  0.98250  0.64917  1.0000
  H   H16       1.0  0.67946  0.01750  0.35082  1.0000
  H   H17       1.0  0.87055  0.34373  0.18128  1.0000
  H   H18       1.0  0.12945  0.65627  0.81872  1.0000
  H   H19       1.0  0.32519  0.29829  0.36640  1.0000
  H   H20       1.0  0.67481  0.70171  0.63359  1.0000
  H   H21       1.0  0.79050  0.13973  0.63174  1.0000
  H   H22       1.0  0.20950  0.86027  0.36826  1.0000
  H   H23       1.0  0.36752  0.39417  0.59088  1.0000
  H   H24       1.0  0.63248  0.60584  0.40911  1.0000
  C   C1        1.0  0.42586  0.19427  0.02420  1.0000
  C   C2        1.0  0.57414  0.80573  0.97580  1.0000
  C   C3        1.0  0.36109  0.12188  0.89857  1.0000
  C   C4        1.0  0.63892  0.87812  0.10143  1.0000
  C   C5        1.0  0.45724  0.19770  0.81162  1.0000
  C   C6        1.0  0.54277  0.80230  0.18838  1.0000
  C   C7        1.0  0.62301  0.34609  0.85169  1.0000
  C   C8        1.0  0.37699  0.65391  0.14831  1.0000
  C   C9        1.0  0.68876  0.42009  0.97748  1.0000
  C   C10       1.0  0.31124  0.57992  0.02252  1.0000
  C   C11       1.0  0.58886  0.34549  0.06341  1.0000
  C   C12       1.0  0.41114  0.65451  0.93659  1.0000
  C   C13       1.0  0.31620  0.11388  0.11682  1.0000
  C   C14       1.0  0.68380  0.88612  0.88318  1.0000
  C   C15       1.0  0.37667  0.12237  0.67707  1.0000
  C   C16       1.0  0.62333  0.87763  0.32293  1.0000
  C   C17       1.0  0.99009  0.31107  0.20069  1.0000
  C   C18       1.0  0.00991  0.68893  0.79931  1.0000
  C   C19       1.0  0.21682  0.28960  0.29838  1.0000
  C   C20       1.0  0.78318  0.71040  0.70162  1.0000
  C   C21       1.0  0.94411  0.17545  0.63287  1.0000
  C   C22       1.0  0.05589  0.82454  0.36713  1.0000
  C   C23       1.0  0.23470  0.30749  0.61119  1.0000
  C   C24       1.0  0.76530  0.69251  0.38881  1.0000
  N   N1        1.0  0.20203  0.20800  0.17792  1.0000
  N   N2        1.0  0.79797  0.79200  0.82208  1.0000
  N   N3        1.0  0.05804  0.22049  0.11338  1.0000
  N   N4        1.0  0.94196  0.77951  0.88662  1.0000
  N   N5        1.0  0.08327  0.35653  0.31585  1.0000
  N   N6        1.0  0.91673  0.64347  0.68415  1.0000
  N   N7        1.0  0.22023  0.17259  0.64959  1.0000
  N   N8        1.0  0.77977  0.82741  0.35041  1.0000
  N   N9        1.0  0.03522  0.08652  0.66492  1.0000
  N   N10       1.0  0.96479  0.91348  0.33509  1.0000
  N   N11       1.0  0.06134  0.31322  0.59951  1.0000
  N   N12       1.0  0.93866  0.68677  0.40049  1.0000
  Cl  Cl1       1.0  0.36858  0.70187  0.56282  1.0000
  Cl  Cl2       1.0  0.63142  0.29813  0.43718  1.0000
