data_image0
_chemical_formula_structural       Cu4H28C24N28
_chemical_formula_sum              "Cu4 H28 C24 N28"
_cell_length_a       8.20746
_cell_length_b       8.95288
_cell_length_c       13.0695
_cell_angle_alpha    90.0083
_cell_angle_beta     89.9261
_cell_angle_gamma    112.04

_space_group_name_H-M_alt    "P 1"
_space_group_IT_number       1

loop_
  _space_group_symop_operation_xyz
  'x, y, z'

loop_
  _atom_site_type_symbol
  _atom_site_label
  _atom_site_symmetry_multiplicity
  _atom_site_fract_x
  _atom_site_fract_y
  _atom_site_fract_z
  _atom_site_occupancy
  Cu  Cu1       1.0  0.90913  0.91233  0.89360  1.0000
  Cu  Cu2       1.0  0.59052  0.08723  0.39728  1.0000
  Cu  Cu3       1.0  0.09087  0.08768  0.10641  1.0000
  Cu  Cu4       1.0  0.40948  0.91278  0.60272  1.0000
  H   H1        1.0  0.26970  0.54347  0.90419  1.0000
  H   H2        1.0  0.23020  0.45674  0.40437  1.0000
  H   H3        1.0  0.73030  0.45652  0.09581  1.0000
  H   H4        1.0  0.76980  0.54326  0.59563  1.0000
  H   H5        1.0  0.31925  0.29957  0.83855  1.0000
  H   H6        1.0  0.18055  0.70048  0.33873  1.0000
  H   H7        1.0  0.68075  0.70043  0.16145  1.0000
  H   H8        1.0  0.81945  0.29952  0.66127  1.0000
  H   H9        1.0  0.62780  0.32030  0.80577  1.0000
  H   H10       1.0  0.87191  0.67925  0.30614  1.0000
  H   H11       1.0  0.37220  0.67970  0.19422  1.0000
  H   H12       1.0  0.12809  0.32075  0.69386  1.0000
  H   H13       1.0  0.87445  0.58628  0.83605  1.0000
  H   H14       1.0  0.62547  0.41291  0.33588  1.0000
  H   H15       1.0  0.12555  0.41372  0.16395  1.0000
  H   H16       1.0  0.37453  0.58709  0.66411  1.0000
  H   H17       1.0  0.55752  0.93452  0.88755  1.0000
  H   H18       1.0  0.94263  0.06514  0.38761  1.0000
  H   H19       1.0  0.44248  0.06548  0.11246  1.0000
  H   H20       1.0  0.05737  0.93486  0.61239  1.0000
  H   H21       1.0  0.61133  0.88644  0.01126  1.0000
  H   H22       1.0  0.88877  0.11364  0.51133  1.0000
  H   H23       1.0  0.38867  0.11356  0.98874  1.0000
  H   H24       1.0  0.11123  0.88636  0.48868  1.0000
  H   H25       1.0  0.38727  0.81087  0.97009  1.0000
  H   H26       1.0  0.11271  0.18905  0.46990  1.0000
  H   H27       1.0  0.61272  0.18913  0.02991  1.0000
  H   H28       1.0  0.88729  0.81095  0.53010  1.0000
  C   C1        1.0  0.54490  0.69164  0.90413  1.0000
  C   C2        1.0  0.95530  0.30816  0.40396  1.0000
  C   C3        1.0  0.45510  0.30836  0.09587  1.0000
  C   C4        1.0  0.04470  0.69184  0.59604  1.0000
  C   C5        1.0  0.40157  0.54775  0.88769  1.0000
  C   C6        1.0  0.09844  0.45220  0.38765  1.0000
  C   C7        1.0  0.59843  0.45225  0.11231  1.0000
  C   C8        1.0  0.90156  0.54780  0.61235  1.0000
  C   C9        1.0  0.42942  0.41301  0.85108  1.0000
  C   C10       1.0  0.07045  0.58688  0.35114  1.0000
  C   C11       1.0  0.57058  0.58699  0.14892  1.0000
  C   C12       1.0  0.92955  0.41312  0.64886  1.0000
  C   C13       1.0  0.60064  0.42383  0.83244  1.0000
  C   C14       1.0  0.89925  0.57573  0.33243  1.0000
  C   C15       1.0  0.39937  0.57617  0.16756  1.0000
  C   C16       1.0  0.10075  0.42428  0.66757  1.0000
  C   C17       1.0  0.73795  0.57040  0.84914  1.0000
  C   C18       1.0  0.76200  0.42896  0.34892  1.0000
  C   C19       1.0  0.26206  0.42961  0.15086  1.0000
  C   C20       1.0  0.23800  0.57104  0.65108  1.0000
  C   C21       1.0  0.52326  0.83865  0.94569  1.0000
  C   C22       1.0  0.97681  0.16117  0.44559  1.0000
  C   C23       1.0  0.47674  0.16135  0.05431  1.0000
  C   C24       1.0  0.02319  0.83883  0.55441  1.0000
  N   N1        1.0  0.95369  0.86577  0.04748  1.0000
  N   N2        1.0  0.54954  0.13747  0.54824  1.0000
  N   N3        1.0  0.04631  0.13424  0.95252  1.0000
  N   N4        1.0  0.45046  0.86253  0.45176  1.0000
  N   N5        1.0  0.00682  0.75792  0.06504  1.0000
  N   N6        1.0  0.49312  0.24311  0.56495  1.0000
  N   N7        1.0  0.99317  0.24209  0.93495  1.0000
  N   N8        1.0  0.50688  0.75689  0.43505  1.0000
  N   N9        1.0  0.05731  0.65545  0.08130  1.0000
  N   N10       1.0  0.44165  0.34491  0.58153  1.0000
  N   N11       1.0  0.94268  0.34455  0.91868  1.0000
  N   N12       1.0  0.55835  0.65510  0.41846  1.0000
  N   N13       1.0  0.13113  0.84834  0.84445  1.0000
  N   N14       1.0  0.36900  0.15162  0.34504  1.0000
  N   N15       1.0  0.86887  0.15164  0.15555  1.0000
  N   N16       1.0  0.63099  0.84836  0.65495  1.0000
  N   N17       1.0  0.24294  0.92542  0.78802  1.0000
  N   N18       1.0  0.25736  0.07341  0.28907  1.0000
  N   N19       1.0  0.75708  0.07458  0.21197  1.0000
  N   N20       1.0  0.74264  0.92658  0.71094  1.0000
  N   N21       1.0  0.35833  0.00609  0.73242  1.0000
  N   N22       1.0  0.14197  0.99151  0.23401  1.0000
  N   N23       1.0  0.64166  0.99391  0.26758  1.0000
  N   N24       1.0  0.85802  0.00847  0.76600  1.0000
  N   N25       1.0  0.71031  0.70086  0.88313  1.0000
  N   N26       1.0  0.79004  0.29870  0.38276  1.0000
  N   N27       1.0  0.28970  0.29915  0.11687  1.0000
  N   N28       1.0  0.20996  0.70130  0.61724  1.0000
