data_image0
_chemical_formula_structural       Cu4H36C32S8I4N4
_chemical_formula_sum              "Cu4 H36 C32 S8 I4 N4"
_cell_length_a       5.48995
_cell_length_b       12.5392
_cell_length_c       15.6061
_cell_angle_alpha    93.3915
_cell_angle_beta     90.0009
_cell_angle_gamma    90.0008

_space_group_name_H-M_alt    "P 1"
_space_group_IT_number       1

loop_
  _space_group_symop_operation_xyz
  'x, y, z'

loop_
  _atom_site_type_symbol
  _atom_site_label
  _atom_site_symmetry_multiplicity
  _atom_site_fract_x
  _atom_site_fract_y
  _atom_site_fract_z
  _atom_site_occupancy
  Cu  Cu1       1.0  0.76942  0.98938  0.49451  1.0000
  Cu  Cu2       1.0  0.26942  0.01061  0.00550  1.0000
  Cu  Cu3       1.0  0.23057  0.01062  0.50549  1.0000
  Cu  Cu4       1.0  0.73057  0.98939  0.99451  1.0000
  H   H1        1.0  0.28776  0.23452  0.55585  1.0000
  H   H2        1.0  0.78778  0.76548  0.94415  1.0000
  H   H3        1.0  0.71223  0.76547  0.44415  1.0000
  H   H4        1.0  0.21224  0.23452  0.05586  1.0000
  H   H5        1.0  0.10515  0.13473  0.76216  1.0000
  H   H6        1.0  0.60513  0.86529  0.73783  1.0000
  H   H7        1.0  0.89483  0.86527  0.23784  1.0000
  H   H8        1.0  0.39486  0.13471  0.26216  1.0000
  H   H9        1.0  0.99254  0.05363  0.67207  1.0000
  H   H10       1.0  0.49252  0.94639  0.82793  1.0000
  H   H11       1.0  0.00745  0.94637  0.32793  1.0000
  H   H12       1.0  0.50747  0.05362  0.17207  1.0000
  H   H13       1.0  0.81144  0.07385  0.76842  1.0000
  H   H14       1.0  0.31141  0.92617  0.73158  1.0000
  H   H15       1.0  0.18855  0.92615  0.23159  1.0000
  H   H16       1.0  0.68857  0.07383  0.26842  1.0000
  H   H17       1.0  0.14006  0.40008  0.67544  1.0000
  H   H18       1.0  0.64005  0.59994  0.82457  1.0000
  H   H19       1.0  0.85993  0.59992  0.32456  1.0000
  H   H20       1.0  0.35997  0.40006  0.17544  1.0000
  H   H21       1.0  0.20468  0.59616  0.69591  1.0000
  H   H22       1.0  0.70465  0.40386  0.80410  1.0000
  H   H23       1.0  0.79533  0.40384  0.30409  1.0000
  H   H24       1.0  0.29537  0.59614  0.19590  1.0000
  H   H25       1.0  0.57951  0.67893  0.63799  1.0000
  H   H26       1.0  0.07947  0.32108  0.86201  1.0000
  H   H27       1.0  0.42050  0.32107  0.36200  1.0000
  H   H28       1.0  0.92054  0.67892  0.13799  1.0000
  H   H29       1.0  0.88606  0.56513  0.55992  1.0000
  H   H30       1.0  0.38606  0.43487  0.94009  1.0000
  H   H31       1.0  0.11393  0.43486  0.44008  1.0000
  H   H32       1.0  0.61397  0.56513  0.05991  1.0000
  H   H33       1.0  0.81452  0.36830  0.53585  1.0000
  H   H34       1.0  0.31454  0.63171  0.96415  1.0000
  H   H35       1.0  0.18547  0.63170  0.46415  1.0000
  H   H36       1.0  0.68549  0.36829  0.03585  1.0000
  C   C1        1.0  0.57364  0.18546  0.62491  1.0000
  C   C2        1.0  0.07365  0.81455  0.87508  1.0000
  C   C3        1.0  0.42634  0.81454  0.37508  1.0000
  C   C4        1.0  0.92637  0.18545  0.12492  1.0000
  C   C5        1.0  0.94175  0.10976  0.72561  1.0000
  C   C6        1.0  0.44174  0.89027  0.77438  1.0000
  C   C7        1.0  0.05822  0.89024  0.27439  1.0000
  C   C8        1.0  0.55825  0.10974  0.22562  1.0000
  C   C9        1.0  0.47558  0.37338  0.60532  1.0000
  C   C10       1.0  0.97560  0.62663  0.89468  1.0000
  C   C11       1.0  0.52440  0.62662  0.39468  1.0000
  C   C12       1.0  0.02441  0.37336  0.10532  1.0000
  C   C13       1.0  0.30234  0.43675  0.64983  1.0000
  C   C14       1.0  0.80235  0.56327  0.85017  1.0000
  C   C15       1.0  0.69766  0.56325  0.35017  1.0000
  C   C16       1.0  0.19767  0.43674  0.14983  1.0000
  C   C17       1.0  0.33995  0.54669  0.66140  1.0000
  C   C18       1.0  0.83991  0.45332  0.83861  1.0000
  C   C19       1.0  0.66006  0.45331  0.33861  1.0000
  C   C20       1.0  0.16011  0.54668  0.16139  1.0000
  C   C21       1.0  0.55048  0.59283  0.62970  1.0000
  C   C22       1.0  0.05045  0.40718  0.87031  1.0000
  C   C23       1.0  0.44952  0.40717  0.37030  1.0000
  C   C24       1.0  0.94958  0.59282  0.12969  1.0000
  C   C25       1.0  0.72282  0.52893  0.58532  1.0000
  C   C26       1.0  0.22281  0.47108  0.91468  1.0000
  C   C27       1.0  0.27717  0.47107  0.41467  1.0000
  C   C28       1.0  0.77721  0.52892  0.08532  1.0000
  C   C29       1.0  0.68552  0.41920  0.57230  1.0000
  C   C30       1.0  0.18553  0.58081  0.92770  1.0000
  C   C31       1.0  0.31447  0.58080  0.42769  1.0000
  C   C32       1.0  0.81449  0.41920  0.07230  1.0000
  S   S1        1.0  0.51165  0.05302  0.60858  1.0000
  S   S2        1.0  0.01164  0.94699  0.89142  1.0000
  S   S3        1.0  0.48833  0.94697  0.39142  1.0000
  S   S4        1.0  0.98836  0.05301  0.10859  1.0000
  S   S5        1.0  0.82016  0.23044  0.68685  1.0000
  S   S6        1.0  0.32017  0.76958  0.81314  1.0000
  S   S7        1.0  0.17981  0.76956  0.31314  1.0000
  S   S8        1.0  0.67984  0.23042  0.18686  1.0000
  I   I1        1.0  0.98506  0.16264  0.43454  1.0000
  I   I2        1.0  0.48506  0.83736  0.06546  1.0000
  I   I3        1.0  0.01494  0.83736  0.56546  1.0000
  I   I4        1.0  0.51494  0.16265  0.93455  1.0000
  N   N1        1.0  0.43464  0.26094  0.59250  1.0000
  N   N2        1.0  0.93465  0.73908  0.90750  1.0000
  N   N3        1.0  0.56534  0.73906  0.40750  1.0000
  N   N4        1.0  0.06537  0.26092  0.09251  1.0000
