data_image0
_chemical_formula_structural       K4V4H8C28N8O32
_chemical_formula_sum              "K4 V4 H8 C28 N8 O32"
_cell_length_a       8.54697
_cell_length_b       10.6981
_cell_length_c       11.4532
_cell_angle_alpha    90.0085
_cell_angle_beta     96.2148
_cell_angle_gamma    89.9943

_space_group_name_H-M_alt    "P 1"
_space_group_IT_number       1

loop_
  _space_group_symop_operation_xyz
  'x, y, z'

loop_
  _atom_site_type_symbol
  _atom_site_label
  _atom_site_symmetry_multiplicity
  _atom_site_fract_x
  _atom_site_fract_y
  _atom_site_fract_z
  _atom_site_occupancy
  K   K1        1.0  0.29417  0.42083  0.39413  1.0000
  K   K2        1.0  0.70582  0.92083  0.10586  1.0000
  K   K3        1.0  0.70583  0.57917  0.60585  1.0000
  K   K4        1.0  0.29419  0.07919  0.89412  1.0000
  V   V1        1.0  0.41174  0.10664  0.24593  1.0000
  V   V2        1.0  0.58823  0.60662  0.25412  1.0000
  V   V3        1.0  0.58828  0.89336  0.75405  1.0000
  V   V4        1.0  0.41179  0.39338  0.74587  1.0000
  H   H1        1.0  0.93764  0.87627  0.39450  1.0000
  H   H2        1.0  0.06232  0.37622  0.10548  1.0000
  H   H3        1.0  0.06236  0.12377  0.60552  1.0000
  H   H4        1.0  0.93769  0.62377  0.89452  1.0000
  H   H5        1.0  0.39710  0.72689  0.52223  1.0000
  H   H6        1.0  0.60288  0.22685  0.97777  1.0000
  H   H7        1.0  0.60289  0.27313  0.47778  1.0000
  H   H8        1.0  0.39711  0.77314  0.02222  1.0000
  C   C1        1.0  0.07359  0.06627  0.25165  1.0000
  C   C2        1.0  0.92636  0.56623  0.24842  1.0000
  C   C3        1.0  0.92639  0.93376  0.74837  1.0000
  C   C4        1.0  0.07361  0.43375  0.75157  1.0000
  C   C5        1.0  0.14360  0.96353  0.33094  1.0000
  C   C6        1.0  0.85638  0.46352  0.16907  1.0000
  C   C7        1.0  0.85640  0.03648  0.66905  1.0000
  C   C8        1.0  0.14362  0.53646  0.83094  1.0000
  C   C9        1.0  0.06546  0.87749  0.39518  1.0000
  C   C10       1.0  0.93451  0.37745  0.10481  1.0000
  C   C11       1.0  0.93454  0.12252  0.60481  1.0000
  C   C12       1.0  0.06549  0.62253  0.89521  1.0000
  C   C13       1.0  0.16141  0.79197  0.46136  1.0000
  C   C14       1.0  0.83856  0.29192  0.03863  1.0000
  C   C15       1.0  0.83860  0.20805  0.53865  1.0000
  C   C16       1.0  0.16143  0.70806  0.96138  1.0000
  C   C17       1.0  0.32475  0.79119  0.46646  1.0000
  C   C18       1.0  0.67523  0.29117  0.03353  1.0000
  C   C19       1.0  0.67525  0.20882  0.53353  1.0000
  C   C20       1.0  0.32477  0.70881  0.96648  1.0000
  C   C21       1.0  0.39132  0.88275  0.40106  1.0000
  C   C22       1.0  0.60865  0.38274  0.09893  1.0000
  C   C23       1.0  0.60868  0.11725  0.59891  1.0000
  C   C24       1.0  0.39134  0.61722  0.90109  1.0000
  C   C25       1.0  0.56345  0.91183  0.39900  1.0000
  C   C26       1.0  0.43652  0.41182  0.10101  1.0000
  C   C27       1.0  0.43655  0.08816  0.60096  1.0000
  C   C28       1.0  0.56346  0.58814  0.89900  1.0000
  N   N1        1.0  0.30066  0.96370  0.33625  1.0000
  N   N2        1.0  0.69932  0.46370  0.16375  1.0000
  N   N3        1.0  0.69935  0.03631  0.66374  1.0000
  N   N4        1.0  0.30067  0.53628  0.83626  1.0000
  N   N5        1.0  0.08738  0.69892  0.53246  1.0000
  N   N6        1.0  0.91259  0.19884  0.96752  1.0000
  N   N7        1.0  0.91261  0.30112  0.46757  1.0000
  N   N8        1.0  0.08740  0.80115  0.03249  1.0000
  O   O1        1.0  0.46926  0.24606  0.29238  1.0000
  O   O2        1.0  0.53072  0.74606  0.20767  1.0000
  O   O3        1.0  0.53076  0.75394  0.70761  1.0000
  O   O4        1.0  0.46929  0.25394  0.79234  1.0000
  O   O5        1.0  0.45641  0.08240  0.11210  1.0000
  O   O6        1.0  0.54351  0.58249  0.38792  1.0000
  O   O7        1.0  0.54361  0.91761  0.88785  1.0000
  O   O8        1.0  0.45647  0.41752  0.61209  1.0000
  O   O9        1.0  0.18210  0.13911  0.21555  1.0000
  O   O10       1.0  0.81788  0.63909  0.28452  1.0000
  O   O11       1.0  0.81792  0.86092  0.78444  1.0000
  O   O12       1.0  0.18211  0.36091  0.71548  1.0000
  O   O13       1.0  0.58449  0.00799  0.33044  1.0000
  O   O14       1.0  0.41544  0.50799  0.16958  1.0000
  O   O15       1.0  0.41551  0.99200  0.66952  1.0000
  O   O16       1.0  0.58453  0.49196  0.83045  1.0000
  O   O17       1.0  0.93057  0.07745  0.22474  1.0000
  O   O18       1.0  0.06942  0.57738  0.27538  1.0000
  O   O19       1.0  0.06945  0.92261  0.77533  1.0000
  O   O20       1.0  0.93058  0.42262  0.72462  1.0000
  O   O21       1.0  0.66926  0.85618  0.45927  1.0000
  O   O22       1.0  0.33069  0.35614  0.04075  1.0000
  O   O23       1.0  0.33073  0.14381  0.54070  1.0000
  O   O24       1.0  0.66931  0.64381  0.95926  1.0000
  O   O25       1.0  0.96046  0.72756  0.56760  1.0000
  O   O26       1.0  0.03945  0.22750  0.93229  1.0000
  O   O27       1.0  0.03954  0.27247  0.43241  1.0000
  O   O28       1.0  0.96056  0.77249  0.06771  1.0000
  O   O29       1.0  0.15742  0.59869  0.55322  1.0000
  O   O30       1.0  0.84263  0.09858  0.94681  1.0000
  O   O31       1.0  0.84258  0.40134  0.44681  1.0000
  O   O32       1.0  0.15737  0.90141  0.05319  1.0000
