data_image0
_chemical_formula_structural       Zn4H32C28N4Cl4O4
_chemical_formula_sum              "Zn4 H32 C28 N4 Cl4 O4"
_cell_length_a       5.05346
_cell_length_b       9.17214
_cell_length_c       18.1908
_cell_angle_alpha    90
_cell_angle_beta     90.0001
_cell_angle_gamma    90

_space_group_name_H-M_alt    "P 1"
_space_group_IT_number       1

loop_
  _space_group_symop_operation_xyz
  'x, y, z'

loop_
  _atom_site_type_symbol
  _atom_site_label
  _atom_site_symmetry_multiplicity
  _atom_site_fract_x
  _atom_site_fract_y
  _atom_site_fract_z
  _atom_site_occupancy
  Zn  Zn1       1.0  0.86998  0.22233  0.06501  1.0000
  Zn  Zn2       1.0  0.63002  0.77767  0.56501  1.0000
  Zn  Zn3       1.0  0.36998  0.27767  0.93499  1.0000
  Zn  Zn4       1.0  0.13002  0.72233  0.43499  1.0000
  H   H1        1.0  0.99982  0.93691  0.97407  1.0000
  H   H2        1.0  0.50018  0.06309  0.47407  1.0000
  H   H3        1.0  0.49982  0.56309  0.02593  1.0000
  H   H4        1.0  0.00018  0.43691  0.52593  1.0000
  H   H5        1.0  0.25693  0.96293  0.03955  1.0000
  H   H6        1.0  0.24307  0.03707  0.53955  1.0000
  H   H7        1.0  0.75693  0.53707  0.96045  1.0000
  H   H8        1.0  0.74307  0.46293  0.46045  1.0000
  H   H9        1.0  0.35520  0.73469  0.93955  1.0000
  H   H10       1.0  0.14481  0.26531  0.43955  1.0000
  H   H11       1.0  0.85519  0.76531  0.06045  1.0000
  H   H12       1.0  0.64480  0.23469  0.56045  1.0000
  H   H13       1.0  0.70215  0.68877  0.84483  1.0000
  H   H14       1.0  0.79785  0.31123  0.34483  1.0000
  H   H15       1.0  0.20215  0.81123  0.15517  1.0000
  H   H16       1.0  0.29785  0.18877  0.65517  1.0000
  H   H17       1.0  0.90211  0.90338  0.77826  1.0000
  H   H18       1.0  0.59788  0.09662  0.27826  1.0000
  H   H19       1.0  0.40212  0.59662  0.22174  1.0000
  H   H20       1.0  0.09789  0.40337  0.72174  1.0000
  H   H21       1.0  0.62565  0.26210  0.78222  1.0000
  H   H22       1.0  0.87435  0.73790  0.28222  1.0000
  H   H23       1.0  0.12566  0.23790  0.21778  1.0000
  H   H24       1.0  0.37435  0.76210  0.71778  1.0000
  H   H25       1.0  0.90859  0.15930  0.75494  1.0000
  H   H26       1.0  0.59141  0.84070  0.25494  1.0000
  H   H27       1.0  0.40859  0.34071  0.24506  1.0000
  H   H28       1.0  0.09141  0.65930  0.74506  1.0000
  H   H29       1.0  0.90608  0.25705  0.83994  1.0000
  H   H30       1.0  0.59391  0.74295  0.33994  1.0000
  H   H31       1.0  0.40609  0.24295  0.16006  1.0000
  H   H32       1.0  0.09391  0.75705  0.66006  1.0000
  C   C1        1.0  0.17837  0.00239  0.98632  1.0000
  C   C2        1.0  0.32164  0.99761  0.48632  1.0000
  C   C3        1.0  0.67837  0.49761  0.01368  1.0000
  C   C4        1.0  0.82163  0.50239  0.51368  1.0000
  C   C5        1.0  0.38268  0.96861  0.92822  1.0000
  C   C6        1.0  0.11732  0.03139  0.42822  1.0000
  C   C7        1.0  0.88268  0.53139  0.07178  1.0000
  C   C8        1.0  0.61732  0.46861  0.57178  1.0000
  C   C9        1.0  0.45322  0.82516  0.91188  1.0000
  C   C10       1.0  0.04679  0.17485  0.41188  1.0000
  C   C11       1.0  0.95321  0.67484  0.08812  1.0000
  C   C12       1.0  0.54679  0.32516  0.58812  1.0000
  C   C13       1.0  0.64457  0.80024  0.85842  1.0000
  C   C14       1.0  0.85543  0.19975  0.35841  1.0000
  C   C15       1.0  0.14457  0.69976  0.14158  1.0000
  C   C16       1.0  0.35543  0.30024  0.64158  1.0000
  C   C17       1.0  0.75753  0.91877  0.82187  1.0000
  C   C18       1.0  0.74248  0.08123  0.32187  1.0000
  C   C19       1.0  0.25752  0.58123  0.17813  1.0000
  C   C20       1.0  0.24248  0.41877  0.67813  1.0000
  C   C21       1.0  0.67749  0.05999  0.83965  1.0000
  C   C22       1.0  0.82251  0.94000  0.33966  1.0000
  C   C23       1.0  0.17749  0.44001  0.16034  1.0000
  C   C24       1.0  0.32251  0.55999  0.66035  1.0000
  C   C25       1.0  0.78614  0.19125  0.80192  1.0000
  C   C26       1.0  0.71385  0.80875  0.30192  1.0000
  C   C27       1.0  0.28614  0.30875  0.19808  1.0000
  C   C28       1.0  0.21386  0.69124  0.69808  1.0000
  N   N1        1.0  0.49414  0.08230  0.89301  1.0000
  N   N2        1.0  0.00587  0.91771  0.39301  1.0000
  N   N3        1.0  0.99413  0.41771  0.10699  1.0000
  N   N4        1.0  0.50587  0.58229  0.60699  1.0000
  Cl  Cl1       1.0  0.71670  0.03092  0.12582  1.0000
  Cl  Cl2       1.0  0.78330  0.96908  0.62581  1.0000
  Cl  Cl3       1.0  0.21670  0.46908  0.87418  1.0000
  Cl  Cl4       1.0  0.28330  0.53092  0.37418  1.0000
  O   O1        1.0  0.11665  0.15169  0.98964  1.0000
  O   O2        1.0  0.38335  0.84831  0.48964  1.0000
  O   O3        1.0  0.61665  0.34831  0.01036  1.0000
  O   O4        1.0  0.88335  0.65169  0.51036  1.0000
