data_image0
_chemical_formula_structural       Zn2H32C40N4O12
_chemical_formula_sum              "Zn2 H32 C40 N4 O12"
_cell_length_a       8.309
_cell_length_b       10.2777
_cell_length_c       11.9691
_cell_angle_alpha    106.667
_cell_angle_beta     103.581
_cell_angle_gamma    103.283

_space_group_name_H-M_alt    "P 1"
_space_group_IT_number       1

loop_
  _space_group_symop_operation_xyz
  'x, y, z'

loop_
  _atom_site_type_symbol
  _atom_site_label
  _atom_site_symmetry_multiplicity
  _atom_site_fract_x
  _atom_site_fract_y
  _atom_site_fract_z
  _atom_site_occupancy
  Zn  Zn1       1.0  0.20192  0.55624  0.67640  1.0000
  Zn  Zn2       1.0  0.79808  0.44376  0.32360  1.0000
  H   H1        1.0  0.86352  0.60611  0.62199  1.0000
  H   H2        1.0  0.13648  0.39389  0.37801  1.0000
  H   H3        1.0  0.58379  0.53741  0.66790  1.0000
  H   H4        1.0  0.41621  0.46259  0.33210  1.0000
  H   H5        1.0  0.56122  0.39880  0.80779  1.0000
  H   H6        1.0  0.43878  0.60120  0.19221  1.0000
  H   H7        1.0  0.09183  0.40251  0.83614  1.0000
  H   H8        1.0  0.90817  0.59749  0.16386  1.0000
  H   H9        1.0  0.06182  0.33672  0.01315  1.0000
  H   H10       1.0  0.93819  0.66328  0.98685  1.0000
  H   H11       1.0  0.97731  0.20122  0.86214  1.0000
  H   H12       1.0  0.02269  0.79878  0.13785  1.0000
  H   H13       1.0  0.98026  0.10915  0.03914  1.0000
  H   H14       1.0  0.01975  0.89085  0.96086  1.0000
  H   H15       1.0  0.81728  0.18767  0.06736  1.0000
  H   H16       1.0  0.18272  0.81233  0.93264  1.0000
  H   H17       1.0  0.78494  0.97892  0.11464  1.0000
  H   H18       1.0  0.21506  0.02108  0.88536  1.0000
  H   H19       1.0  0.61722  0.74902  0.12297  1.0000
  H   H20       1.0  0.38278  0.25098  0.87703  1.0000
  H   H21       1.0  0.38180  0.56612  0.93209  1.0000
  H   H22       1.0  0.61820  0.43388  0.06791  1.0000
  H   H23       1.0  0.48999  0.81791  0.72586  1.0000
  H   H24       1.0  0.51001  0.18209  0.27414  1.0000
  H   H25       1.0  0.17120  0.07151  0.70411  1.0000
  H   H26       1.0  0.82880  0.92849  0.29589  1.0000
  H   H27       1.0  0.30054  0.19086  0.41235  1.0000
  H   H28       1.0  0.69946  0.80914  0.58765  1.0000
  H   H29       1.0  0.31700  0.94645  0.31602  1.0000
  H   H30       1.0  0.68299  0.05355  0.68398  1.0000
  H   H31       1.0  0.26096  0.76578  0.41705  1.0000
  H   H32       1.0  0.73904  0.23421  0.58295  1.0000
  C   C1        1.0  0.84972  0.54703  0.68333  1.0000
  C   C2        1.0  0.15028  0.45297  0.31667  1.0000
  C   C3        1.0  0.69508  0.50914  0.71024  1.0000
  C   C4        1.0  0.30492  0.49086  0.28976  1.0000
  C   C5        1.0  0.68219  0.43196  0.78778  1.0000
  C   C6        1.0  0.31782  0.56804  0.21222  1.0000
  C   C7        1.0  0.82626  0.39253  0.83618  1.0000
  C   C8        1.0  0.17373  0.60747  0.16381  1.0000
  C   C9        1.0  0.97770  0.43378  0.80590  1.0000
  C   C10       1.0  0.02230  0.56623  0.19410  1.0000
  C   C11       1.0  0.94372  0.25301  0.94373  1.0000
  C   C12       1.0  0.05628  0.74699  0.05627  1.0000
  C   C13       1.0  0.87349  0.14389  0.99621  1.0000
  C   C14       1.0  0.12651  0.85611  0.00379  1.0000
  C   C15       1.0  0.65539  0.91200  0.91680  1.0000
  C   C16       1.0  0.34461  0.08800  0.08320  1.0000
  C   C17       1.0  0.68904  0.89491  0.03105  1.0000
  C   C18       1.0  0.31096  0.10509  0.96895  1.0000
  C   C19       1.0  0.59083  0.76829  0.03649  1.0000
  C   C20       1.0  0.40917  0.23171  0.96351  1.0000
  C   C21       1.0  0.46110  0.66602  0.93156  1.0000
  C   C22       1.0  0.53890  0.33398  0.06844  1.0000
  C   C23       1.0  0.52127  0.80523  0.81499  1.0000
  C   C24       1.0  0.47873  0.19476  0.18501  1.0000
  C   C25       1.0  0.17262  0.79906  0.62611  1.0000
  C   C26       1.0  0.82738  0.20094  0.37389  1.0000
  C   C27       1.0  0.20861  0.90638  0.56501  1.0000
  C   C28       1.0  0.79140  0.09362  0.43499  1.0000
  C   C29       1.0  0.20510  0.04484  0.61981  1.0000
  C   C30       1.0  0.79490  0.95516  0.38019  1.0000
  C   C31       1.0  0.24099  0.14808  0.56647  1.0000
  C   C32       1.0  0.75901  0.85193  0.43353  1.0000
  C   C33       1.0  0.27652  0.11073  0.45473  1.0000
  C   C34       1.0  0.72348  0.88926  0.54527  1.0000
  C   C35       1.0  0.28374  0.97347  0.40073  1.0000
  C   C36       1.0  0.71626  0.02653  0.59927  1.0000
  C   C37       1.0  0.25173  0.87215  0.45617  1.0000
  C   C38       1.0  0.74827  0.12784  0.54383  1.0000
  C   C39       1.0  0.24346  0.29642  0.63165  1.0000
  C   C40       1.0  0.75654  0.70359  0.36835  1.0000
  N   N1        1.0  0.98768  0.50963  0.73110  1.0000
  N   N2        1.0  0.01232  0.49037  0.26891  1.0000
  N   N3        1.0  0.42530  0.68619  0.82298  1.0000
  N   N4        1.0  0.57470  0.31381  0.17702  1.0000
  O   O1        1.0  0.80871  0.31408  0.90947  1.0000
  O   O2        1.0  0.19129  0.68592  0.09053  1.0000
  O   O3        1.0  0.74235  0.02541  0.89414  1.0000
  O   O4        1.0  0.25765  0.97459  0.10586  1.0000
  O   O5        1.0  0.13297  0.83151  0.72288  1.0000
  O   O6        1.0  0.86704  0.16849  0.27712  1.0000
  O   O7        1.0  0.19183  0.67606  0.57395  1.0000
  O   O8        1.0  0.80817  0.32394  0.42605  1.0000
  O   O9        1.0  0.26188  0.33711  0.74528  1.0000
  O   O10       1.0  0.73811  0.66289  0.25471  1.0000
  O   O11       1.0  0.22851  0.37893  0.56853  1.0000
  O   O12       1.0  0.77149  0.62108  0.43147  1.0000
