data_image0
_chemical_formula_structural       Cd2H28C28N4O10
_chemical_formula_sum              "Cd2 H28 C28 N4 O10"
_cell_length_a       7.42837
_cell_length_b       8.16671
_cell_length_c       12.7195
_cell_angle_alpha    110.302
_cell_angle_beta     92.3124
_cell_angle_gamma    99.1048

_space_group_name_H-M_alt    "P 1"
_space_group_IT_number       1

loop_
  _space_group_symop_operation_xyz
  'x, y, z'

loop_
  _atom_site_type_symbol
  _atom_site_label
  _atom_site_symmetry_multiplicity
  _atom_site_fract_x
  _atom_site_fract_y
  _atom_site_fract_z
  _atom_site_occupancy
  Cd  Cd1       1.0  0.04522  0.06524  0.23199  1.0000
  Cd  Cd2       1.0  0.95477  0.93476  0.76801  1.0000
  H   H1        1.0  0.68781  0.91617  0.15780  1.0000
  H   H2        1.0  0.31219  0.08384  0.84219  1.0000
  H   H3        1.0  0.78158  0.89853  0.04117  1.0000
  H   H4        1.0  0.21842  0.10147  0.95884  1.0000
  H   H5        1.0  0.89833  0.95254  0.53263  1.0000
  H   H6        1.0  0.10167  0.04746  0.46737  1.0000
  H   H7        1.0  0.51693  0.72693  0.69432  1.0000
  H   H8        1.0  0.48307  0.27308  0.30568  1.0000
  H   H9        1.0  0.36489  0.69802  0.35630  1.0000
  H   H10       1.0  0.63511  0.30199  0.64370  1.0000
  H   H11       1.0  0.21789  0.55700  0.59971  1.0000
  H   H12       1.0  0.78210  0.44301  0.40029  1.0000
  H   H13       1.0  0.17364  0.50030  0.45065  1.0000
  H   H14       1.0  0.82636  0.49971  0.54935  1.0000
  H   H15       1.0  0.12958  0.70348  0.54508  1.0000
  H   H16       1.0  0.87042  0.29653  0.45492  1.0000
  H   H17       1.0  0.04983  0.67745  0.25085  1.0000
  H   H18       1.0  0.95017  0.32254  0.74915  1.0000
  H   H19       1.0  0.25034  0.90245  0.02216  1.0000
  H   H20       1.0  0.74966  0.09754  0.97784  1.0000
  H   H21       1.0  0.29933  0.36390  0.96783  1.0000
  H   H22       1.0  0.70067  0.63609  0.03216  1.0000
  H   H23       1.0  0.40799  0.49232  0.83187  1.0000
  H   H24       1.0  0.59201  0.50768  0.16813  1.0000
  H   H25       1.0  0.48366  0.72768  0.88664  1.0000
  H   H26       1.0  0.51634  0.27231  0.11336  1.0000
  H   H27       1.0  0.26247  0.63689  0.81321  1.0000
  H   H28       1.0  0.73754  0.36310  0.18678  1.0000
  C   C1        1.0  0.63793  0.83047  0.43114  1.0000
  C   C2        1.0  0.36207  0.16954  0.56886  1.0000
  C   C3        1.0  0.76042  0.88041  0.52774  1.0000
  C   C4        1.0  0.23957  0.11959  0.47226  1.0000
  C   C5        1.0  0.54709  0.75505  0.61836  1.0000
  C   C6        1.0  0.45290  0.24495  0.38164  1.0000
  C   C7        1.0  0.41322  0.70096  0.52647  1.0000
  C   C8        1.0  0.58678  0.29905  0.47353  1.0000
  C   C9        1.0  0.46269  0.73877  0.43096  1.0000
  C   C10       1.0  0.53731  0.26123  0.56904  1.0000
  C   C11       1.0  0.22410  0.60879  0.53084  1.0000
  C   C12       1.0  0.77589  0.39122  0.46916  1.0000
  C   C13       1.0  0.69944  0.87890  0.33236  1.0000
  C   C14       1.0  0.30056  0.12110  0.66765  1.0000
  C   C15       1.0  0.17355  0.50166  0.11563  1.0000
  C   C16       1.0  0.82645  0.49833  0.88437  1.0000
  C   C17       1.0  0.11927  0.66202  0.17498  1.0000
  C   C18       1.0  0.88073  0.33798  0.82501  1.0000
  C   C19       1.0  0.23009  0.78633  0.04665  1.0000
  C   C20       1.0  0.76992  0.21367  0.95335  1.0000
  C   C21       1.0  0.28520  0.63045  0.97968  1.0000
  C   C22       1.0  0.71481  0.36954  0.02032  1.0000
  C   C23       1.0  0.25683  0.48732  0.01684  1.0000
  C   C24       1.0  0.74318  0.51268  0.98316  1.0000
  C   C25       1.0  0.13761  0.34879  0.15606  1.0000
  C   C26       1.0  0.86239  0.65120  0.84394  1.0000
  C   C27       1.0  0.36512  0.62032  0.87170  1.0000
  C   C28       1.0  0.63488  0.37967  0.12830  1.0000
  N   N1        1.0  0.71723  0.84192  0.61896  1.0000
  N   N2        1.0  0.28277  0.15809  0.38104  1.0000
  N   N3        1.0  0.14770  0.80127  0.14078  1.0000
  N   N4        1.0  0.85231  0.19873  0.85922  1.0000
  O   O1        1.0  0.86235  0.96953  0.34842  1.0000
  O   O2        1.0  0.13765  0.03048  0.65158  1.0000
  O   O3        1.0  0.59027  0.82883  0.24378  1.0000
  O   O4        1.0  0.40973  0.17117  0.75622  1.0000
  O   O5        1.0  0.06484  0.37035  0.24765  1.0000
  O   O6        1.0  0.93516  0.62965  0.75235  1.0000
  O   O7        1.0  0.18058  0.20057  0.09703  1.0000
  O   O8        1.0  0.81942  0.79943  0.90297  1.0000
  O   O9        1.0  0.76800  0.98250  0.11749  1.0000
  O   O10       1.0  0.23200  0.01750  0.88251  1.0000
