data_image0
_chemical_formula_structural       Mn2H32C28N4O12
_chemical_formula_sum              "Mn2 H32 C28 N4 O12"
_cell_length_a       6.98417
_cell_length_b       9.75372
_cell_length_c       9.84725
_cell_angle_alpha    89.9998
_cell_angle_beta     90
_cell_angle_gamma    102.501

_space_group_name_H-M_alt    "P 1"
_space_group_IT_number       1

loop_
  _space_group_symop_operation_xyz
  'x, y, z'

loop_
  _atom_site_type_symbol
  _atom_site_label
  _atom_site_symmetry_multiplicity
  _atom_site_fract_x
  _atom_site_fract_y
  _atom_site_fract_z
  _atom_site_occupancy
  Mn  Mn1       1.0  0.00000  1.00000  0.50000  1.0000
  Mn  Mn2       1.0  0.50000  1.00000  0.00000  1.0000
  H   H1        1.0  0.12841  0.16524  0.27860  1.0000
  H   H2        1.0  0.37158  0.83476  0.77861  1.0000
  H   H3        1.0  0.87159  0.83476  0.72139  1.0000
  H   H4        1.0  0.62842  0.16524  0.22139  1.0000
  H   H5        1.0  0.30880  0.17361  0.38442  1.0000
  H   H6        1.0  0.19120  0.82639  0.88442  1.0000
  H   H7        1.0  0.69120  0.82639  0.61558  1.0000
  H   H8        1.0  0.80880  0.17361  0.11558  1.0000
  H   H9        1.0  0.03436  0.30776  0.52301  1.0000
  H   H10       1.0  0.46564  0.69225  0.02302  1.0000
  H   H11       1.0  0.96564  0.69224  0.47698  1.0000
  H   H12       1.0  0.53436  0.30775  0.97698  1.0000
  H   H13       1.0  0.07659  0.40174  0.95136  1.0000
  H   H14       1.0  0.42340  0.59826  0.45137  1.0000
  H   H15       1.0  0.92340  0.59825  0.04864  1.0000
  H   H16       1.0  0.57660  0.40174  0.54864  1.0000
  H   H17       1.0  0.13541  0.00312  0.78796  1.0000
  H   H18       1.0  0.36459  0.99688  0.28796  1.0000
  H   H19       1.0  0.86459  0.99688  0.21204  1.0000
  H   H20       1.0  0.63541  0.00312  0.71204  1.0000
  H   H21       1.0  0.18328  0.58505  0.65658  1.0000
  H   H22       1.0  0.31672  0.41495  0.15658  1.0000
  H   H23       1.0  0.81672  0.41495  0.34342  1.0000
  H   H24       1.0  0.68328  0.58505  0.84342  1.0000
  H   H25       1.0  0.02022  0.58233  0.79378  1.0000
  H   H26       1.0  0.47978  0.41767  0.29379  1.0000
  H   H27       1.0  0.97979  0.41767  0.20622  1.0000
  H   H28       1.0  0.52022  0.58233  0.70621  1.0000
  H   H29       1.0  0.92692  0.52864  0.63039  1.0000
  H   H30       1.0  0.57308  0.47136  0.13039  1.0000
  H   H31       1.0  0.07308  0.47136  0.36961  1.0000
  H   H32       1.0  0.42692  0.52864  0.86961  1.0000
  C   C1        1.0  0.05447  0.28019  0.62821  1.0000
  C   C2        1.0  0.44552  0.71981  0.12821  1.0000
  C   C3        1.0  0.94553  0.71981  0.37179  1.0000
  C   C4        1.0  0.55448  0.28019  0.87179  1.0000
  C   C5        1.0  0.06034  0.37776  0.73280  1.0000
  C   C6        1.0  0.43967  0.62225  0.23280  1.0000
  C   C7        1.0  0.93966  0.62224  0.26720  1.0000
  C   C8        1.0  0.56034  0.37775  0.76720  1.0000
  C   C9        1.0  0.08026  0.33217  0.86518  1.0000
  C   C10       1.0  0.41974  0.66783  0.36518  1.0000
  C   C11       1.0  0.91974  0.66783  0.13482  1.0000
  C   C12       1.0  0.58026  0.33217  0.63482  1.0000
  C   C13       1.0  0.11482  0.19736  0.88695  1.0000
  C   C14       1.0  0.38518  0.80263  0.38695  1.0000
  C   C15       1.0  0.88518  0.80263  0.11305  1.0000
  C   C16       1.0  0.61482  0.19737  0.61305  1.0000
  C   C17       1.0  0.11071  0.10835  0.77592  1.0000
  C   C18       1.0  0.38929  0.89166  0.27593  1.0000
  C   C19       1.0  0.88929  0.89165  0.22408  1.0000
  C   C20       1.0  0.61071  0.10835  0.72407  1.0000
  C   C21       1.0  0.04640  0.52572  0.70193  1.0000
  C   C22       1.0  0.45361  0.47429  0.20194  1.0000
  C   C23       1.0  0.95361  0.47428  0.29807  1.0000
  C   C24       1.0  0.54640  0.52572  0.79807  1.0000
  C   C25       1.0  0.15250  0.15258  0.02728  1.0000
  C   C26       1.0  0.34750  0.84741  0.52728  1.0000
  C   C27       1.0  0.84749  0.84741  0.97272  1.0000
  C   C28       1.0  0.65250  0.15259  0.47272  1.0000
  N   N1        1.0  0.06956  0.14550  0.64899  1.0000
  N   N2        1.0  0.43044  0.85450  0.14899  1.0000
  N   N3        1.0  0.93044  0.85451  0.35101  1.0000
  N   N4        1.0  0.56956  0.14550  0.85101  1.0000
  O   O1        1.0  0.06134  0.19929  0.12424  1.0000
  O   O2        1.0  0.43866  0.80071  0.62424  1.0000
  O   O3        1.0  0.93866  0.80071  0.87576  1.0000
  O   O4        1.0  0.56134  0.19929  0.37576  1.0000
  O   O5        1.0  0.27203  0.07316  0.05067  1.0000
  O   O6        1.0  0.22797  0.92684  0.55067  1.0000
  O   O7        1.0  0.72797  0.92684  0.94933  1.0000
  O   O8        1.0  0.77203  0.07316  0.44933  1.0000
  O   O9        1.0  0.16322  0.15644  0.37736  1.0000
  O   O10       1.0  0.33677  0.84355  0.87736  1.0000
  O   O11       1.0  0.83678  0.84356  0.62264  1.0000
  O   O12       1.0  0.66322  0.15645  0.12264  1.0000
