data_image0
_chemical_formula_structural       CuH16C26S2N2O4F6
_chemical_formula_sum              "Cu1 H16 C26 S2 N2 O4 F6"
_cell_length_a       9.56239
_cell_length_b       9.30674
_cell_length_c       11.0717
_cell_angle_alpha    77.4852
_cell_angle_beta     66.4441
_cell_angle_gamma    69.1374

_space_group_name_H-M_alt    "P 1"
_space_group_IT_number       1

loop_
  _space_group_symop_operation_xyz
  'x, y, z'

loop_
  _atom_site_type_symbol
  _atom_site_label
  _atom_site_symmetry_multiplicity
  _atom_site_fract_x
  _atom_site_fract_y
  _atom_site_fract_z
  _atom_site_occupancy
  Cu  Cu1       1.0  1.00000  0.00000  1.00000  1.0000
  H   H1        1.0  0.47329  0.22340  0.06959  1.0000
  H   H2        1.0  0.52673  0.77661  0.93041  1.0000
  H   H3        1.0  0.95196  0.38317  0.22662  1.0000
  H   H4        1.0  0.04805  0.61682  0.77336  1.0000
  H   H5        1.0  0.79611  0.61839  0.21647  1.0000
  H   H6        1.0  0.20389  0.38160  0.78353  1.0000
  H   H7        1.0  0.21028  0.14776  0.21467  1.0000
  H   H8        1.0  0.78974  0.85224  0.78532  1.0000
  H   H9        1.0  0.20493  0.81258  0.15109  1.0000
  H   H10       1.0  0.79507  0.18741  0.84892  1.0000
  H   H11       1.0  0.21929  0.80927  0.36972  1.0000
  H   H12       1.0  0.78069  0.19072  0.63030  1.0000
  H   H13       1.0  0.76701  0.17487  0.45943  1.0000
  H   H14       1.0  0.23298  0.82513  0.54057  1.0000
  H   H15       1.0  0.77327  0.15964  0.23626  1.0000
  H   H16       1.0  0.22671  0.84035  0.76374  1.0000
  C   C1        1.0  0.35105  0.29914  0.09066  1.0000
  C   C2        1.0  0.64897  0.70087  0.90933  1.0000
  C   C3        1.0  0.21160  0.26230  0.16663  1.0000
  C   C4        1.0  0.78842  0.73770  0.83336  1.0000
  C   C5        1.0  0.07338  0.38895  0.17285  1.0000
  C   C6        1.0  0.92664  0.61104  0.82714  1.0000
  C   C7        1.0  0.10877  0.52157  0.10122  1.0000
  C   C8        1.0  0.89123  0.47843  0.89877  1.0000
  C   C9        1.0  0.00542  0.67737  0.08308  1.0000
  C   C10       1.0  0.99458  0.32263  0.91691  1.0000
  C   C11       1.0  0.83907  0.71188  0.15299  1.0000
  C   C12       1.0  0.16094  0.28812  0.84700  1.0000
  C   C13       1.0  0.72363  0.85448  0.14619  1.0000
  C   C14       1.0  0.27638  0.14552  0.85381  1.0000
  C   C15       1.0  0.54767  0.86181  0.23083  1.0000
  C   C16       1.0  0.45231  0.13820  0.76917  1.0000
  C   C17       1.0  0.11040  0.88982  0.22365  1.0000
  C   C18       1.0  0.88959  0.11017  0.77635  1.0000
  C   C19       1.0  0.11695  0.88999  0.34663  1.0000
  C   C20       1.0  0.88303  0.11002  0.65338  1.0000
  C   C21       1.0  0.99604  0.99551  0.43555  1.0000
  C   C22       1.0  0.00395  0.00450  0.56446  1.0000
  C   C23       1.0  0.86818  0.09252  0.39553  1.0000
  C   C24       1.0  0.13181  0.90747  0.60447  1.0000
  C   C25       1.0  0.86912  0.08501  0.27134  1.0000
  C   C26       1.0  0.13086  0.91498  0.72867  1.0000
  S   S1        1.0  0.31352  0.48722  0.02583  1.0000
  S   S2        1.0  0.68648  0.51279  0.97417  1.0000
  N   N1        1.0  0.98959  0.98685  0.18606  1.0000
  N   N2        1.0  0.01041  0.01315  0.81394  1.0000
  O   O1        1.0  0.07949  0.77207  0.00301  1.0000
  O   O2        1.0  0.92052  0.22792  0.99699  1.0000
  O   O3        1.0  0.73864  0.98144  0.08270  1.0000
  O   O4        1.0  0.26136  0.01856  0.91731  1.0000
  F   F1        1.0  0.52368  0.72325  0.29351  1.0000
  F   F2        1.0  0.47631  0.27677  0.70653  1.0000
  F   F3        1.0  0.45444  0.91705  0.15451  1.0000
  F   F4        1.0  0.54557  0.08292  0.84547  1.0000
  F   F5        1.0  0.48563  0.95990  0.32823  1.0000
  F   F6        1.0  0.51435  0.04016  0.67174  1.0000
