data_image0
_chemical_formula_structural       Sn4H8C8O16
_chemical_formula_sum              "Sn4 H8 C8 O16"
_cell_length_a       6.35216
_cell_length_b       8.46195
_cell_length_c       8.85426
_cell_angle_alpha    103.9
_cell_angle_beta     96.0148
_cell_angle_gamma    90.6953

_space_group_name_H-M_alt    "P 1"
_space_group_IT_number       1

loop_
  _space_group_symop_operation_xyz
  'x, y, z'

loop_
  _atom_site_type_symbol
  _atom_site_label
  _atom_site_symmetry_multiplicity
  _atom_site_fract_x
  _atom_site_fract_y
  _atom_site_fract_z
  _atom_site_occupancy
  Sn  Sn1       1.0  0.47343  0.71847  0.37791  1.0000
  Sn  Sn2       1.0  0.52659  0.28156  0.62209  1.0000
  Sn  Sn3       1.0  0.97290  0.21986  0.36918  1.0000
  Sn  Sn4       1.0  0.02711  0.78014  0.63083  1.0000
  H   H1        1.0  0.49929  0.92739  0.09431  1.0000
  H   H2        1.0  0.50067  0.07260  0.90569  1.0000
  H   H3        1.0  0.00872  0.85818  0.09011  1.0000
  H   H4        1.0  0.99123  0.14180  0.90990  1.0000
  H   H5        1.0  0.35774  0.36273  0.08541  1.0000
  H   H6        1.0  0.64220  0.63726  0.91457  1.0000
  H   H7        1.0  0.84597  0.43769  0.08336  1.0000
  H   H8        1.0  0.15406  0.56229  0.91665  1.0000
  C   C1        1.0  0.61291  0.99409  0.19315  1.0000
  C   C2        1.0  0.38709  0.00591  0.80684  1.0000
  C   C3        1.0  0.11577  0.84892  0.19419  1.0000
  C   C4        1.0  0.88423  0.15108  0.80578  1.0000
  C   C5        1.0  0.28063  0.34768  0.18782  1.0000
  C   C6        1.0  0.71934  0.65234  0.81220  1.0000
  C   C7        1.0  0.77633  0.50172  0.18965  1.0000
  C   C8        1.0  0.22369  0.49827  0.81037  1.0000
  O   O1        1.0  0.62292  0.95658  0.32318  1.0000
  O   O2        1.0  0.37711  0.04341  0.67680  1.0000
  O   O3        1.0  0.22894  0.72255  0.17694  1.0000
  O   O4        1.0  0.77107  0.27746  0.82304  1.0000
  O   O5        1.0  0.32040  0.44787  0.31900  1.0000
  O   O6        1.0  0.67959  0.55217  0.68100  1.0000
  O   O7        1.0  0.65171  0.61565  0.17250  1.0000
  O   O8        1.0  0.34830  0.38434  0.82751  1.0000
  O   O9        1.0  0.72810  0.10745  0.16643  1.0000
  O   O10       1.0  0.27193  0.89253  0.83355  1.0000
  O   O11       1.0  0.12385  0.95803  0.32012  1.0000
  O   O12       1.0  0.87621  0.04198  0.67985  1.0000
  O   O13       1.0  0.14991  0.22519  0.16307  1.0000
  O   O14       1.0  0.85008  0.77481  0.83696  1.0000
  O   O15       1.0  0.81730  0.46042  0.31689  1.0000
  O   O16       1.0  0.18270  0.53958  0.68312  1.0000
