data_image0
_chemical_formula_structural       Sn4H16C16O20
_chemical_formula_sum              "Sn4 H16 C16 O20"
_cell_length_a       5.19618
_cell_length_b       7.40935
_cell_length_c       16.9487
_cell_angle_alpha    89.9992
_cell_angle_beta     90.0009
_cell_angle_gamma    89.9993

_space_group_name_H-M_alt    "P 1"
_space_group_IT_number       1

loop_
  _space_group_symop_operation_xyz
  'x, y, z'

loop_
  _atom_site_type_symbol
  _atom_site_label
  _atom_site_symmetry_multiplicity
  _atom_site_fract_x
  _atom_site_fract_y
  _atom_site_fract_z
  _atom_site_occupancy
  Sn  Sn1       1.0  0.63990  0.24368  0.59537  1.0000
  Sn  Sn2       1.0  0.63988  0.74368  0.90463  1.0000
  Sn  Sn3       1.0  0.36012  0.24365  0.09538  1.0000
  Sn  Sn4       1.0  0.36012  0.74366  0.40462  1.0000
  H   H1        1.0  0.91850  0.95939  0.66836  1.0000
  H   H2        1.0  0.91852  0.45939  0.83165  1.0000
  H   H3        1.0  0.08149  0.95939  0.16836  1.0000
  H   H4        1.0  0.08149  0.45939  0.33165  1.0000
  H   H5        1.0  0.02642  0.92791  0.57833  1.0000
  H   H6        1.0  0.02643  0.42790  0.92167  1.0000
  H   H7        1.0  0.97358  0.92791  0.07833  1.0000
  H   H8        1.0  0.97358  0.42791  0.42167  1.0000
  H   H9        1.0  0.47177  0.25223  0.32254  1.0000
  H   H10       1.0  0.47177  0.75222  0.17746  1.0000
  H   H11       1.0  0.52823  0.25223  0.82255  1.0000
  H   H12       1.0  0.52822  0.75222  0.67745  1.0000
  H   H13       1.0  0.74173  0.09936  0.22709  1.0000
  H   H14       1.0  0.74172  0.59935  0.27291  1.0000
  H   H15       1.0  0.25828  0.09938  0.72709  1.0000
  H   H16       1.0  0.25829  0.59938  0.77291  1.0000
  C   C1        1.0  0.64872  0.14932  0.43047  1.0000
  C   C2        1.0  0.64871  0.64931  0.06952  1.0000
  C   C3        1.0  0.35128  0.14932  0.93048  1.0000
  C   C4        1.0  0.35126  0.64933  0.56952  1.0000
  C   C5        1.0  0.62978  0.16632  0.34295  1.0000
  C   C6        1.0  0.62977  0.66632  0.15705  1.0000
  C   C7        1.0  0.37022  0.16633  0.84296  1.0000
  C   C8        1.0  0.37022  0.66632  0.65704  1.0000
  C   C9        1.0  0.77675  0.08050  0.28997  1.0000
  C   C10       1.0  0.77675  0.58050  0.21003  1.0000
  C   C11       1.0  0.22325  0.08052  0.78997  1.0000
  C   C12       1.0  0.22324  0.58052  0.71003  1.0000
  C   C13       1.0  0.99328  0.95953  0.31117  1.0000
  C   C14       1.0  0.99328  0.45954  0.18883  1.0000
  C   C15       1.0  0.00672  0.95955  0.81118  1.0000
  C   C16       1.0  0.00672  0.45955  0.68883  1.0000
  O   O1        1.0  0.79094  0.26096  0.46929  1.0000
  O   O2        1.0  0.79094  0.76095  0.03071  1.0000
  O   O3        1.0  0.20906  0.26096  0.96930  1.0000
  O   O4        1.0  0.20904  0.76097  0.53071  1.0000
  O   O5        1.0  0.50464  0.03772  0.46535  1.0000
  O   O6        1.0  0.50465  0.53771  0.03465  1.0000
  O   O7        1.0  0.49533  0.03770  0.96536  1.0000
  O   O8        1.0  0.49534  0.53774  0.53464  1.0000
  O   O9        1.0  0.01963  0.91956  0.38481  1.0000
  O   O10       1.0  0.01962  0.41957  0.11518  1.0000
  O   O11       1.0  0.98038  0.91958  0.88482  1.0000
  O   O12       1.0  0.98040  0.41958  0.61518  1.0000
  O   O13       1.0  0.14112  0.89953  0.25769  1.0000
  O   O14       1.0  0.14111  0.39954  0.24231  1.0000
  O   O15       1.0  0.85889  0.89955  0.75769  1.0000
  O   O16       1.0  0.85889  0.39953  0.74231  1.0000
  O   O17       1.0  0.94115  0.01555  0.61428  1.0000
  O   O18       1.0  0.94117  0.51555  0.88572  1.0000
  O   O19       1.0  0.05884  0.01555  0.11428  1.0000
  O   O20       1.0  0.05885  0.51554  0.38572  1.0000
