data_image0
_chemical_formula_structural       Cd4H16C28N12Cl4O8
_chemical_formula_sum              "Cd4 H16 C28 N12 Cl4 O8"
_cell_length_a       7.28765
_cell_length_b       10.6415
_cell_length_c       10.9308
_cell_angle_alpha    90.0009
_cell_angle_beta     108.229
_cell_angle_gamma    89.9989

_space_group_name_H-M_alt    "P 1"
_space_group_IT_number       1

loop_
  _space_group_symop_operation_xyz
  'x, y, z'

loop_
  _atom_site_type_symbol
  _atom_site_label
  _atom_site_symmetry_multiplicity
  _atom_site_fract_x
  _atom_site_fract_y
  _atom_site_fract_z
  _atom_site_occupancy
  Cd  Cd1       1.0  0.00872  0.07761  0.35130  1.0000
  Cd  Cd2       1.0  0.99127  0.57762  0.14870  1.0000
  Cd  Cd3       1.0  0.99128  0.92239  0.64870  1.0000
  Cd  Cd4       1.0  0.00872  0.42239  0.85130  1.0000
  H   H1        1.0  0.89037  0.71328  0.87823  1.0000
  H   H2        1.0  0.10963  0.21329  0.62177  1.0000
  H   H3        1.0  0.10963  0.28672  0.12177  1.0000
  H   H4        1.0  0.89037  0.78672  0.37823  1.0000
  H   H5        1.0  0.68977  0.27062  0.14104  1.0000
  H   H6        1.0  0.31023  0.77062  0.35895  1.0000
  H   H7        1.0  0.31022  0.72938  0.85895  1.0000
  H   H8        1.0  0.68978  0.22938  0.64105  1.0000
  H   H9        1.0  0.49702  0.27326  0.90675  1.0000
  H   H10       1.0  0.50298  0.77326  0.59325  1.0000
  H   H11       1.0  0.50296  0.72674  0.09324  1.0000
  H   H12       1.0  0.49703  0.22674  0.40676  1.0000
  H   H13       1.0  0.53323  0.08918  0.76774  1.0000
  H   H14       1.0  0.46675  0.58917  0.73226  1.0000
  H   H15       1.0  0.46676  0.91082  0.23226  1.0000
  H   H16       1.0  0.53325  0.41082  0.26775  1.0000
  C   C1        1.0  0.68884  0.18933  0.08019  1.0000
  C   C2        1.0  0.31115  0.68933  0.41981  1.0000
  C   C3        1.0  0.31116  0.81067  0.91980  1.0000
  C   C4        1.0  0.68885  0.31066  0.58019  1.0000
  C   C5        1.0  0.58566  0.19192  0.94797  1.0000
  C   C6        1.0  0.41433  0.69192  0.55204  1.0000
  C   C7        1.0  0.41434  0.80809  0.05203  1.0000
  C   C8        1.0  0.58568  0.30808  0.44796  1.0000
  C   C9        1.0  0.60542  0.09205  0.87163  1.0000
  C   C10       1.0  0.39456  0.59205  0.62837  1.0000
  C   C11       1.0  0.39456  0.90795  0.12837  1.0000
  C   C12       1.0  0.60543  0.40796  0.37163  1.0000
  C   C13       1.0  0.72088  0.98973  0.93106  1.0000
  C   C14       1.0  0.27913  0.48973  0.56894  1.0000
  C   C15       1.0  0.27912  0.01027  0.06894  1.0000
  C   C16       1.0  0.72088  0.51027  0.43106  1.0000
  C   C17       1.0  0.76243  0.88529  0.85702  1.0000
  C   C18       1.0  0.23755  0.38530  0.64298  1.0000
  C   C19       1.0  0.23756  0.11471  0.14298  1.0000
  C   C20       1.0  0.76245  0.61470  0.35702  1.0000
  C   C21       1.0  0.91090  0.87773  0.13111  1.0000
  C   C22       1.0  0.08911  0.37772  0.36889  1.0000
  C   C23       1.0  0.08910  0.12228  0.86889  1.0000
  C   C24       1.0  0.91091  0.62227  0.63111  1.0000
  C   C25       1.0  0.80695  0.99002  0.06531  1.0000
  C   C26       1.0  0.19306  0.49001  0.43469  1.0000
  C   C27       1.0  0.19305  0.00999  0.93468  1.0000
  C   C28       1.0  0.80695  0.50998  0.56531  1.0000
  N   N1        1.0  0.79531  0.09096  0.13765  1.0000
  N   N2        1.0  0.20469  0.59096  0.36236  1.0000
  N   N3        1.0  0.20468  0.90904  0.86235  1.0000
  N   N4        1.0  0.79532  0.40904  0.63765  1.0000
  N   N5        1.0  0.92473  0.77840  0.05972  1.0000
  N   N6        1.0  0.07527  0.27840  0.44028  1.0000
  N   N7        1.0  0.07527  0.22161  0.94028  1.0000
  N   N8        1.0  0.92473  0.72160  0.55972  1.0000
  N   N9        1.0  0.85448  0.78671  0.92832  1.0000
  N   N10       1.0  0.14552  0.28671  0.57168  1.0000
  N   N11       1.0  0.14553  0.21329  0.07168  1.0000
  N   N12       1.0  0.85448  0.71329  0.42832  1.0000
  Cl  Cl1       1.0  0.26518  0.98900  0.55441  1.0000
  Cl  Cl2       1.0  0.73482  0.48900  0.94559  1.0000
  Cl  Cl3       1.0  0.73482  0.01100  0.44559  1.0000
  Cl  Cl4       1.0  0.26518  0.51100  0.05441  1.0000
  O   O1        1.0  0.98367  0.87399  0.25412  1.0000
  O   O2        1.0  0.01633  0.37397  0.24589  1.0000
  O   O3        1.0  0.01633  0.12602  0.74589  1.0000
  O   O4        1.0  0.98367  0.62602  0.75411  1.0000
  O   O5        1.0  0.72408  0.88642  0.73605  1.0000
  O   O6        1.0  0.27591  0.38642  0.76394  1.0000
  O   O7        1.0  0.27593  0.11358  0.26394  1.0000
  O   O8        1.0  0.72409  0.61357  0.23607  1.0000
