data_image0
_chemical_formula_structural       Cd2H22C26N2O14
_chemical_formula_sum              "Cd2 H22 C26 N2 O14"
_cell_length_a       7.8589
_cell_length_b       9.16285
_cell_length_c       10.178
_cell_angle_alpha    70.7134
_cell_angle_beta     75.4321
_cell_angle_gamma    66.8118

_space_group_name_H-M_alt    "P 1"
_space_group_IT_number       1

loop_
  _space_group_symop_operation_xyz
  'x, y, z'

loop_
  _atom_site_type_symbol
  _atom_site_label
  _atom_site_symmetry_multiplicity
  _atom_site_fract_x
  _atom_site_fract_y
  _atom_site_fract_z
  _atom_site_occupancy
  Cd  Cd1       1.0  0.36917  0.35362  0.89621  1.0000
  Cd  Cd2       1.0  0.63083  0.64637  0.10379  1.0000
  H   H1        1.0  0.99564  0.56704  0.84051  1.0000
  H   H2        1.0  0.00436  0.43296  0.15949  1.0000
  H   H3        1.0  0.11528  0.66813  0.84694  1.0000
  H   H4        1.0  0.88472  0.33187  0.15306  1.0000
  H   H5        1.0  0.67646  0.03691  0.98836  1.0000
  H   H6        1.0  0.32354  0.96308  0.01164  1.0000
  H   H7        1.0  0.70529  0.18306  0.02120  1.0000
  H   H8        1.0  0.29471  0.81694  0.97880  1.0000
  H   H9        1.0  0.24806  0.04893  0.77531  1.0000
  H   H10       1.0  0.75194  0.95107  0.22469  1.0000
  H   H11       1.0  0.93458  0.31878  0.42471  1.0000
  H   H12       1.0  0.06542  0.68122  0.57529  1.0000
  H   H13       1.0  0.71654  0.50757  0.56250  1.0000
  H   H14       1.0  0.28346  0.49243  0.43750  1.0000
  H   H15       1.0  0.22410  0.21339  0.32191  1.0000
  H   H16       1.0  0.77590  0.78661  0.67809  1.0000
  H   H17       1.0  0.41854  0.00587  0.19445  1.0000
  H   H18       1.0  0.58146  0.99414  0.80555  1.0000
  H   H19       1.0  0.43058  0.63412  0.59475  1.0000
  H   H20       1.0  0.56942  0.36588  0.40524  1.0000
  H   H21       1.0  0.23709  0.85882  0.70757  1.0000
  H   H22       1.0  0.76291  0.14118  0.29243  1.0000
  C   C1        1.0  0.70946  0.50042  0.83346  1.0000
  C   C2        1.0  0.29055  0.49958  0.16654  1.0000
  C   C3        1.0  0.02621  0.21268  0.96005  1.0000
  C   C4        1.0  0.97379  0.78732  0.03995  1.0000
  C   C5        1.0  0.84844  0.38285  0.75072  1.0000
  C   C6        1.0  0.15156  0.61715  0.24928  1.0000
  C   C7        1.0  0.00128  0.25231  0.80921  1.0000
  C   C8        1.0  0.99872  0.74769  0.19079  1.0000
  C   C9        1.0  0.12936  0.14746  0.72918  1.0000
  C   C10       1.0  0.87064  0.85254  0.27082  1.0000
  C   C11       1.0  0.10339  0.16714  0.59293  1.0000
  C   C12       1.0  0.89661  0.83286  0.40707  1.0000
  C   C13       1.0  0.95671  0.29946  0.53166  1.0000
  C   C14       1.0  0.04329  0.70054  0.46834  1.0000
  C   C15       1.0  0.83143  0.40626  0.61105  1.0000
  C   C16       1.0  0.16857  0.59374  0.38895  1.0000
  C   C17       1.0  0.27353  0.08382  0.37717  1.0000
  C   C18       1.0  0.72647  0.91618  0.62283  1.0000
  C   C19       1.0  0.38156  0.96589  0.30762  1.0000
  C   C20       1.0  0.61844  0.03411  0.69238  1.0000
  C   C21       1.0  0.44794  0.79533  0.38197  1.0000
  C   C22       1.0  0.55206  0.20467  0.61803  1.0000
  C   C23       1.0  0.39285  0.76086  0.53127  1.0000
  C   C24       1.0  0.60715  0.23914  0.46873  1.0000
  C   C25       1.0  0.28534  0.88319  0.59528  1.0000
  C   C26       1.0  0.71466  0.11681  0.40472  1.0000
  N   N1        1.0  0.22419  0.04496  0.52020  1.0000
  N   N2        1.0  0.77581  0.95504  0.47980  1.0000
  O   O1        1.0  0.53670  0.53317  0.83877  1.0000
  O   O2        1.0  0.46330  0.46683  0.16123  1.0000
  O   O3        1.0  0.77803  0.56636  0.89138  1.0000
  O   O4        1.0  0.22197  0.43364  0.10862  1.0000
  O   O5        1.0  0.18912  0.17823  0.98901  1.0000
  O   O6        1.0  0.81088  0.82178  0.01099  1.0000
  O   O7        1.0  0.88444  0.21046  0.05347  1.0000
  O   O8        1.0  0.11556  0.78954  0.94653  1.0000
  O   O9        1.0  0.54907  0.67795  0.32469  1.0000
  O   O10       1.0  0.45094  0.32205  0.67531  1.0000
  O   O11       1.0  0.12119  0.58119  0.80608  1.0000
  O   O12       1.0  0.87881  0.41881  0.19392  1.0000
  O   O13       1.0  0.60788  0.14579  0.00761  1.0000
  O   O14       1.0  0.39212  0.85421  0.99239  1.0000
