data_image0
_chemical_formula_structural       Cd2H14C26N2O10
_chemical_formula_sum              "Cd2 H14 C26 N2 O10"
_cell_length_a       7.57206
_cell_length_b       8.55769
_cell_length_c       9.08204
_cell_angle_alpha    81.2727
_cell_angle_beta     77.9588
_cell_angle_gamma    82.3352

_space_group_name_H-M_alt    "P 1"
_space_group_IT_number       1

loop_
  _space_group_symop_operation_xyz
  'x, y, z'

loop_
  _atom_site_type_symbol
  _atom_site_label
  _atom_site_symmetry_multiplicity
  _atom_site_fract_x
  _atom_site_fract_y
  _atom_site_fract_z
  _atom_site_occupancy
  Cd  Cd1       1.0  0.18758  0.07093  0.08436  1.0000
  Cd  Cd2       1.0  0.81242  0.92907  0.91564  1.0000
  H   H1        1.0  0.39676  0.47546  0.77753  1.0000
  H   H2        1.0  0.60324  0.52454  0.22247  1.0000
  H   H3        1.0  0.88250  0.70590  0.58169  1.0000
  H   H4        1.0  0.11750  0.29410  0.41830  1.0000
  H   H5        1.0  0.05422  0.50420  0.73655  1.0000
  H   H6        1.0  0.94578  0.49580  0.26345  1.0000
  H   H7        1.0  0.09373  0.89813  0.60985  1.0000
  H   H8        1.0  0.90627  0.10186  0.39015  1.0000
  H   H9        1.0  0.29572  0.71734  0.75799  1.0000
  H   H10       1.0  0.70428  0.28266  0.24201  1.0000
  H   H11       1.0  0.73614  0.74794  0.39168  1.0000
  H   H12       1.0  0.26386  0.25207  0.60833  1.0000
  H   H13       1.0  0.55199  0.93792  0.23541  1.0000
  H   H14       1.0  0.44800  0.06208  0.76459  1.0000
  C   C1        1.0  0.30087  0.92804  0.40499  1.0000
  C   C2        1.0  0.69913  0.07196  0.59502  1.0000
  C   C3        1.0  0.93760  0.25837  0.93534  1.0000
  C   C4        1.0  0.06240  0.74163  0.06466  1.0000
  C   C5        1.0  0.53421  0.24596  0.96016  1.0000
  C   C6        1.0  0.46579  0.75404  0.03984  1.0000
  C   C7        1.0  0.82443  0.37612  0.84360  1.0000
  C   C8        1.0  0.17557  0.62388  0.15640  1.0000
  C   C9        1.0  0.63723  0.37126  0.85594  1.0000
  C   C10       1.0  0.36277  0.62874  0.14406  1.0000
  C   C11       1.0  0.54107  0.48467  0.76633  1.0000
  C   C12       1.0  0.45893  0.51533  0.23367  1.0000
  C   C13       1.0  0.62790  0.60343  0.66656  1.0000
  C   C14       1.0  0.37210  0.39657  0.33344  1.0000
  C   C15       1.0  0.81422  0.60983  0.65442  1.0000
  C   C16       1.0  0.18578  0.39017  0.34558  1.0000
  C   C17       1.0  0.91054  0.49606  0.74244  1.0000
  C   C18       1.0  0.08946  0.50394  0.25756  1.0000
  C   C19       1.0  0.23386  0.86309  0.55790  1.0000
  C   C20       1.0  0.76613  0.13691  0.44211  1.0000
  C   C21       1.0  0.34405  0.76277  0.63987  1.0000
  C   C22       1.0  0.65595  0.23723  0.36013  1.0000
  C   C23       1.0  0.59333  0.78333  0.43453  1.0000
  C   C24       1.0  0.40667  0.21667  0.56547  1.0000
  C   C25       1.0  0.48943  0.88625  0.34817  1.0000
  C   C26       1.0  0.51057  0.11375  0.65183  1.0000
  N   N1        1.0  0.52225  0.71880  0.57893  1.0000
  N   N2        1.0  0.47775  0.28120  0.42107  1.0000
  O   O1        1.0  0.94894  0.28310  0.06647  1.0000
  O   O2        1.0  0.05107  0.71690  0.93353  1.0000
  O   O3        1.0  0.02810  0.13996  0.87126  1.0000
  O   O4        1.0  0.97190  0.86004  0.12874  1.0000
  O   O5        1.0  0.62187  0.12709  0.02557  1.0000
  O   O6        1.0  0.37813  0.87291  0.97443  1.0000
  O   O7        1.0  0.36235  0.26765  0.97673  1.0000
  O   O8        1.0  0.63765  0.73235  0.02327  1.0000
  O   O9        1.0  0.19429  0.02175  0.32918  1.0000
  O   O10       1.0  0.80571  0.97825  0.67082  1.0000
