data_image0
_chemical_formula_structural       Cu2H20C12N16Cl4
_chemical_formula_sum              "Cu2 H20 C12 N16 Cl4"
_cell_length_a       6.65256
_cell_length_b       7.3274
_cell_length_c       11.2406
_cell_angle_alpha    95.0777
_cell_angle_beta     89.9998
_cell_angle_gamma    90.0005

_space_group_name_H-M_alt    "P 1"
_space_group_IT_number       1

loop_
  _space_group_symop_operation_xyz
  'x, y, z'

loop_
  _atom_site_type_symbol
  _atom_site_label
  _atom_site_symmetry_multiplicity
  _atom_site_fract_x
  _atom_site_fract_y
  _atom_site_fract_z
  _atom_site_occupancy
  Cu  Cu1       1.0  0.00000  0.00000  0.00000  1.0000
  Cu  Cu2       1.0  0.50000  0.50000  1.00000  1.0000
  H   H1        1.0  0.46104  0.99943  0.11452  1.0000
  H   H2        1.0  0.96103  0.50057  0.88549  1.0000
  H   H3        1.0  0.53897  0.00057  0.88549  1.0000
  H   H4        1.0  0.03897  0.49943  0.11451  1.0000
  H   H5        1.0  0.53764  0.27769  0.40373  1.0000
  H   H6        1.0  0.03763  0.22231  0.59627  1.0000
  H   H7        1.0  0.46236  0.72231  0.59627  1.0000
  H   H8        1.0  0.96237  0.77769  0.40373  1.0000
  H   H9        1.0  0.67309  0.13394  0.29561  1.0000
  H   H10       1.0  0.17308  0.36606  0.70439  1.0000
  H   H11       1.0  0.32692  0.86606  0.70439  1.0000
  H   H12       1.0  0.82691  0.63395  0.29561  1.0000
  H   H13       1.0  0.72769  0.03456  0.49365  1.0000
  H   H14       1.0  0.22768  0.46545  0.50635  1.0000
  H   H15       1.0  0.27231  0.96544  0.50636  1.0000
  H   H16       1.0  0.77231  0.53456  0.49364  1.0000
  H   H17       1.0  0.59699  0.86219  0.40576  1.0000
  H   H18       1.0  0.09698  0.63781  0.59424  1.0000
  H   H19       1.0  0.40301  0.13781  0.59424  1.0000
  H   H20       1.0  0.90301  0.36219  0.40576  1.0000
  C   C1        1.0  0.34004  0.04113  0.17597  1.0000
  C   C2        1.0  0.84002  0.45887  0.82403  1.0000
  C   C3        1.0  0.65997  0.95887  0.82403  1.0000
  C   C4        1.0  0.15998  0.54113  0.17597  1.0000
  C   C5        1.0  0.54905  0.13790  0.36014  1.0000
  C   C6        1.0  0.04905  0.36209  0.63986  1.0000
  C   C7        1.0  0.45095  0.86210  0.63986  1.0000
  C   C8        1.0  0.95095  0.63790  0.36014  1.0000
  C   C9        1.0  0.58157  0.99967  0.45212  1.0000
  C   C10       1.0  0.08157  0.50033  0.54788  1.0000
  C   C11       1.0  0.41843  0.00033  0.54788  1.0000
  C   C12       1.0  0.91843  0.49967  0.45211  1.0000
  N   N1        1.0  0.14305  0.03846  0.15472  1.0000
  N   N2        1.0  0.64305  0.46154  0.84528  1.0000
  N   N3        1.0  0.85696  0.96154  0.84528  1.0000
  N   N4        1.0  0.35695  0.53846  0.15472  1.0000
  N   N5        1.0  0.04862  0.10040  0.25749  1.0000
  N   N6        1.0  0.54862  0.39959  0.74251  1.0000
  N   N7        1.0  0.95138  0.89959  0.74251  1.0000
  N   N8        1.0  0.45138  0.60041  0.25748  1.0000
  N   N9        1.0  0.18145  0.14164  0.33999  1.0000
  N   N10       1.0  0.68145  0.35836  0.66002  1.0000
  N   N11       1.0  0.81855  0.85836  0.66002  1.0000
  N   N12       1.0  0.31855  0.64164  0.33998  1.0000
  N   N13       1.0  0.36485  0.10466  0.29056  1.0000
  N   N14       1.0  0.86485  0.39534  0.70944  1.0000
  N   N15       1.0  0.63515  0.89533  0.70944  1.0000
  N   N16       1.0  0.13515  0.60466  0.29055  1.0000
  Cl  Cl1       1.0  0.77558  0.80215  0.07984  1.0000
  Cl  Cl2       1.0  0.27559  0.69785  0.92016  1.0000
  Cl  Cl3       1.0  0.22442  0.19785  0.92016  1.0000
  Cl  Cl4       1.0  0.72441  0.30215  0.07985  1.0000
