data_image0
_chemical_formula_structural       Mn2H16C20N4Cl6
_chemical_formula_sum              "Mn2 H16 C20 N4 Cl6"
_cell_length_a       8.10425
_cell_length_b       8.99317
_cell_length_c       9.65171
_cell_angle_alpha    81.1773
_cell_angle_beta     70.1137
_cell_angle_gamma    63.2107

_space_group_name_H-M_alt    "P 1"
_space_group_IT_number       1

loop_
  _space_group_symop_operation_xyz
  'x, y, z'

loop_
  _atom_site_type_symbol
  _atom_site_label
  _atom_site_symmetry_multiplicity
  _atom_site_fract_x
  _atom_site_fract_y
  _atom_site_fract_z
  _atom_site_occupancy
  Mn  Mn1       1.0  0.24367  0.95610  0.73222  1.0000
  Mn  Mn2       1.0  0.19985  0.04388  0.23218  1.0000
  H   H1        1.0  0.66403  0.91786  0.63677  1.0000
  H   H2        1.0  0.58199  0.08213  0.13680  1.0000
  H   H3        1.0  0.82332  0.11302  0.58397  1.0000
  H   H4        1.0  0.93644  0.88695  0.08394  1.0000
  H   H5        1.0  0.60845  0.42055  0.62280  1.0000
  H   H6        1.0  0.02923  0.57947  0.12278  1.0000
  H   H7        1.0  0.25243  0.51777  0.72337  1.0000
  H   H8        1.0  0.77044  0.48218  0.22339  1.0000
  H   H9        1.0  0.95694  0.57799  0.80875  1.0000
  H   H10       1.0  0.53523  0.42200  0.30891  1.0000
  H   H11       1.0  0.60914  0.62603  0.91940  1.0000
  H   H12       1.0  0.23547  0.37399  0.41941  1.0000
  H   H13       1.0  0.53174  0.37784  0.97132  1.0000
  H   H14       1.0  0.90982  0.62211  0.47133  1.0000
  H   H15       1.0  0.80242  0.09575  0.89275  1.0000
  H   H16       1.0  0.89835  0.90426  0.39276  1.0000
  C   C1        1.0  0.57925  0.05157  0.65331  1.0000
  C   C2        1.0  0.63091  0.94844  0.15338  1.0000
  C   C3        1.0  0.66569  0.16060  0.62395  1.0000
  C   C4        1.0  0.82639  0.83935  0.12397  1.0000
  C   C5        1.0  0.54704  0.33041  0.64667  1.0000
  C   C6        1.0  0.87763  0.66953  0.14671  1.0000
  C   C7        1.0  0.34665  0.38549  0.70233  1.0000
  C   C8        1.0  0.73236  0.61445  0.20240  1.0000
  C   C9        1.0  0.26871  0.26958  0.73000  1.0000
  C   C10       1.0  0.53847  0.73045  0.23019  1.0000
  C   C11       1.0  0.06143  0.31215  0.79246  1.0000
  C   C12       1.0  0.37380  0.68784  0.29265  1.0000
  C   C13       1.0  0.91777  0.47376  0.82927  1.0000
  C   C14       1.0  0.39183  0.52624  0.32945  1.0000
  C   C15       1.0  0.72453  0.50043  0.89258  1.0000
  C   C16       1.0  0.22524  0.49960  0.39267  1.0000
  C   C17       1.0  0.68026  0.36391  0.92054  1.0000
  C   C18       1.0  0.04437  0.63613  0.42066  1.0000
  C   C19       1.0  0.82952  0.20596  0.87921  1.0000
  C   C20       1.0  0.03562  0.79405  0.37929  1.0000
  N   N1        1.0  0.38552  0.10483  0.70176  1.0000
  N   N2        1.0  0.49045  0.89519  0.20189  1.0000
  N   N3        1.0  0.01514  0.18058  0.81486  1.0000
  N   N4        1.0  0.19590  0.81940  0.31496  1.0000
  Cl  Cl1       1.0  0.28912  0.86705  0.97277  1.0000
  Cl  Cl2       1.0  0.15609  0.13303  0.47263  1.0000
  Cl  Cl3       1.0  0.50752  0.74882  0.59683  1.0000
  Cl  Cl4       1.0  0.25637  0.25122  0.09684  1.0000
  Cl  Cl5       1.0  0.04841  0.83760  0.74186  1.0000
  Cl  Cl6       1.0  0.88604  0.16246  0.24189  1.0000
