data_image0
_chemical_formula_structural       Cd2H12C12S4N20
_chemical_formula_sum              "Cd2 H12 C12 S4 N20"
_cell_length_a       5.53708
_cell_length_b       9.97338
_cell_length_c       10.9561
_cell_angle_alpha    101.891
_cell_angle_beta     89.9996
_cell_angle_gamma    89.9997

_space_group_name_H-M_alt    "P 1"
_space_group_IT_number       1

loop_
  _space_group_symop_operation_xyz
  'x, y, z'

loop_
  _atom_site_type_symbol
  _atom_site_label
  _atom_site_symmetry_multiplicity
  _atom_site_fract_x
  _atom_site_fract_y
  _atom_site_fract_z
  _atom_site_occupancy
  Cd  Cd1       1.0  0.49999  0.50000  0.50000  1.0000
  Cd  Cd2       1.0  1.00000  0.99999  1.00000  1.0000
  H   H1        1.0  0.97942  0.54304  0.28370  1.0000
  H   H2        1.0  0.47944  0.95695  0.21629  1.0000
  H   H3        1.0  0.02056  0.45696  0.71629  1.0000
  H   H4        1.0  0.52057  0.04305  0.78371  1.0000
  H   H5        1.0  0.14080  0.61757  0.95838  1.0000
  H   H6        1.0  0.64083  0.88244  0.54163  1.0000
  H   H7        1.0  0.85919  0.38242  0.04162  1.0000
  H   H8        1.0  0.35920  0.11758  0.45838  1.0000
  H   H9        1.0  0.88572  0.63969  0.05871  1.0000
  H   H10       1.0  0.38575  0.86032  0.44130  1.0000
  H   H11       1.0  0.11426  0.36031  0.94129  1.0000
  H   H12       1.0  0.61429  0.13970  0.55871  1.0000
  C   C1        1.0  0.15783  0.55962  0.24838  1.0000
  C   C2        1.0  0.65786  0.94037  0.25162  1.0000
  C   C3        1.0  0.84214  0.44037  0.75161  1.0000
  C   C4        1.0  0.34217  0.05963  0.74839  1.0000
  C   C5        1.0  0.04107  0.57370  0.02702  1.0000
  C   C6        1.0  0.54112  0.92631  0.47298  1.0000
  C   C7        1.0  0.95891  0.42630  0.97297  1.0000
  C   C8        1.0  0.45892  0.07371  0.52703  1.0000
  C   C9        1.0  0.00107  0.33075  0.43064  1.0000
  C   C10       1.0  0.50106  0.16924  0.06936  1.0000
  C   C11       1.0  0.99892  0.66925  0.56936  1.0000
  C   C12       1.0  0.49893  0.83075  0.93063  1.0000
  S   S1        1.0  0.75552  0.29344  0.34919  1.0000
  S   S2        1.0  0.25552  0.20654  0.15082  1.0000
  S   S3        1.0  0.24444  0.70655  0.65081  1.0000
  S   S4        1.0  0.74448  0.79345  0.84918  1.0000
  N   N1        1.0  0.36566  0.56921  0.31006  1.0000
  N   N2        1.0  0.86568  0.93078  0.18994  1.0000
  N   N3        1.0  0.63432  0.43079  0.68994  1.0000
  N   N4        1.0  0.13433  0.06921  0.81006  1.0000
  N   N5        1.0  0.53989  0.59291  0.22895  1.0000
  N   N6        1.0  0.03991  0.90709  0.27105  1.0000
  N   N7        1.0  0.46009  0.40709  0.77105  1.0000
  N   N8        1.0  0.96010  0.09291  0.72895  1.0000
  N   N9        1.0  0.44500  0.59815  0.12197  1.0000
  N   N10       1.0  0.94502  0.90185  0.37803  1.0000
  N   N11       1.0  0.55499  0.40185  0.87802  1.0000
  N   N12       1.0  0.05500  0.09816  0.62197  1.0000
  N   N13       1.0  0.20435  0.57736  0.13216  1.0000
  N   N14       1.0  0.70438  0.92264  0.36783  1.0000
  N   N15       1.0  0.79564  0.42263  0.86784  1.0000
  N   N16       1.0  0.29565  0.07737  0.63216  1.0000
  N   N17       1.0  0.17968  0.35734  0.49044  1.0000
  N   N18       1.0  0.67969  0.14266  0.00959  1.0000
  N   N19       1.0  0.82031  0.64266  0.50958  1.0000
  N   N20       1.0  0.32032  0.85733  0.99043  1.0000
