data_image0
_chemical_formula_structural       Cu2H20C12Br4N16
_chemical_formula_sum              "Cu2 H20 C12 Br4 N16"
_cell_length_a       6.83464
_cell_length_b       7.79222
_cell_length_c       11.0743
_cell_angle_alpha    98.3096
_cell_angle_beta     89.9998
_cell_angle_gamma    90.0004

_space_group_name_H-M_alt    "P 1"
_space_group_IT_number       1

loop_
  _space_group_symop_operation_xyz
  'x, y, z'

loop_
  _atom_site_type_symbol
  _atom_site_label
  _atom_site_symmetry_multiplicity
  _atom_site_fract_x
  _atom_site_fract_y
  _atom_site_fract_z
  _atom_site_occupancy
  Cu  Cu1       1.0  0.00000  0.00000  0.00000  1.0000
  Cu  Cu2       1.0  0.50000  0.49998  1.00000  1.0000
  H   H1        1.0  0.45151  0.99934  0.11446  1.0000
  H   H2        1.0  0.95150  0.50066  0.88554  1.0000
  H   H3        1.0  0.54849  0.00066  0.88555  1.0000
  H   H4        1.0  0.04848  0.49931  0.11445  1.0000
  H   H5        1.0  0.53307  0.26740  0.41869  1.0000
  H   H6        1.0  0.03309  0.23261  0.58131  1.0000
  H   H7        1.0  0.46693  0.73261  0.58131  1.0000
  H   H8        1.0  0.96693  0.76739  0.41869  1.0000
  H   H9        1.0  0.66210  0.13572  0.29976  1.0000
  H   H10       1.0  0.16211  0.36430  0.70025  1.0000
  H   H11       1.0  0.33789  0.86428  0.70024  1.0000
  H   H12       1.0  0.83788  0.63571  0.29976  1.0000
  H   H13       1.0  0.72115  0.03466  0.49371  1.0000
  H   H14       1.0  0.22117  0.46534  0.50629  1.0000
  H   H15       1.0  0.27884  0.96534  0.50629  1.0000
  H   H16       1.0  0.77885  0.53466  0.49372  1.0000
  H   H17       1.0  0.59414  0.87352  0.39608  1.0000
  H   H18       1.0  0.09416  0.62650  0.60391  1.0000
  H   H19       1.0  0.40585  0.12649  0.60392  1.0000
  H   H20       1.0  0.90585  0.37351  0.39608  1.0000
  C   C1        1.0  0.33522  0.04484  0.17789  1.0000
  C   C2        1.0  0.83521  0.45517  0.82211  1.0000
  C   C3        1.0  0.66479  0.95516  0.82211  1.0000
  C   C4        1.0  0.16481  0.54483  0.17790  1.0000
  C   C5        1.0  0.54326  0.13678  0.36646  1.0000
  C   C6        1.0  0.04327  0.36323  0.63354  1.0000
  C   C7        1.0  0.45673  0.86322  0.63354  1.0000
  C   C8        1.0  0.95673  0.63677  0.36646  1.0000
  C   C9        1.0  0.57832  0.00188  0.45100  1.0000
  C   C10       1.0  0.07834  0.49813  0.54900  1.0000
  C   C11       1.0  0.42167  0.99812  0.54901  1.0000
  C   C12       1.0  0.92168  0.50187  0.45100  1.0000
  Br  Br1       1.0  0.77547  0.80337  0.08948  1.0000
  Br  Br2       1.0  0.27546  0.69664  0.91056  1.0000
  Br  Br3       1.0  0.22456  0.19664  0.91054  1.0000
  Br  Br4       1.0  0.72454  0.30336  0.08946  1.0000
  N   N1        1.0  0.14349  0.04732  0.15662  1.0000
  N   N2        1.0  0.64348  0.45268  0.84338  1.0000
  N   N3        1.0  0.85650  0.95268  0.84338  1.0000
  N   N4        1.0  0.35649  0.54729  0.15661  1.0000
  N   N5        1.0  0.05411  0.11224  0.26308  1.0000
  N   N6        1.0  0.55412  0.38776  0.73691  1.0000
  N   N7        1.0  0.94588  0.88776  0.73692  1.0000
  N   N8        1.0  0.44588  0.61222  0.26308  1.0000
  N   N9        1.0  0.18496  0.14989  0.34756  1.0000
  N   N10       1.0  0.68498  0.35012  0.65243  1.0000
  N   N11       1.0  0.81503  0.85011  0.65245  1.0000
  N   N12       1.0  0.31501  0.64989  0.34755  1.0000
  N   N13       1.0  0.36207  0.10796  0.29591  1.0000
  N   N14       1.0  0.86208  0.39205  0.70409  1.0000
  N   N15       1.0  0.63792  0.89205  0.70410  1.0000
  N   N16       1.0  0.13792  0.60794  0.29588  1.0000
