data_image0
_chemical_formula_structural       CdH10C8S2N10
_chemical_formula_sum              "Cd1 H10 C8 S2 N10"
_cell_length_a       5.60767
_cell_length_b       7.51101
_cell_length_c       9.07801
_cell_angle_alpha    100.826
_cell_angle_beta     104.381
_cell_angle_gamma    95.3319

_space_group_name_H-M_alt    "P 1"
_space_group_IT_number       1

loop_
  _space_group_symop_operation_xyz
  'x, y, z'

loop_
  _atom_site_type_symbol
  _atom_site_label
  _atom_site_symmetry_multiplicity
  _atom_site_fract_x
  _atom_site_fract_y
  _atom_site_fract_z
  _atom_site_occupancy
  Cd  Cd1       1.0  0.99999  0.00000  1.00000  1.0000
  H   H1        1.0  0.43608  0.12273  0.76779  1.0000
  H   H2        1.0  0.56391  0.87726  0.23221  1.0000
  H   H3        1.0  0.42708  0.17587  0.46884  1.0000
  H   H4        1.0  0.57292  0.82413  0.53117  1.0000
  H   H5        1.0  0.16021  0.26597  0.37892  1.0000
  H   H6        1.0  0.83980  0.73403  0.62108  1.0000
  H   H7        1.0  0.30552  0.55934  0.58470  1.0000
  H   H8        1.0  0.69449  0.44065  0.41530  1.0000
  H   H9        1.0  0.57752  0.47079  0.66775  1.0000
  H   H10       1.0  0.42249  0.52921  0.33225  1.0000
  C   C1        1.0  0.24639  0.14661  0.72240  1.0000
  C   C2        1.0  0.75359  0.85339  0.27760  1.0000
  C   C3        1.0  0.29962  0.27373  0.48967  1.0000
  C   C4        1.0  0.70038  0.72626  0.51033  1.0000
  C   C5        1.0  0.43758  0.46750  0.55777  1.0000
  C   C6        1.0  0.56243  0.53250  0.44222  1.0000
  C   C7        1.0  0.42617  0.77854  0.88507  1.0000
  C   C8        1.0  0.57385  0.22148  0.11493  1.0000
  S   S1        1.0  0.17336  0.67260  0.90510  1.0000
  S   S2        1.0  0.82661  0.32741  0.09490  1.0000
  N   N1        1.0  0.05333  0.11404  0.77896  1.0000
  N   N2        1.0  0.94668  0.88596  0.22104  1.0000
  N   N3        1.0  0.85360  0.16214  0.68353  1.0000
  N   N4        1.0  0.14640  0.83786  0.31647  1.0000
  N   N5        1.0  0.91878  0.22138  0.57162  1.0000
  N   N6        1.0  0.08122  0.77863  0.42838  1.0000
  N   N7        1.0  0.16460  0.21193  0.59385  1.0000
  N   N8        1.0  0.83540  0.78807  0.40616  1.0000
  N   N9        1.0  0.60740  0.85708  0.86784  1.0000
  N   N10       1.0  0.39261  0.14293  0.13216  1.0000
