data_image0
_chemical_formula_structural       NiH20C14S2N18
_chemical_formula_sum              "Ni1 H20 C14 S2 N18"
_cell_length_a       6.45402
_cell_length_b       9.25275
_cell_length_c       10.9228
_cell_angle_alpha    66.7835
_cell_angle_beta     83.1271
_cell_angle_gamma    77.1656

_space_group_name_H-M_alt    "P 1"
_space_group_IT_number       1

loop_
  _space_group_symop_operation_xyz
  'x, y, z'

loop_
  _atom_site_type_symbol
  _atom_site_label
  _atom_site_symmetry_multiplicity
  _atom_site_fract_x
  _atom_site_fract_y
  _atom_site_fract_z
  _atom_site_occupancy
  Ni  Ni1       1.0  0.00000  1.00000  0.00000  1.0000
  H   H1        1.0  0.50217  0.87538  0.93332  1.0000
  H   H2        1.0  0.49783  0.12461  0.06669  1.0000
  H   H3        1.0  0.95802  0.33741  0.72703  1.0000
  H   H4        1.0  0.04198  0.66258  0.27298  1.0000
  H   H5        1.0  0.71697  0.97186  0.59089  1.0000
  H   H6        1.0  0.28302  0.02814  0.40912  1.0000
  H   H7        1.0  0.79142  0.85449  0.75859  1.0000
  H   H8        1.0  0.20858  0.14551  0.24141  1.0000
  H   H9        1.0  0.60676  0.73959  0.57271  1.0000
  H   H10       1.0  0.39324  0.26042  0.42728  1.0000
  H   H11       1.0  0.68067  0.61775  0.73806  1.0000
  H   H12       1.0  0.31932  0.38225  0.26194  1.0000
  H   H13       1.0  0.94991  0.58539  0.55263  1.0000
  H   H14       1.0  0.05009  0.41461  0.44737  1.0000
  H   H15       1.0  0.98425  0.78196  0.50924  1.0000
  H   H16       1.0  0.01575  0.21804  0.49076  1.0000
  H   H17       1.0  0.11932  0.70921  0.73799  1.0000
  H   H18       1.0  0.88068  0.29079  0.26201  1.0000
  H   H19       1.0  0.27725  0.60640  0.64080  1.0000
  H   H20       1.0  0.72275  0.39360  0.35920  1.0000
  C   C1        1.0  0.40205  0.90815  0.85029  1.0000
  C   C2        1.0  0.59795  0.09185  0.14972  1.0000
  C   C3        1.0  0.03505  0.34375  0.80716  1.0000
  C   C4        1.0  0.96495  0.65624  0.19285  1.0000
  C   C5        1.0  0.68837  0.86858  0.68045  1.0000
  C   C6        1.0  0.31162  0.13142  0.31955  1.0000
  C   C7        1.0  0.71947  0.71849  0.64863  1.0000
  C   C8        1.0  0.28053  0.28151  0.35136  1.0000
  C   C9        1.0  0.94460  0.67710  0.59404  1.0000
  C   C10       1.0  0.05541  0.32290  0.40596  1.0000
  C   C11       1.0  0.12173  0.62272  0.69217  1.0000
  C   C12       1.0  0.87827  0.37727  0.30782  1.0000
  C   C13       1.0  0.66596  0.18735  0.77973  1.0000
  C   C14       1.0  0.33405  0.81265  0.22027  1.0000
  S   S1        1.0  0.56302  0.31599  0.64075  1.0000
  S   S2        1.0  0.43698  0.68401  0.35925  1.0000
  N   N1        1.0  0.19242  0.95765  0.84707  1.0000
  N   N2        1.0  0.80758  0.04235  0.15294  1.0000
  N   N3        1.0  0.13494  0.98904  0.72200  1.0000
  N   N4        1.0  0.86506  0.01096  0.27801  1.0000
  N   N5        1.0  0.30272  0.95982  0.65032  1.0000
  N   N6        1.0  0.69727  0.04018  0.34968  1.0000
  N   N7        1.0  0.47143  0.90912  0.72941  1.0000
  N   N8        1.0  0.52857  0.09088  0.27059  1.0000
  N   N9        1.0  0.10838  0.47043  0.80293  1.0000
  N   N10       1.0  0.89163  0.52958  0.19707  1.0000
  N   N11       1.0  0.19196  0.43394  0.92169  1.0000
  N   N12       1.0  0.80804  0.56606  0.07831  1.0000
  N   N13       1.0  0.16727  0.28891  0.99613  1.0000
  N   N14       1.0  0.83273  0.71109  0.00387  1.0000
  N   N15       1.0  0.06990  0.22991  0.92767  1.0000
  N   N16       1.0  0.93011  0.77010  0.07233  1.0000
  N   N17       1.0  0.74234  0.09263  0.88149  1.0000
  N   N18       1.0  0.25767  0.90737  0.11851  1.0000
