data_image0
_chemical_formula_structural       Ni2H24C20S4N36
_chemical_formula_sum              "Ni2 H24 C20 S4 N36"
_cell_length_a       6.76831
_cell_length_b       8.26322
_cell_length_c       18.431
_cell_angle_alpha    90.0001
_cell_angle_beta     90.0005
_cell_angle_gamma    104.205

_space_group_name_H-M_alt    "P 1"
_space_group_IT_number       1

loop_
  _space_group_symop_operation_xyz
  'x, y, z'

loop_
  _atom_site_type_symbol
  _atom_site_label
  _atom_site_symmetry_multiplicity
  _atom_site_fract_x
  _atom_site_fract_y
  _atom_site_fract_z
  _atom_site_occupancy
  Ni  Ni1       1.0  0.50001  1.00000  0.50000  1.0000
  Ni  Ni2       1.0  1.00000  0.00000  1.00000  1.0000
  H   H1        1.0  0.56988  0.25904  0.35419  1.0000
  H   H2        1.0  0.93012  0.74096  0.85418  1.0000
  H   H3        1.0  0.43013  0.74096  0.64582  1.0000
  H   H4        1.0  0.06988  0.25904  0.14582  1.0000
  H   H5        1.0  0.91313  0.89732  0.45248  1.0000
  H   H6        1.0  0.58688  0.10267  0.95248  1.0000
  H   H7        1.0  0.08688  0.10266  0.54752  1.0000
  H   H8        1.0  0.41312  0.89733  0.04752  1.0000
  H   H9        1.0  0.09528  0.47948  0.30150  1.0000
  H   H10       1.0  0.40472  0.52052  0.80149  1.0000
  H   H11       1.0  0.90472  0.52051  0.69850  1.0000
  H   H12       1.0  0.59527  0.47949  0.19851  1.0000
  H   H13       1.0  0.83944  0.46120  0.27499  1.0000
  H   H14       1.0  0.66055  0.53880  0.77499  1.0000
  H   H15       1.0  0.16056  0.53879  0.72501  1.0000
  H   H16       1.0  0.33944  0.46121  0.22501  1.0000
  H   H17       1.0  0.03439  0.76070  0.29132  1.0000
  H   H18       1.0  0.46560  0.23930  0.79131  1.0000
  H   H19       1.0  0.96561  0.23929  0.70868  1.0000
  H   H20       1.0  0.53439  0.76071  0.20869  1.0000
  H   H21       1.0  0.09702  0.71780  0.38180  1.0000
  H   H22       1.0  0.40298  0.28221  0.88180  1.0000
  H   H23       1.0  0.90299  0.28220  0.61820  1.0000
  H   H24       1.0  0.59701  0.71780  0.11820  1.0000
  C   C1        1.0  0.69959  0.27882  0.39046  1.0000
  C   C2        1.0  0.80041  0.72118  0.89046  1.0000
  C   C3        1.0  0.30043  0.72118  0.60954  1.0000
  C   C4        1.0  0.19958  0.27882  0.10954  1.0000
  C   C5        1.0  0.78533  0.83255  0.41984  1.0000
  C   C6        1.0  0.71467  0.16745  0.91984  1.0000
  C   C7        1.0  0.21468  0.16744  0.58016  1.0000
  C   C8        1.0  0.28532  0.83255  0.08016  1.0000
  C   C9        1.0  0.94897  0.50030  0.31915  1.0000
  C   C10       1.0  0.55103  0.49970  0.81914  1.0000
  C   C11       1.0  0.05105  0.49969  0.68086  1.0000
  C   C12       1.0  0.44896  0.50031  0.18086  1.0000
  C   C13       1.0  0.98115  0.68313  0.33923  1.0000
  C   C14       1.0  0.51885  0.31687  0.83923  1.0000
  C   C15       1.0  0.01885  0.31687  0.66077  1.0000
  C   C16       1.0  0.48115  0.68313  0.16077  1.0000
  C   C17       1.0  0.22703  0.07814  0.37377  1.0000
  C   C18       1.0  0.27296  0.92186  0.87376  1.0000
  C   C19       1.0  0.77298  0.92186  0.62623  1.0000
  C   C20       1.0  0.72704  0.07815  0.12623  1.0000
  S   S1        1.0  0.13590  0.12269  0.29725  1.0000
  S   S2        1.0  0.36409  0.87731  0.79725  1.0000
  S   S3        1.0  0.86411  0.87731  0.70275  1.0000
  S   S4        1.0  0.63591  0.12269  0.20275  1.0000
  N   N1        1.0  0.71168  0.19976  0.45236  1.0000
  N   N2        1.0  0.78832  0.80024  0.95236  1.0000
  N   N3        1.0  0.28834  0.80024  0.54765  1.0000
  N   N4        1.0  0.21166  0.19976  0.04764  1.0000
  N   N5        1.0  0.90225  0.26344  0.47907  1.0000
  N   N6        1.0  0.59776  0.73656  0.97907  1.0000
  N   N7        1.0  0.09777  0.73656  0.52093  1.0000
  N   N8        1.0  0.40223  0.26344  0.02093  1.0000
  N   N9        1.0  0.00514  0.37686  0.43585  1.0000
  N   N10       1.0  0.49486  0.62314  0.93585  1.0000
  N   N11       1.0  0.99488  0.62314  0.56415  1.0000
  N   N12       1.0  0.50512  0.37687  0.06415  1.0000
  N   N13       1.0  0.87954  0.38865  0.38004  1.0000
  N   N14       1.0  0.62046  0.61135  0.88003  1.0000
  N   N15       1.0  0.12048  0.61135  0.61997  1.0000
  N   N16       1.0  0.37953  0.38865  0.11997  1.0000
  N   N17       1.0  0.79724  0.72446  0.36689  1.0000
  N   N18       1.0  0.70276  0.27554  0.86689  1.0000
  N   N19       1.0  0.20276  0.27554  0.63311  1.0000
  N   N20       1.0  0.29723  0.72446  0.13311  1.0000
  N   N21       1.0  0.60781  0.66354  0.33888  1.0000
  N   N22       1.0  0.89219  0.33646  0.83888  1.0000
  N   N23       1.0  0.39220  0.33646  0.66112  1.0000
  N   N24       1.0  0.10780  0.66354  0.16112  1.0000
  N   N25       1.0  0.48549  0.73397  0.37470  1.0000
  N   N26       1.0  0.01451  0.26602  0.87469  1.0000
  N   N27       1.0  0.51452  0.26603  0.62530  1.0000
  N   N28       1.0  0.98548  0.73397  0.12530  1.0000
  N   N29       1.0  0.59227  0.83976  0.42528  1.0000
  N   N30       1.0  0.90773  0.16024  0.92528  1.0000
  N   N31       1.0  0.40774  0.16024  0.57471  1.0000
  N   N32       1.0  0.09226  0.83976  0.07472  1.0000
  N   N33       1.0  0.28753  0.04105  0.43049  1.0000
  N   N34       1.0  0.21247  0.95895  0.93049  1.0000
  N   N35       1.0  0.71249  0.95895  0.56951  1.0000
  N   N36       1.0  0.78751  0.04105  0.06951  1.0000
