data_image0
_chemical_formula_structural       Ag4H20C28N8
_chemical_formula_sum              "Ag4 H20 C28 N8"
_cell_length_a       4.51367
_cell_length_b       11.1962
_cell_length_c       12.3456
_cell_angle_alpha    90
_cell_angle_beta     90
_cell_angle_gamma    96.1671

_space_group_name_H-M_alt    "P 1"
_space_group_IT_number       1

loop_
  _space_group_symop_operation_xyz
  'x, y, z'

loop_
  _atom_site_type_symbol
  _atom_site_label
  _atom_site_symmetry_multiplicity
  _atom_site_fract_x
  _atom_site_fract_y
  _atom_site_fract_z
  _atom_site_occupancy
  Ag  Ag1       1.0  0.98321  0.09467  0.23688  1.0000
  Ag  Ag2       1.0  0.51679  0.40533  0.73687  1.0000
  Ag  Ag3       1.0  0.01679  0.90533  0.76313  1.0000
  Ag  Ag4       1.0  0.48321  0.59467  0.26312  1.0000
  H   H1        1.0  0.20042  0.46818  0.46954  1.0000
  H   H2        1.0  0.29958  0.03182  0.96954  1.0000
  H   H3        1.0  0.79958  0.53182  0.53046  1.0000
  H   H4        1.0  0.70042  0.96818  0.03046  1.0000
  H   H5        1.0  0.50456  0.05140  0.42138  1.0000
  H   H6        1.0  0.99544  0.44860  0.92138  1.0000
  H   H7        1.0  0.49544  0.94860  0.57862  1.0000
  H   H8        1.0  0.00456  0.55140  0.07862  1.0000
  H   H9        1.0  0.93332  0.38661  0.18089  1.0000
  H   H10       1.0  0.56668  0.11339  0.68089  1.0000
  H   H11       1.0  0.06668  0.61339  0.81911  1.0000
  H   H12       1.0  0.43332  0.88661  0.31911  1.0000
  H   H13       1.0  0.98710  0.29890  0.58785  1.0000
  H   H14       1.0  0.51290  0.20110  0.08785  1.0000
  H   H15       1.0  0.01290  0.70110  0.41215  1.0000
  H   H16       1.0  0.48710  0.79890  0.91215  1.0000
  H   H17       1.0  0.12945  0.09362  0.56237  1.0000
  H   H18       1.0  0.37055  0.40638  0.06237  1.0000
  H   H19       1.0  0.87055  0.90638  0.43763  1.0000
  H   H20       1.0  0.62945  0.59362  0.93763  1.0000
  C   C1        1.0  0.78789  0.35557  0.24748  1.0000
  C   C2        1.0  0.71211  0.14443  0.74748  1.0000
  C   C3        1.0  0.21211  0.64443  0.75252  1.0000
  C   C4        1.0  0.28789  0.85557  0.25252  1.0000
  C   C5        1.0  0.46920  0.35349  0.37957  1.0000
  C   C6        1.0  0.03080  0.14651  0.87957  1.0000
  C   C7        1.0  0.53080  0.64651  0.62043  1.0000
  C   C8        1.0  0.96920  0.85349  0.12043  1.0000
  C   C9        1.0  0.26522  0.37788  0.45969  1.0000
  C   C10       1.0  0.23477  0.12212  0.95969  1.0000
  C   C11       1.0  0.73477  0.62212  0.54031  1.0000
  C   C12       1.0  0.76523  0.87788  0.04031  1.0000
  C   C13       1.0  0.14951  0.28318  0.52554  1.0000
  C   C14       1.0  0.35049  0.21682  0.02554  1.0000
  C   C15       1.0  0.85049  0.71682  0.47446  1.0000
  C   C16       1.0  0.64951  0.78318  0.97446  1.0000
  C   C17       1.0  0.23181  0.16607  0.51106  1.0000
  C   C18       1.0  0.26818  0.33393  0.01106  1.0000
  C   C19       1.0  0.76818  0.83393  0.48894  1.0000
  C   C20       1.0  0.73182  0.66607  0.98894  1.0000
  C   C21       1.0  0.43685  0.14125  0.43190  1.0000
  C   C22       1.0  0.06315  0.35875  0.93190  1.0000
  C   C23       1.0  0.56315  0.85875  0.56810  1.0000
  C   C24       1.0  0.93685  0.64125  0.06810  1.0000
  C   C25       1.0  0.55796  0.23659  0.36661  1.0000
  C   C26       1.0  0.94204  0.26341  0.86661  1.0000
  C   C27       1.0  0.44204  0.76341  0.63339  1.0000
  C   C28       1.0  0.05796  0.73659  0.13339  1.0000
  N   N1        1.0  0.76235  0.24085  0.28243  1.0000
  N   N2        1.0  0.73765  0.25915  0.78243  1.0000
  N   N3        1.0  0.23765  0.75915  0.71757  1.0000
  N   N4        1.0  0.26235  0.74085  0.21757  1.0000
  N   N5        1.0  0.61726  0.42726  0.30209  1.0000
  N   N6        1.0  0.88274  0.07274  0.80209  1.0000
  N   N7        1.0  0.38274  0.57274  0.69791  1.0000
  N   N8        1.0  0.11726  0.92726  0.19791  1.0000
