data_image0
_chemical_formula_structural       Cd2H20C24S4N8O10
_chemical_formula_sum              "Cd2 H20 C24 S4 N8 O10"
_cell_length_a       6.83256
_cell_length_b       8.91612
_cell_length_c       13.2151
_cell_angle_alpha    71.6437
_cell_angle_beta     85.7677
_cell_angle_gamma    85.0242

_space_group_name_H-M_alt    "P 1"
_space_group_IT_number       1

loop_
  _space_group_symop_operation_xyz
  'x, y, z'

loop_
  _atom_site_type_symbol
  _atom_site_label
  _atom_site_symmetry_multiplicity
  _atom_site_fract_x
  _atom_site_fract_y
  _atom_site_fract_z
  _atom_site_occupancy
  Cd  Cd1       1.0  0.24411  0.62180  0.07390  1.0000
  Cd  Cd2       1.0  0.75589  0.37820  0.92610  1.0000
  H   H1        1.0  0.15271  0.95959  0.09059  1.0000
  H   H2        1.0  0.84729  0.04041  0.90941  1.0000
  H   H3        1.0  0.97886  0.86098  0.08316  1.0000
  H   H4        1.0  0.02114  0.13902  0.91684  1.0000
  H   H5        1.0  0.22924  0.26732  0.24660  1.0000
  H   H6        1.0  0.77076  0.73268  0.75340  1.0000
  H   H7        1.0  0.22148  0.13231  0.44601  1.0000
  H   H8        1.0  0.77851  0.86769  0.55399  1.0000
  H   H9        1.0  0.22591  0.29960  0.56661  1.0000
  H   H10       1.0  0.77409  0.70039  0.43339  1.0000
  H   H11       1.0  0.23822  0.70971  0.28440  1.0000
  H   H12       1.0  0.76178  0.29029  0.71560  1.0000
  H   H13       1.0  0.18507  0.62626  0.83308  1.0000
  H   H14       1.0  0.81493  0.37374  0.16693  1.0000
  H   H15       1.0  0.38836  0.95874  0.95202  1.0000
  H   H16       1.0  0.61164  0.04127  0.04797  1.0000
  H   H17       1.0  0.47390  0.13655  0.77097  1.0000
  H   H18       1.0  0.52610  0.86346  0.22902  1.0000
  H   H19       1.0  0.43129  0.04372  0.61201  1.0000
  H   H20       1.0  0.56871  0.95628  0.38799  1.0000
  C   C1        1.0  0.22964  0.33407  0.30305  1.0000
  C   C2        1.0  0.77036  0.66594  0.69695  1.0000
  C   C3        1.0  0.22587  0.26081  0.41333  1.0000
  C   C4        1.0  0.77412  0.73919  0.58666  1.0000
  C   C5        1.0  0.22989  0.35409  0.48008  1.0000
  C   C6        1.0  0.77011  0.64590  0.51992  1.0000
  C   C7        1.0  0.23848  0.51860  0.43495  1.0000
  C   C8        1.0  0.76152  0.48140  0.56505  1.0000
  C   C9        1.0  0.23807  0.58228  0.32315  1.0000
  C   C10       1.0  0.76192  0.41772  0.67685  1.0000
  C   C11       1.0  0.25176  0.62665  0.49702  1.0000
  C   C12       1.0  0.74824  0.37335  0.50298  1.0000
  C   C13       1.0  0.27940  0.76857  0.62150  1.0000
  C   C14       1.0  0.72060  0.23143  0.37851  1.0000
  C   C15       1.0  0.30361  0.82842  0.71022  1.0000
  C   C16       1.0  0.69639  0.17158  0.28978  1.0000
  C   C17       1.0  0.25218  0.73932  0.81504  1.0000
  C   C18       1.0  0.74782  0.26068  0.18497  1.0000
  C   C19       1.0  0.36355  0.92544  0.88198  1.0000
  C   C20       1.0  0.63645  0.07457  0.11802  1.0000
  C   C21       1.0  0.41247  0.02413  0.77986  1.0000
  C   C22       1.0  0.58753  0.97587  0.22014  1.0000
  C   C23       1.0  0.38512  0.97455  0.69262  1.0000
  C   C24       1.0  0.61488  0.02545  0.30738  1.0000
  S   S1        1.0  0.74166  0.68483  0.03150  1.0000
  S   S2        1.0  0.25835  0.31517  0.96850  1.0000
  S   S3        1.0  0.26230  0.56979  0.63481  1.0000
  S   S4        1.0  0.73769  0.43020  0.36519  1.0000
  N   N1        1.0  0.23461  0.49214  0.25945  1.0000
  N   N2        1.0  0.76539  0.50786  0.74055  1.0000
  N   N3        1.0  0.26149  0.78119  0.45091  1.0000
  N   N4        1.0  0.73851  0.21881  0.54909  1.0000
  N   N5        1.0  0.27678  0.86074  0.52098  1.0000
  N   N6        1.0  0.72322  0.13926  0.47903  1.0000
  N   N7        1.0  0.28387  0.78636  0.89899  1.0000
  N   N8        1.0  0.71614  0.21364  0.10101  1.0000
  O   O1        1.0  0.90674  0.58401  0.09268  1.0000
  O   O2        1.0  0.09327  0.41599  0.90732  1.0000
  O   O3        1.0  0.70350  0.63197  0.93860  1.0000
  O   O4        1.0  0.29651  0.36803  0.06140  1.0000
  O   O5        1.0  0.56237  0.67038  0.10496  1.0000
  O   O6        1.0  0.43763  0.32961  0.89504  1.0000
  O   O7        1.0  0.79644  0.85215  0.99297  1.0000
  O   O8        1.0  0.20356  0.14785  0.00703  1.0000
  O   O9        1.0  0.10138  0.85344  0.12086  1.0000
  O   O10       1.0  0.89862  0.14656  0.87914  1.0000
