data_image0
_chemical_formula_structural       Ni2H22C26N2O12
_chemical_formula_sum              "Ni2 H22 C26 N2 O12"
_cell_length_a       6.98273
_cell_length_b       9.51954
_cell_length_c       10.4085
_cell_angle_alpha    111.773
_cell_angle_beta     100.811
_cell_angle_gamma    96.547

_space_group_name_H-M_alt    "P 1"
_space_group_IT_number       1

loop_
  _space_group_symop_operation_xyz
  'x, y, z'

loop_
  _atom_site_type_symbol
  _atom_site_label
  _atom_site_symmetry_multiplicity
  _atom_site_fract_x
  _atom_site_fract_y
  _atom_site_fract_z
  _atom_site_occupancy
  Ni  Ni1       1.0  0.48984  0.01885  0.22101  1.0000
  Ni  Ni2       1.0  0.51030  0.98105  0.77893  1.0000
  H   H1        1.0  0.03416  0.35895  0.28223  1.0000
  H   H2        1.0  0.96566  0.64095  0.71767  1.0000
  H   H3        1.0  0.76653  0.67014  0.02618  1.0000
  H   H4        1.0  0.23330  0.33008  0.97404  1.0000
  H   H5        1.0  0.58215  0.40310  0.96768  1.0000
  H   H6        1.0  0.41763  0.59709  0.03253  1.0000
  H   H7        1.0  0.19486  0.81286  0.51810  1.0000
  H   H8        1.0  0.80539  0.18733  0.48188  1.0000
  H   H9        1.0  0.42656  0.45678  0.23015  1.0000
  H   H10       1.0  0.57284  0.54267  0.76988  1.0000
  H   H11       1.0  0.76232  0.57414  0.40297  1.0000
  H   H12       1.0  0.23741  0.42552  0.59666  1.0000
  H   H13       1.0  0.79405  0.80842  0.62752  1.0000
  H   H14       1.0  0.20616  0.19156  0.37197  1.0000
  H   H15       1.0  0.13872  0.02855  0.12258  1.0000
  H   H16       1.0  0.86138  0.97141  0.87720  1.0000
  H   H17       1.0  0.28472  0.09405  0.04003  1.0000
  H   H18       1.0  0.71570  0.90597  0.95993  1.0000
  H   H19       1.0  0.82166  0.91566  0.24648  1.0000
  H   H20       1.0  0.17863  0.08450  0.75380  1.0000
  H   H21       1.0  0.66082  0.82770  0.29516  1.0000
  H   H22       1.0  0.33977  0.17259  0.70542  1.0000
  C   C1        1.0  0.66240  0.21839  0.09928  1.0000
  C   C2        1.0  0.33751  0.78158  0.90071  1.0000
  C   C3        1.0  0.97704  0.42711  0.22531  1.0000
  C   C4        1.0  0.02282  0.57289  0.77468  1.0000
  C   C5        1.0  0.08765  0.57243  0.25387  1.0000
  C   C6        1.0  0.91222  0.42759  0.74620  1.0000
  C   C7        1.0  0.00787  0.66216  0.18325  1.0000
  C   C8        1.0  0.99205  0.33795  0.81687  1.0000
  C   C9        1.0  0.82411  0.60090  0.08178  1.0000
  C   C10       1.0  0.17576  0.39926  0.91838  1.0000
  C   C11       1.0  0.72072  0.45403  0.05002  1.0000
  C   C12       1.0  0.27910  0.54613  0.95014  1.0000
  C   C13       1.0  0.79299  0.36758  0.12445  1.0000
  C   C14       1.0  0.20685  0.63248  0.87559  1.0000
  C   C15       1.0  0.11562  0.81667  0.20020  1.0000
  C   C16       1.0  0.88442  0.18342  0.79989  1.0000
  C   C17       1.0  0.31574  0.75554  0.48789  1.0000
  C   C18       1.0  0.68437  0.24451  0.51204  1.0000
  C   C19       1.0  0.28515  0.62903  0.35764  1.0000
  C   C20       1.0  0.71474  0.37090  0.64234  1.0000
  C   C21       1.0  0.44648  0.55881  0.32847  1.0000
  C   C22       1.0  0.55319  0.44084  0.67146  1.0000
  C   C23       1.0  0.63269  0.62346  0.42474  1.0000
  C   C24       1.0  0.36713  0.37625  0.57500  1.0000
  C   C25       1.0  0.65164  0.75288  0.54969  1.0000
  C   C26       1.0  0.34845  0.24702  0.44996  1.0000
  N   N1        1.0  0.49395  0.81493  0.58201  1.0000
  N   N2        1.0  0.50624  0.18507  0.41780  1.0000
  O   O1        1.0  0.70449  0.16349  0.19369  1.0000
  O   O2        1.0  0.29547  0.83643  0.80624  1.0000
  O   O3        1.0  0.51359  0.16210  0.99058  1.0000
  O   O4        1.0  0.48637  0.83788  0.00943  1.0000
  O   O5        1.0  0.30479  0.84602  0.23742  1.0000
  O   O6        1.0  0.69526  0.15390  0.76256  1.0000
  O   O7        1.0  0.00873  0.90611  0.16987  1.0000
  O   O8        1.0  0.99141  0.09406  0.83029  1.0000
  O   O9        1.0  0.72352  0.93036  0.30774  1.0000
  O   O10       1.0  0.27684  0.06989  0.69258  1.0000
  O   O11       1.0  0.25666  0.10580  0.13238  1.0000
  O   O12       1.0  0.74343  0.89419  0.86750  1.0000
