data_image0
_chemical_formula_structural       SrSi4H44C16N2O2
_chemical_formula_sum              "Sr1 Si4 H44 C16 N2 O2"
_cell_length_a       7.47062
_cell_length_b       8.31729
_cell_length_c       12.1274
_cell_angle_alpha    99.5565
_cell_angle_beta     99.3846
_cell_angle_gamma    113.825

_space_group_name_H-M_alt    "P 1"
_space_group_IT_number       1

loop_
  _space_group_symop_operation_xyz
  'x, y, z'

loop_
  _atom_site_type_symbol
  _atom_site_label
  _atom_site_symmetry_multiplicity
  _atom_site_fract_x
  _atom_site_fract_y
  _atom_site_fract_z
  _atom_site_occupancy
  Sr  Sr1       1.0  0.99998  0.99999  1.00000  1.0000
  Si  Si1       1.0  0.78968  0.76621  0.71781  1.0000
  Si  Si2       1.0  0.21032  0.23379  0.28219  1.0000
  Si  Si3       1.0  0.02184  0.17113  0.73610  1.0000
  Si  Si4       1.0  0.97817  0.82887  0.26390  1.0000
  H   H1        1.0  0.64864  0.47942  0.78123  1.0000
  H   H2        1.0  0.35136  0.52058  0.21876  1.0000
  H   H3        1.0  0.65285  0.65436  0.88586  1.0000
  H   H4        1.0  0.34715  0.34562  0.11414  1.0000
  H   H5        1.0  0.88002  0.62935  0.88079  1.0000
  H   H6        1.0  0.11997  0.37065  0.11921  1.0000
  H   H7        1.0  0.44055  0.56394  0.59252  1.0000
  H   H8        1.0  0.55944  0.43606  0.40747  1.0000
  H   H9        1.0  0.53959  0.77494  0.55601  1.0000
  H   H10       1.0  0.46040  0.22505  0.44399  1.0000
  H   H11       1.0  0.44409  0.75915  0.68003  1.0000
  H   H12       1.0  0.55592  0.24086  0.31997  1.0000
  H   H13       1.0  0.81199  0.52857  0.57134  1.0000
  H   H14       1.0  0.18799  0.47142  0.42866  1.0000
  H   H15       1.0  0.05408  0.67405  0.66600  1.0000
  H   H16       1.0  0.94590  0.32593  0.33398  1.0000
  H   H17       1.0  0.95113  0.74924  0.55470  1.0000
  H   H18       1.0  0.04885  0.25075  0.44529  1.0000
  H   H19       1.0  0.18940  0.50645  0.81932  1.0000
  H   H20       1.0  0.81064  0.49355  0.18068  1.0000
  H   H21       1.0  0.27522  0.40253  0.91826  1.0000
  H   H22       1.0  0.72482  0.59748  0.08174  1.0000
  H   H23       1.0  0.03294  0.40044  0.90644  1.0000
  H   H24       1.0  0.96711  0.59958  0.09356  1.0000
  H   H25       1.0  0.28881  0.30179  0.63010  1.0000
  H   H26       1.0  0.71119  0.69819  0.36989  1.0000
  H   H27       1.0  0.17280  0.06030  0.58795  1.0000
  H   H28       1.0  0.82720  0.93969  0.41205  1.0000
  H   H29       1.0  0.35621  0.17870  0.72172  1.0000
  H   H30       1.0  0.64379  0.82128  0.27827  1.0000
  H   H31       1.0  0.88485  0.30863  0.59545  1.0000
  H   H32       1.0  0.11514  0.69137  0.40456  1.0000
  H   H33       1.0  0.70403  0.20385  0.67135  1.0000
  H   H34       1.0  0.29599  0.79615  0.32867  1.0000
  H   H35       1.0  0.74160  0.06886  0.55689  1.0000
  H   H36       1.0  0.25839  0.93115  0.44312  1.0000
  H   H37       1.0  0.43201  0.78596  0.06548  1.0000
  H   H38       1.0  0.56798  0.21407  0.93452  1.0000
  H   H39       1.0  0.35289  0.92361  0.15835  1.0000
  H   H40       1.0  0.64711  0.07641  0.84166  1.0000
  H   H41       1.0  0.26142  0.93300  0.81900  1.0000
  H   H42       1.0  0.73858  0.06702  0.18101  1.0000
  H   H43       1.0  0.38037  0.79491  0.86182  1.0000
  H   H44       1.0  0.61961  0.20511  0.13818  1.0000
  C   C1        1.0  0.74116  0.62325  0.82808  1.0000
  C   C2        1.0  0.25884  0.37674  0.17192  1.0000
  C   C3        1.0  0.53005  0.71150  0.62882  1.0000
  C   C4        1.0  0.46995  0.28850  0.37118  1.0000
  C   C5        1.0  0.91313  0.67043  0.61885  1.0000
  C   C6        1.0  0.08685  0.32956  0.38114  1.0000
  C   C7        1.0  0.14054  0.38908  0.85706  1.0000
  C   C8        1.0  0.85950  0.61092  0.14294  1.0000
  C   C9        1.0  0.22869  0.17917  0.66196  1.0000
  C   C10       1.0  0.77131  0.82082  0.33804  1.0000
  C   C11       1.0  0.81999  0.19004  0.63041  1.0000
  C   C12       1.0  0.18002  0.80996  0.36960  1.0000
  C   C13       1.0  0.42318  0.91648  0.08592  1.0000
  C   C14       1.0  0.57681  0.08352  0.91408  1.0000
  C   C15       1.0  0.37063  0.92409  0.88740  1.0000
  C   C16       1.0  0.62936  0.07594  0.11260  1.0000
  N   N1        1.0  0.93336  0.98780  0.79174  1.0000
  N   N2        1.0  0.06664  0.01220  0.20826  1.0000
  O   O1        1.0  0.28927  0.92268  0.98783  1.0000
  O   O2        1.0  0.71073  0.07732  0.01216  1.0000
