data_image0
_chemical_formula_structural       Cu4H36C16O28
_chemical_formula_sum              "Cu4 H36 C16 O28"
_cell_length_a       6.96745
_cell_length_b       9.81829
_cell_length_c       13.8357
_cell_angle_alpha    89.9994
_cell_angle_beta     90.0001
_cell_angle_gamma    99.2459

_space_group_name_H-M_alt    "P 1"
_space_group_IT_number       1

loop_
  _space_group_symop_operation_xyz
  'x, y, z'

loop_
  _atom_site_type_symbol
  _atom_site_label
  _atom_site_symmetry_multiplicity
  _atom_site_fract_x
  _atom_site_fract_y
  _atom_site_fract_z
  _atom_site_occupancy
  Cu  Cu1       1.0  0.95513  0.31660  0.72464  1.0000
  Cu  Cu2       1.0  0.54488  0.18340  0.22465  1.0000
  Cu  Cu3       1.0  0.04486  0.68341  0.27536  1.0000
  Cu  Cu4       1.0  0.45514  0.81660  0.77536  1.0000
  H   H1        1.0  0.02567  0.87593  0.56357  1.0000
  H   H2        1.0  0.47431  0.62405  0.06357  1.0000
  H   H3        1.0  0.97436  0.12408  0.43644  1.0000
  H   H4        1.0  0.52562  0.37593  0.93643  1.0000
  H   H5        1.0  0.32382  0.96431  0.47974  1.0000
  H   H6        1.0  0.17617  0.53568  0.97973  1.0000
  H   H7        1.0  0.67620  0.03565  0.52027  1.0000
  H   H8        1.0  0.82377  0.46429  0.02026  1.0000
  H   H9        1.0  0.30720  0.13988  0.51032  1.0000
  H   H10       1.0  0.19277  0.36011  0.01032  1.0000
  H   H11       1.0  0.69282  0.86011  0.48966  1.0000
  H   H12       1.0  0.80718  0.63986  0.98968  1.0000
  H   H13       1.0  0.26847  0.20978  0.74336  1.0000
  H   H14       1.0  0.23153  0.29024  0.24338  1.0000
  H   H15       1.0  0.73151  0.79024  0.25662  1.0000
  H   H16       1.0  0.76847  0.70976  0.75662  1.0000
  H   H17       1.0  0.29988  0.35967  0.78787  1.0000
  H   H18       1.0  0.20013  0.14034  0.28788  1.0000
  H   H19       1.0  0.70013  0.64034  0.21210  1.0000
  H   H20       1.0  0.79989  0.85966  0.71212  1.0000
  H   H21       1.0  0.05474  0.57489  0.70844  1.0000
  H   H22       1.0  0.44527  0.92514  0.20845  1.0000
  H   H23       1.0  0.94527  0.42512  0.29156  1.0000
  H   H24       1.0  0.55474  0.07489  0.79156  1.0000
  H   H25       1.0  0.25343  0.53748  0.67726  1.0000
  H   H26       1.0  0.24657  0.96256  0.17727  1.0000
  H   H27       1.0  0.74659  0.46255  0.32275  1.0000
  H   H28       1.0  0.75341  0.03746  0.82277  1.0000
  H   H29       1.0  0.62727  0.41034  0.71781  1.0000
  H   H30       1.0  0.87275  0.08967  0.21782  1.0000
  H   H31       1.0  0.37276  0.58967  0.28217  1.0000
  H   H32       1.0  0.12726  0.91033  0.78218  1.0000
  H   H33       1.0  0.60010  0.26531  0.66652  1.0000
  H   H34       1.0  0.89992  0.23470  0.16653  1.0000
  H   H35       1.0  0.39992  0.73469  0.33347  1.0000
  H   H36       1.0  0.10009  0.76530  0.83347  1.0000
  C   C1        1.0  0.98718  0.06605  0.63224  1.0000
  C   C2        1.0  0.51280  0.43394  0.13223  1.0000
  C   C3        1.0  0.01280  0.93397  0.36777  1.0000
  C   C4        1.0  0.48722  0.56603  0.86776  1.0000
  C   C5        1.0  0.05319  0.98675  0.54672  1.0000
  C   C6        1.0  0.44684  0.51324  0.04671  1.0000
  C   C7        1.0  0.94682  0.01326  0.45329  1.0000
  C   C8        1.0  0.55319  0.48673  0.95329  1.0000
  C   C9        1.0  0.27504  0.03208  0.53432  1.0000
  C   C10       1.0  0.22493  0.46791  0.03432  1.0000
  C   C11       1.0  0.72500  0.96791  0.46569  1.0000
  C   C12       1.0  0.77492  0.53206  0.96570  1.0000
  C   C13       1.0  0.37721  0.01304  0.62876  1.0000
  C   C14       1.0  0.12277  0.48696  0.12877  1.0000
  C   C15       1.0  0.62283  0.98698  0.37123  1.0000
  C   C16       1.0  0.87720  0.51301  0.87123  1.0000
  O   O1        1.0  0.97424  0.19220  0.61640  1.0000
  O   O2        1.0  0.52572  0.30778  0.11640  1.0000
  O   O3        1.0  0.02578  0.80778  0.38361  1.0000
  O   O4        1.0  0.47425  0.69223  0.88360  1.0000
  O   O5        1.0  0.95887  0.00651  0.71408  1.0000
  O   O6        1.0  0.54117  0.49346  0.21406  1.0000
  O   O7        1.0  0.04115  0.99349  0.28591  1.0000
  O   O8        1.0  0.45887  0.50653  0.78591  1.0000
  O   O9        1.0  0.43043  0.11687  0.68392  1.0000
  O   O10       1.0  0.06957  0.38312  0.18392  1.0000
  O   O11       1.0  0.56957  0.88315  0.31609  1.0000
  O   O12       1.0  0.93043  0.61688  0.81608  1.0000
  O   O13       1.0  0.39524  0.88934  0.64902  1.0000
  O   O14       1.0  0.10476  0.61065  0.14902  1.0000
  O   O15       1.0  0.60478  0.11063  0.35098  1.0000
  O   O16       1.0  0.89523  0.38935  0.85098  1.0000
  O   O17       1.0  0.20320  0.27258  0.78340  1.0000
  O   O18       1.0  0.29680  0.22744  0.28342  1.0000
  O   O19       1.0  0.79681  0.72744  0.21659  1.0000
  O   O20       1.0  0.70320  0.77257  0.71659  1.0000
  O   O21       1.0  0.11551  0.52153  0.65981  1.0000
  O   O22       1.0  0.38449  0.97851  0.15981  1.0000
  O   O23       1.0  0.88450  0.47849  0.34020  1.0000
  O   O24       1.0  0.61549  0.02151  0.84019  1.0000
  O   O25       1.0  0.69424  0.35193  0.67523  1.0000
  O   O26       1.0  0.80578  0.14809  0.17523  1.0000
  O   O27       1.0  0.30578  0.64808  0.32475  1.0000
  O   O28       1.0  0.19423  0.85191  0.82476  1.0000
