data_image0
_chemical_formula_structural       Mn2H26C32N4O10
_chemical_formula_sum              "Mn2 H26 C32 N4 O10"
_cell_length_a       7.64806
_cell_length_b       9.66359
_cell_length_c       10.8651
_cell_angle_alpha    84.1189
_cell_angle_beta     72.0534
_cell_angle_gamma    67.6114

_space_group_name_H-M_alt    "P 1"
_space_group_IT_number       1

loop_
  _space_group_symop_operation_xyz
  'x, y, z'

loop_
  _atom_site_type_symbol
  _atom_site_label
  _atom_site_symmetry_multiplicity
  _atom_site_fract_x
  _atom_site_fract_y
  _atom_site_fract_z
  _atom_site_occupancy
  Mn  Mn1       1.0  0.91965  0.14783  0.80283  1.0000
  Mn  Mn2       1.0  0.08035  0.85217  0.19717  1.0000
  H   H1        1.0  0.29615  0.50027  0.83471  1.0000
  H   H2        1.0  0.70386  0.49973  0.16528  1.0000
  H   H3        1.0  0.28693  0.53444  0.99373  1.0000
  H   H4        1.0  0.71308  0.46555  0.00626  1.0000
  H   H5        1.0  0.09124  0.36178  0.07436  1.0000
  H   H6        1.0  0.90878  0.63821  0.92564  1.0000
  H   H7        1.0  0.21660  0.82084  0.87675  1.0000
  H   H8        1.0  0.78339  0.17916  0.12325  1.0000
  H   H9        1.0  0.53234  0.61904  0.76028  1.0000
  H   H10       1.0  0.46765  0.38096  0.23972  1.0000
  H   H11       1.0  0.66722  0.63511  0.51875  1.0000
  H   H12       1.0  0.33278  0.36489  0.48125  1.0000
  H   H13       1.0  0.63161  0.77261  0.31617  1.0000
  H   H14       1.0  0.36839  0.22740  0.68383  1.0000
  H   H15       1.0  0.44552  0.99457  0.20670  1.0000
  H   H16       1.0  0.55448  0.00543  0.79331  1.0000
  H   H17       1.0  0.75265  0.38808  0.60280  1.0000
  H   H18       1.0  0.24734  0.61192  0.39720  1.0000
  H   H19       1.0  0.86879  0.43598  0.36214  1.0000
  H   H20       1.0  0.13120  0.56403  0.63786  1.0000
  H   H21       1.0  0.16888  0.24000  0.22344  1.0000
  H   H22       1.0  0.83111  0.76001  0.77656  1.0000
  H   H23       1.0  0.65609  0.06851  0.96979  1.0000
  H   H24       1.0  0.34391  0.93149  0.03021  1.0000
  H   H25       1.0  0.85294  0.91736  0.97720  1.0000
  H   H26       1.0  0.14706  0.08264  0.02280  1.0000
  C   C1        1.0  0.46923  0.31336  0.92652  1.0000
  C   C2        1.0  0.53077  0.68664  0.07348  1.0000
  C   C3        1.0  0.28473  0.45212  0.93158  1.0000
  C   C4        1.0  0.71528  0.54788  0.06842  1.0000
  C   C5        1.0  0.09043  0.42533  0.98495  1.0000
  C   C6        1.0  0.90958  0.57467  0.01504  1.0000
  C   C7        1.0  0.06409  0.33624  0.88855  1.0000
  C   C8        1.0  0.93592  0.66376  0.11144  1.0000
  C   C9        1.0  0.27927  0.82483  0.77229  1.0000
  C   C10       1.0  0.72072  0.17517  0.22771  1.0000
  C   C11       1.0  0.45524  0.71075  0.70614  1.0000
  C   C12       1.0  0.54476  0.28925  0.29387  1.0000
  C   C13       1.0  0.52871  0.71898  0.57345  1.0000
  C   C14       1.0  0.47129  0.28102  0.42655  1.0000
  C   C15       1.0  0.42642  0.84086  0.50708  1.0000
  C   C16       1.0  0.57358  0.15915  0.49293  1.0000
  C   C17       1.0  0.25146  0.95132  0.58220  1.0000
  C   C18       1.0  0.74854  0.04868  0.41780  1.0000
  C   C19       1.0  0.49464  0.85827  0.37041  1.0000
  C   C20       1.0  0.50536  0.14174  0.62959  1.0000
  C   C21       1.0  0.39344  0.98015  0.31068  1.0000
  C   C22       1.0  0.60656  0.01985  0.68932  1.0000
  C   C23       1.0  0.21720  0.09423  0.38365  1.0000
  C   C24       1.0  0.78279  0.90577  0.61635  1.0000
  C   C25       1.0  0.14559  0.08013  0.51944  1.0000
  C   C26       1.0  0.85441  0.91987  0.48056  1.0000
  C   C27       1.0  0.88430  0.30785  0.53802  1.0000
  C   C28       1.0  0.11570  0.69215  0.46199  1.0000
  C   C29       1.0  0.94683  0.33267  0.40459  1.0000
  C   C30       1.0  0.05316  0.66733  0.59541  1.0000
  C   C31       1.0  0.11324  0.22555  0.32722  1.0000
  C   C32       1.0  0.88675  0.77445  0.67278  1.0000
  N   N1        1.0  0.18046  0.94222  0.71241  1.0000
  N   N2        1.0  0.81953  0.05777  0.28759  1.0000
  N   N3        1.0  0.98124  0.18601  0.59455  1.0000
  N   N4        1.0  0.01875  0.81399  0.40546  1.0000
  O   O1        1.0  0.45313  0.20813  0.00319  1.0000
  O   O2        1.0  0.54687  0.79187  0.99681  1.0000
  O   O3        1.0  0.63145  0.31507  0.84502  1.0000
  O   O4        1.0  0.36856  0.68493  0.15498  1.0000
  O   O5        1.0  0.02833  0.21520  0.93038  1.0000
  O   O6        1.0  0.97169  0.78479  0.06961  1.0000
  O   O7        1.0  0.06926  0.38179  0.77603  1.0000
  O   O8        1.0  0.93075  0.61821  0.22397  1.0000
  O   O9        1.0  0.79745  0.00277  0.92346  1.0000
  O   O10       1.0  0.20256  0.99723  0.07653  1.0000
