data_image0
_chemical_formula_structural       U4H16C24N8O28
_chemical_formula_sum              "U4 H16 C24 N8 O28"
_cell_length_a       9.0922
_cell_length_b       9.85182
_cell_length_c       10.3053
_cell_angle_alpha    90
_cell_angle_beta     90
_cell_angle_gamma    90.0001

_space_group_name_H-M_alt    "P 1"
_space_group_IT_number       1

loop_
  _space_group_symop_operation_xyz
  'x, y, z'

loop_
  _atom_site_type_symbol
  _atom_site_label
  _atom_site_symmetry_multiplicity
  _atom_site_fract_x
  _atom_site_fract_y
  _atom_site_fract_z
  _atom_site_occupancy
  U   U1        1.0  0.40475  0.91572  0.96013  1.0000
  U   U2        1.0  0.09525  0.08427  0.46013  1.0000
  U   U3        1.0  0.59525  0.41573  0.53987  1.0000
  U   U4        1.0  0.90475  0.58427  0.03987  1.0000
  H   H1        1.0  0.25281  0.17877  0.95438  1.0000
  H   H2        1.0  0.24720  0.82123  0.45438  1.0000
  H   H3        1.0  0.74719  0.67878  0.54562  1.0000
  H   H4        1.0  0.75280  0.32123  0.04562  1.0000
  H   H5        1.0  0.35893  0.21119  0.07262  1.0000
  H   H6        1.0  0.14107  0.78881  0.57262  1.0000
  H   H7        1.0  0.64107  0.71118  0.42738  1.0000
  H   H8        1.0  0.85893  0.28882  0.92738  1.0000
  H   H9        1.0  0.46737  0.35369  0.89675  1.0000
  H   H10       1.0  0.03263  0.64630  0.39675  1.0000
  H   H11       1.0  0.53263  0.85370  0.60325  1.0000
  H   H12       1.0  0.96737  0.14630  0.10325  1.0000
  H   H13       1.0  0.34166  0.45603  0.27425  1.0000
  H   H14       1.0  0.15834  0.54396  0.77425  1.0000
  H   H15       1.0  0.65834  0.95604  0.22575  1.0000
  H   H16       1.0  0.84166  0.04396  0.72575  1.0000
  C   C1        1.0  0.37396  0.62556  0.14304  1.0000
  C   C2        1.0  0.12604  0.37444  0.64304  1.0000
  C   C3        1.0  0.62604  0.12557  0.35696  1.0000
  C   C4        1.0  0.87396  0.87444  0.85696  1.0000
  C   C5        1.0  0.44595  0.56877  0.93615  1.0000
  C   C6        1.0  0.05405  0.43123  0.43615  1.0000
  C   C7        1.0  0.55405  0.06877  0.56385  1.0000
  C   C8        1.0  0.94595  0.93123  0.06385  1.0000
  C   C9        1.0  0.44025  0.43131  0.96843  1.0000
  C   C10       1.0  0.05976  0.56869  0.46843  1.0000
  C   C11       1.0  0.55975  0.93131  0.53157  1.0000
  C   C12       1.0  0.94025  0.06869  0.03157  1.0000
  C   C13       1.0  0.36946  0.48754  0.17581  1.0000
  C   C14       1.0  0.13054  0.51245  0.67581  1.0000
  C   C15       1.0  0.63054  0.98755  0.32419  1.0000
  C   C16       1.0  0.86946  0.01245  0.82419  1.0000
  C   C17       1.0  0.33875  0.74225  0.23197  1.0000
  C   C18       1.0  0.16125  0.25775  0.73198  1.0000
  C   C19       1.0  0.66125  0.24225  0.26803  1.0000
  C   C20       1.0  0.83875  0.75775  0.76803  1.0000
  C   C21       1.0  0.48996  0.62490  0.80718  1.0000
  C   C22       1.0  0.01004  0.37510  0.30718  1.0000
  C   C23       1.0  0.51004  0.12490  0.69282  1.0000
  C   C24       1.0  0.98996  0.87510  0.19282  1.0000
  N   N1        1.0  0.41041  0.66377  0.02313  1.0000
  N   N2        1.0  0.08959  0.33622  0.52313  1.0000
  N   N3        1.0  0.58959  0.16378  0.47687  1.0000
  N   N4        1.0  0.91041  0.83622  0.97687  1.0000
  N   N5        1.0  0.40049  0.39143  0.08796  1.0000
  N   N6        1.0  0.09951  0.60857  0.58796  1.0000
  N   N7        1.0  0.59951  0.89143  0.41204  1.0000
  N   N8        1.0  0.90049  0.10857  0.91204  1.0000
  O   O1        1.0  0.33666  0.85841  0.17411  1.0000
  O   O2        1.0  0.16335  0.14158  0.67410  1.0000
  O   O3        1.0  0.66335  0.35842  0.32589  1.0000
  O   O4        1.0  0.83665  0.64158  0.82589  1.0000
  O   O5        1.0  0.31628  0.72049  0.34960  1.0000
  O   O6        1.0  0.18373  0.27950  0.84960  1.0000
  O   O7        1.0  0.68373  0.22050  0.15040  1.0000
  O   O8        1.0  0.81627  0.77950  0.65040  1.0000
  O   O9        1.0  0.48897  0.75339  0.79746  1.0000
  O   O10       1.0  0.01103  0.24661  0.29746  1.0000
  O   O11       1.0  0.51103  0.25339  0.70255  1.0000
  O   O12       1.0  0.98897  0.74661  0.20254  1.0000
  O   O13       1.0  0.52432  0.54414  0.71690  1.0000
  O   O14       1.0  0.97568  0.45586  0.21690  1.0000
  O   O15       1.0  0.47568  0.04414  0.78310  1.0000
  O   O16       1.0  0.02432  0.95586  0.28310  1.0000
  O   O17       1.0  0.22146  0.88877  0.89824  1.0000
  O   O18       1.0  0.27855  0.11123  0.39823  1.0000
  O   O19       1.0  0.77855  0.38878  0.60177  1.0000
  O   O20       1.0  0.72145  0.61123  0.10177  1.0000
  O   O21       1.0  0.59056  0.93372  0.02018  1.0000
  O   O22       1.0  0.90945  0.06628  0.52018  1.0000
  O   O23       1.0  0.40945  0.43372  0.47982  1.0000
  O   O24       1.0  0.09055  0.56628  0.97981  1.0000
  O   O25       1.0  0.31289  0.13296  0.02538  1.0000
  O   O26       1.0  0.18711  0.86704  0.52538  1.0000
  O   O27       1.0  0.68711  0.63296  0.47462  1.0000
  O   O28       1.0  0.81289  0.36704  0.97462  1.0000
