data_image0
_chemical_formula_structural       Na2UH8C8N2O14
_chemical_formula_sum              "Na2 U1 H8 C8 N2 O14"
_cell_length_a       5.52824
_cell_length_b       6.59035
_cell_length_c       10.364
_cell_angle_alpha    78.1392
_cell_angle_beta     87.2389
_cell_angle_gamma    81.8195

_space_group_name_H-M_alt    "P 1"
_space_group_IT_number       1

loop_
  _space_group_symop_operation_xyz
  'x, y, z'

loop_
  _atom_site_type_symbol
  _atom_site_label
  _atom_site_symmetry_multiplicity
  _atom_site_fract_x
  _atom_site_fract_y
  _atom_site_fract_z
  _atom_site_occupancy
  Na  Na1       1.0  0.78409  0.33166  0.01366  1.0000
  Na  Na2       1.0  0.21590  0.66834  0.98634  1.0000
  U   U1        1.0  0.99999  0.50000  0.50000  1.0000
  H   H1        1.0  0.30800  0.28760  0.87770  1.0000
  H   H2        1.0  0.69198  0.71239  0.12230  1.0000
  H   H3        1.0  0.07943  0.43393  0.80866  1.0000
  H   H4        1.0  0.92053  0.56607  0.19135  1.0000
  H   H5        1.0  0.71019  0.17982  0.78878  1.0000
  H   H6        1.0  0.28982  0.82018  0.21122  1.0000
  H   H7        1.0  0.60246  0.99256  0.87787  1.0000
  H   H8        1.0  0.39753  0.00745  0.12213  1.0000
  C   C1        1.0  0.66875  0.99591  0.39980  1.0000
  C   C2        1.0  0.33127  0.00407  0.60019  1.0000
  C   C3        1.0  0.88841  0.98362  0.30667  1.0000
  C   C4        1.0  0.11161  0.01639  0.69334  1.0000
  C   C5        1.0  0.45678  0.14430  0.38524  1.0000
  C   C6        1.0  0.54325  0.85573  0.61475  1.0000
  C   C7        1.0  0.36852  0.30915  0.26552  1.0000
  C   C8        1.0  0.63149  0.69081  0.73449  1.0000
  N   N1        1.0  0.70177  0.85509  0.51290  1.0000
  N   N2        1.0  0.29825  0.14491  0.48711  1.0000
  O   O1        1.0  0.73876  0.45882  0.41460  1.0000
  O   O2        1.0  0.26122  0.54122  0.58541  1.0000
  O   O3        1.0  0.04699  0.81931  0.34462  1.0000
  O   O4        1.0  0.95300  0.18068  0.65537  1.0000
  O   O5        1.0  0.91620  0.12414  0.21030  1.0000
  O   O6        1.0  0.08381  0.87584  0.78968  1.0000
  O   O7        1.0  0.21592  0.45820  0.29693  1.0000
  O   O8        1.0  0.78405  0.54179  0.70307  1.0000
  O   O9        1.0  0.42929  0.29299  0.15031  1.0000
  O   O10       1.0  0.57073  0.70700  0.84968  1.0000
  O   O11       1.0  0.15192  0.37357  0.89480  1.0000
  O   O12       1.0  0.84806  0.62642  0.10521  1.0000
  O   O13       1.0  0.60206  0.14453  0.86687  1.0000
  O   O14       1.0  0.39794  0.85549  0.13312  1.0000
