data_image0
_chemical_formula_structural       U4H4C16N4O26
_chemical_formula_sum              "U4 H4 C16 N4 O26"
_cell_length_a       5.72143
_cell_length_b       6.67372
_cell_length_c       19.7065
_cell_angle_alpha    89.996
_cell_angle_beta     90.0014
_cell_angle_gamma    99.338

_space_group_name_H-M_alt    "P 1"
_space_group_IT_number       1

loop_
  _space_group_symop_operation_xyz
  'x, y, z'

loop_
  _atom_site_type_symbol
  _atom_site_label
  _atom_site_symmetry_multiplicity
  _atom_site_fract_x
  _atom_site_fract_y
  _atom_site_fract_z
  _atom_site_occupancy
  U   U1        1.0  0.49999  0.99999  0.50000  1.0000
  U   U2        1.0  0.50001  0.00001  0.00000  1.0000
  U   U3        1.0  0.28527  0.38429  0.25000  1.0000
  U   U4        1.0  0.71472  0.61572  0.75000  1.0000
  H   H1        1.0  0.77563  0.64689  0.28934  1.0000
  H   H2        1.0  0.22435  0.35308  0.78935  1.0000
  H   H3        1.0  0.22442  0.35308  0.71065  1.0000
  H   H4        1.0  0.77559  0.64692  0.21064  1.0000
  C   C1        1.0  0.17471  0.52583  0.45225  1.0000
  C   C2        1.0  0.82529  0.47419  0.95225  1.0000
  C   C3        1.0  0.82529  0.47414  0.54775  1.0000
  C   C4        1.0  0.17473  0.52583  0.04775  1.0000
  C   C5        1.0  0.40009  0.56533  0.41017  1.0000
  C   C6        1.0  0.59990  0.43471  0.91017  1.0000
  C   C7        1.0  0.59991  0.43465  0.58983  1.0000
  C   C8        1.0  0.40012  0.56531  0.08983  1.0000
  C   C9        1.0  0.97333  0.37477  0.44429  1.0000
  C   C10       1.0  0.02667  0.62525  0.94429  1.0000
  C   C11       1.0  0.02667  0.62521  0.55571  1.0000
  C   C12       1.0  0.97334  0.37477  0.05571  1.0000
  C   C13       1.0  0.90082  0.22753  0.38610  1.0000
  C   C14       1.0  0.09917  0.77251  0.88610  1.0000
  C   C15       1.0  0.09917  0.77245  0.61389  1.0000
  C   C16       1.0  0.90082  0.22752  0.11390  1.0000
  N   N1        1.0  0.19137  0.64645  0.50689  1.0000
  N   N2        1.0  0.80863  0.35355  0.00690  1.0000
  N   N3        1.0  0.80864  0.35353  0.49310  1.0000
  N   N4        1.0  0.19138  0.64646  0.99310  1.0000
  O   O1        1.0  0.55475  0.70908  0.43136  1.0000
  O   O2        1.0  0.44525  0.29095  0.93137  1.0000
  O   O3        1.0  0.44525  0.29089  0.56863  1.0000
  O   O4        1.0  0.55476  0.70907  0.06864  1.0000
  O   O5        1.0  0.43307  0.45166  0.36115  1.0000
  O   O6        1.0  0.56693  0.54838  0.86115  1.0000
  O   O7        1.0  0.56694  0.54829  0.63885  1.0000
  O   O8        1.0  0.43307  0.45163  0.13885  1.0000
  O   O9        1.0  0.73467  0.08504  0.40054  1.0000
  O   O10       1.0  0.26534  0.91498  0.90054  1.0000
  O   O11       1.0  0.26532  0.91494  0.59945  1.0000
  O   O12       1.0  0.73468  0.08503  0.09946  1.0000
  O   O13       1.0  0.99158  0.25694  0.32807  1.0000
  O   O14       1.0  0.00839  0.74315  0.82807  1.0000
  O   O15       1.0  0.00841  0.74304  0.67192  1.0000
  O   O16       1.0  0.99159  0.25690  0.17193  1.0000
  O   O17       1.0  0.25280  0.05820  0.45108  1.0000
  O   O18       1.0  0.74724  0.94186  0.95109  1.0000
  O   O19       1.0  0.74720  0.94179  0.54892  1.0000
  O   O20       1.0  0.25279  0.05817  0.04891  1.0000
  O   O21       1.0  0.41354  0.15667  0.25001  1.0000
  O   O22       1.0  0.58643  0.84334  0.74998  1.0000
  O   O23       1.0  0.15812  0.61560  0.24999  1.0000
  O   O24       1.0  0.84187  0.38440  0.75003  1.0000
  O   O25       1.0  0.67211  0.62315  0.25000  1.0000
  O   O26       1.0  0.32787  0.37688  0.75000  1.0000
