data_image0
_chemical_formula_structural       Ag4H16C20S4N8O12F12
_chemical_formula_sum              "Ag4 H16 C20 S4 N8 O12 F12"
_cell_length_a       5.33106
_cell_length_b       9.75148
_cell_length_c       18.7591
_cell_angle_alpha    92.566
_cell_angle_beta     90.0292
_cell_angle_gamma    105.834

_space_group_name_H-M_alt    "P 1"
_space_group_IT_number       1

loop_
  _space_group_symop_operation_xyz
  'x, y, z'

loop_
  _atom_site_type_symbol
  _atom_site_label
  _atom_site_symmetry_multiplicity
  _atom_site_fract_x
  _atom_site_fract_y
  _atom_site_fract_z
  _atom_site_occupancy
  Ag  Ag1       1.0  0.66663  0.55841  0.78678  1.0000
  Ag  Ag2       1.0  0.10843  0.44177  0.71322  1.0000
  Ag  Ag3       1.0  0.33336  0.44158  0.21322  1.0000
  Ag  Ag4       1.0  0.89157  0.55823  0.28678  1.0000
  H   H1        1.0  0.54332  0.77168  0.68409  1.0000
  H   H2        1.0  0.77257  0.22879  0.81576  1.0000
  H   H3        1.0  0.45669  0.22832  0.31591  1.0000
  H   H4        1.0  0.22743  0.77121  0.18425  1.0000
  H   H5        1.0  0.62319  0.83147  0.55376  1.0000
  H   H6        1.0  0.79254  0.16876  0.94605  1.0000
  H   H7        1.0  0.37683  0.16853  0.44624  1.0000
  H   H8        1.0  0.20745  0.83125  0.05395  1.0000
  H   H9        1.0  0.95015  0.72643  0.48792  1.0000
  H   H10       1.0  0.22454  0.27323  0.01200  1.0000
  H   H11       1.0  0.04986  0.27357  0.51208  1.0000
  H   H12       1.0  0.77546  0.72677  0.98801  1.0000
  H   H13       1.0  0.16646  0.57394  0.55735  1.0000
  H   H14       1.0  0.59331  0.42577  0.94275  1.0000
  H   H15       1.0  0.83355  0.42606  0.44265  1.0000
  H   H16       1.0  0.40669  0.57424  0.05725  1.0000
  C   C1        1.0  0.67854  0.73171  0.65104  1.0000
  C   C2        1.0  0.94777  0.26850  0.84884  1.0000
  C   C3        1.0  0.32147  0.26829  0.34896  1.0000
  C   C4        1.0  0.05223  0.73151  0.15116  1.0000
  C   C5        1.0  0.72429  0.76375  0.57961  1.0000
  C   C6        1.0  0.96143  0.23635  0.92026  1.0000
  C   C7        1.0  0.27572  0.23625  0.42038  1.0000
  C   C8        1.0  0.03856  0.76365  0.07974  1.0000
  C   C9        1.0  0.90162  0.70666  0.54346  1.0000
  C   C10       1.0  0.19581  0.29315  0.95647  1.0000
  C   C11       1.0  0.09839  0.29334  0.45654  1.0000
  C   C12       1.0  0.80419  0.70685  0.04353  1.0000
  C   C13       1.0  0.02268  0.62190  0.58145  1.0000
  C   C14       1.0  0.40164  0.37787  0.91856  1.0000
  C   C15       1.0  0.97733  0.37809  0.41855  1.0000
  C   C16       1.0  0.59835  0.62214  0.08144  1.0000
  C   C17       1.0  0.18080  0.91761  0.87020  1.0000
  C   C18       1.0  0.26401  0.08238  0.62998  1.0000
  C   C19       1.0  0.81919  0.08238  0.12980  1.0000
  C   C20       1.0  0.73599  0.91762  0.37002  1.0000
  S   S1        1.0  0.24858  0.73959  0.86964  1.0000
  S   S2        1.0  0.50912  0.26054  0.63026  1.0000
  S   S3        1.0  0.75142  0.26041  0.13035  1.0000
  S   S4        1.0  0.49088  0.73946  0.36974  1.0000
  N   N1        1.0  0.79714  0.64775  0.68437  1.0000
  N   N2        1.0  0.15041  0.35228  0.81556  1.0000
  N   N3        1.0  0.20286  0.35225  0.31563  1.0000
  N   N4        1.0  0.84959  0.64772  0.18444  1.0000
  N   N5        1.0  0.97096  0.59341  0.64977  1.0000
  N   N6        1.0  0.37852  0.40645  0.85023  1.0000
  N   N7        1.0  0.02905  0.40658  0.35023  1.0000
  N   N8        1.0  0.62147  0.59355  0.14977  1.0000
  O   O1        1.0  0.99317  0.64062  0.88391  1.0000
  O   O2        1.0  0.35176  0.35914  0.61597  1.0000
  O   O3        1.0  0.00683  0.35938  0.11609  1.0000
  O   O4        1.0  0.64824  0.64086  0.38403  1.0000
  O   O5        1.0  0.34322  0.72506  0.79726  1.0000
  O   O6        1.0  0.61915  0.27551  0.70258  1.0000
  O   O7        1.0  0.65678  0.27494  0.20274  1.0000
  O   O8        1.0  0.38086  0.72450  0.29742  1.0000
  O   O9        1.0  0.43818  0.75490  0.92715  1.0000
  O   O10       1.0  0.68286  0.24506  0.57267  1.0000
  O   O11       1.0  0.56181  0.24510  0.07285  1.0000
  O   O12       1.0  0.31714  0.75494  0.42733  1.0000
  F   F1        1.0  0.99538  0.92063  0.82139  1.0000
  F   F2        1.0  0.07582  0.07953  0.67878  1.0000
  F   F3        1.0  0.00461  0.07937  0.17861  1.0000
  F   F4        1.0  0.92418  0.92047  0.32122  1.0000
  F   F5        1.0  0.40097  0.02152  0.85530  1.0000
  F   F6        1.0  0.38094  0.97877  0.64504  1.0000
  F   F7        1.0  0.59903  0.97848  0.14470  1.0000
  F   F8        1.0  0.61906  0.02123  0.35496  1.0000
  F   F9        1.0  0.09854  0.95129  0.93565  1.0000
  F   F10       1.0  0.14783  0.04831  0.56455  1.0000
  F   F11       1.0  0.90147  0.04872  0.06435  1.0000
  F   F12       1.0  0.85218  0.95169  0.43545  1.0000
