data_image0
_chemical_formula_structural       Rb2UH4C16N4O18
_chemical_formula_sum              "Rb2 U1 H4 C16 N4 O18"
_cell_length_a       7.98024
_cell_length_b       8.74812
_cell_length_c       10.6332
_cell_angle_alpha    111.497
_cell_angle_beta     108.696
_cell_angle_gamma    82.8847

_space_group_name_H-M_alt    "P 1"
_space_group_IT_number       1

loop_
  _space_group_symop_operation_xyz
  'x, y, z'

loop_
  _atom_site_type_symbol
  _atom_site_label
  _atom_site_symmetry_multiplicity
  _atom_site_fract_x
  _atom_site_fract_y
  _atom_site_fract_z
  _atom_site_occupancy
  Rb  Rb1       1.0  0.50363  0.73246  0.97314  1.0000
  Rb  Rb2       1.0  0.49636  0.26755  0.02686  1.0000
  U   U1        1.0  0.50000  0.49999  0.50000  1.0000
  H   H1        1.0  0.89743  0.91045  0.99565  1.0000
  H   H2        1.0  0.10258  0.08957  0.00435  1.0000
  H   H3        1.0  0.06649  0.38961  0.68200  1.0000
  H   H4        1.0  0.93351  0.61039  0.31800  1.0000
  C   C1        1.0  0.31409  0.90478  0.55646  1.0000
  C   C2        1.0  0.68591  0.09522  0.44353  1.0000
  C   C3        1.0  0.27796  0.77183  0.31689  1.0000
  C   C4        1.0  0.72204  0.22816  0.68310  1.0000
  C   C5        1.0  0.19000  0.91062  0.29081  1.0000
  C   C6        1.0  0.81002  0.08939  0.70920  1.0000
  C   C7        1.0  0.23352  0.04625  0.52838  1.0000
  C   C8        1.0  0.76649  0.95375  0.47163  1.0000
  C   C9        1.0  0.36424  0.87491  0.69537  1.0000
  C   C10       1.0  0.63574  0.12508  0.30463  1.0000
  C   C11       1.0  0.30625  0.61378  0.20523  1.0000
  C   C12       1.0  0.69375  0.38622  0.79477  1.0000
  C   C13       1.0  0.11454  0.92599  0.14691  1.0000
  C   C14       1.0  0.88548  0.07403  0.85309  1.0000
  C   C15       1.0  0.22344  0.21039  0.64052  1.0000
  C   C16       1.0  0.77655  0.78960  0.35948  1.0000
  N   N1        1.0  0.33588  0.77154  0.44933  1.0000
  N   N2        1.0  0.66413  0.22846  0.55067  1.0000
  N   N3        1.0  0.16807  0.04615  0.39557  1.0000
  N   N4        1.0  0.83194  0.95384  0.60444  1.0000
  O   O1        1.0  0.42754  0.73009  0.68570  1.0000
  O   O2        1.0  0.57245  0.26990  0.31429  1.0000
  O   O3        1.0  0.33727  0.98084  0.80313  1.0000
  O   O4        1.0  0.66274  0.01916  0.19687  1.0000
  O   O5        1.0  0.36448  0.49654  0.25341  1.0000
  O   O6        1.0  0.63551  0.50346  0.74659  1.0000
  O   O7        1.0  0.27216  0.60749  0.08014  1.0000
  O   O8        1.0  0.72783  0.39251  0.91985  1.0000
  O   O9        1.0  0.19738  0.00735  0.11204  1.0000
  O   O10       1.0  0.80263  0.99266  0.88797  1.0000
  O   O11       1.0  0.95693  0.86388  0.07654  1.0000
  O   O12       1.0  0.04308  0.13613  0.92346  1.0000
  O   O13       1.0  0.35158  0.27846  0.73753  1.0000
  O   O14       1.0  0.64841  0.72153  0.26248  1.0000
  O   O15       1.0  0.06027  0.27608  0.61553  1.0000
  O   O16       1.0  0.93971  0.72391  0.38447  1.0000
  O   O17       1.0  0.29867  0.40745  0.48023  1.0000
  O   O18       1.0  0.70132  0.59254  0.51976  1.0000
