data_image0
_chemical_formula_structural       Zn2H28C40N8O8
_chemical_formula_sum              "Zn2 H28 C40 N8 O8"
_cell_length_a       8.1487
_cell_length_b       10.1817
_cell_length_c       14.8201
_cell_angle_alpha    72.8844
_cell_angle_beta     80.2927
_cell_angle_gamma    79.3768

_space_group_name_H-M_alt    "P 1"
_space_group_IT_number       1

loop_
  _space_group_symop_operation_xyz
  'x, y, z'

loop_
  _atom_site_type_symbol
  _atom_site_label
  _atom_site_symmetry_multiplicity
  _atom_site_fract_x
  _atom_site_fract_y
  _atom_site_fract_z
  _atom_site_occupancy
  Zn  Zn1       1.0  0.63048  0.11056  0.05045  1.0000
  Zn  Zn2       1.0  0.36952  0.88944  0.94955  1.0000
  H   H1        1.0  0.34020  0.26767  0.14786  1.0000
  H   H2        1.0  0.65979  0.73233  0.85213  1.0000
  H   H3        1.0  0.17619  0.25403  0.31048  1.0000
  H   H4        1.0  0.82380  0.74597  0.68952  1.0000
  H   H5        1.0  0.50797  0.87501  0.41654  1.0000
  H   H6        1.0  0.49203  0.12499  0.58346  1.0000
  H   H7        1.0  0.65572  0.90585  0.24976  1.0000
  H   H8        1.0  0.34429  0.09416  0.75024  1.0000
  H   H9        1.0  0.28235  0.95160  0.52815  1.0000
  H   H10       1.0  0.71765  0.04841  0.47185  1.0000
  H   H11       1.0  0.62665  0.58054  0.02840  1.0000
  H   H12       1.0  0.37335  0.41946  0.97160  1.0000
  H   H13       1.0  0.03245  0.29462  0.15744  1.0000
  H   H14       1.0  0.96754  0.70538  0.84256  1.0000
  H   H15       1.0  0.13672  0.48980  0.19338  1.0000
  H   H16       1.0  0.86328  0.51020  0.80663  1.0000
  H   H17       1.0  0.97681  0.72898  0.14914  1.0000
  H   H18       1.0  0.02318  0.27102  0.85086  1.0000
  H   H19       1.0  0.89629  0.28410  0.56247  1.0000
  H   H20       1.0  0.10372  0.71590  0.43753  1.0000
  H   H21       1.0  0.57865  0.32205  0.86133  1.0000
  H   H22       1.0  0.42136  0.67795  0.13866  1.0000
  H   H23       1.0  0.69227  0.35977  0.68900  1.0000
  H   H24       1.0  0.30774  0.64023  0.31100  1.0000
  H   H25       1.0  0.04351  0.98259  0.77274  1.0000
  H   H26       1.0  0.95649  0.01739  0.22726  1.0000
  H   H27       1.0  0.91743  0.96189  0.93791  1.0000
  H   H28       1.0  0.08257  0.03810  0.06209  1.0000
  C   C1        1.0  0.37174  0.18350  0.21026  1.0000
  C   C2        1.0  0.62826  0.81650  0.78974  1.0000
  C   C3        1.0  0.28247  0.17565  0.29973  1.0000
  C   C4        1.0  0.71752  0.82435  0.70027  1.0000
  C   C5        1.0  0.32981  0.06333  0.37675  1.0000
  C   C6        1.0  0.67018  0.93667  0.62324  1.0000
  C   C7        1.0  0.46606  0.96383  0.35905  1.0000
  C   C8        1.0  0.53394  0.03618  0.64095  1.0000
  C   C9        1.0  0.54917  0.98006  0.26719  1.0000
  C   C10       1.0  0.45083  0.01994  0.73281  1.0000
  C   C11       1.0  0.24561  0.04765  0.47337  1.0000
  C   C12       1.0  0.75439  0.95235  0.52663  1.0000
  C   C13       1.0  0.70442  0.81569  0.05428  1.0000
  C   C14       1.0  0.29558  0.18431  0.94572  1.0000
  C   C15       1.0  0.79317  0.67009  0.08613  1.0000
  C   C16       1.0  0.20682  0.32991  0.91387  1.0000
  C   C17       1.0  0.73707  0.56128  0.06565  1.0000
  C   C18       1.0  0.26292  0.43872  0.93436  1.0000
  C   C19       1.0  0.82238  0.42604  0.09317  1.0000
  C   C20       1.0  0.17762  0.57396  0.90684  1.0000
  C   C21       1.0  0.96650  0.40044  0.13907  1.0000
  C   C22       1.0  0.03350  0.59956  0.86093  1.0000
  C   C23       1.0  0.02279  0.50883  0.15927  1.0000
  C   C24       1.0  0.97721  0.49118  0.84073  1.0000
  C   C25       1.0  0.93530  0.64293  0.13407  1.0000
  C   C26       1.0  0.06470  0.35707  0.86593  1.0000
  C   C27       1.0  0.76013  0.30900  0.07349  1.0000
  C   C28       1.0  0.23987  0.69101  0.92650  1.0000
  C   C29       1.0  0.94983  0.19381  0.61650  1.0000
  C   C30       1.0  0.05018  0.80618  0.38350  1.0000
  C   C31       1.0  0.68008  0.24907  0.83757  1.0000
  C   C32       1.0  0.31993  0.75093  0.16243  1.0000
  C   C33       1.0  0.74442  0.26939  0.74216  1.0000
  C   C34       1.0  0.25559  0.73061  0.25784  1.0000
  C   C35       1.0  0.87741  0.17325  0.71573  1.0000
  C   C36       1.0  0.12260  0.82675  0.28427  1.0000
  C   C37       1.0  0.93971  0.06012  0.78783  1.0000
  C   C38       1.0  0.06029  0.93987  0.21217  1.0000
  C   C39       1.0  0.86829  0.04779  0.88125  1.0000
  C   C40       1.0  0.13171  0.95220  0.11875  1.0000
  N   N1        1.0  0.50244  0.08738  0.19410  1.0000
  N   N2        1.0  0.49756  0.91262  0.80589  1.0000
  N   N3        1.0  0.13277  0.14390  0.49624  1.0000
  N   N4        1.0  0.86723  0.85610  0.50376  1.0000
  N   N5        1.0  0.07578  0.10776  0.59260  1.0000
  N   N6        1.0  0.92422  0.89223  0.40740  1.0000
  N   N7        1.0  0.74003  0.13957  0.90593  1.0000
  N   N8        1.0  0.25997  0.86042  0.09407  1.0000
  O   O1        1.0  0.73163  0.90425  0.09410  1.0000
  O   O2        1.0  0.26837  0.09575  0.90590  1.0000
  O   O3        1.0  0.61272  0.84383  0.98817  1.0000
  O   O4        1.0  0.38728  0.15617  0.01183  1.0000
  O   O5        1.0  0.62271  0.33296  0.03698  1.0000
  O   O6        1.0  0.37729  0.66704  0.96302  1.0000
  O   O7        1.0  0.84297  0.18714  0.09549  1.0000
  O   O8        1.0  0.15703  0.81286  0.90451  1.0000
