data_image0
_chemical_formula_structural       Cu4H36C36Br4N20
_chemical_formula_sum              "Cu4 H36 C36 Br4 N20"
_cell_length_a       10.459
_cell_length_b       10.4557
_cell_length_c       12.0324
_cell_angle_alpha    106.936
_cell_angle_beta     106.477
_cell_angle_gamma    109.774

_space_group_name_H-M_alt    "P 1"
_space_group_IT_number       1

loop_
  _space_group_symop_operation_xyz
  'x, y, z'

loop_
  _atom_site_type_symbol
  _atom_site_label
  _atom_site_symmetry_multiplicity
  _atom_site_fract_x
  _atom_site_fract_y
  _atom_site_fract_z
  _atom_site_occupancy
  Cu  Cu1       1.0  0.38449  0.19128  0.58943  1.0000
  Cu  Cu2       1.0  0.60192  0.29508  0.91060  1.0000
  Cu  Cu3       1.0  0.61551  0.80872  0.41057  1.0000
  Cu  Cu4       1.0  0.39808  0.70492  0.08940  1.0000
  H   H1        1.0  0.35815  0.13052  0.35990  1.0000
  H   H2        1.0  0.77058  0.49828  0.14016  1.0000
  H   H3        1.0  0.64185  0.86948  0.64010  1.0000
  H   H4        1.0  0.22942  0.50172  0.85984  1.0000
  H   H5        1.0  0.28039  0.26177  0.40999  1.0000
  H   H6        1.0  0.85174  0.37042  0.09009  1.0000
  H   H7        1.0  0.71961  0.73823  0.59001  1.0000
  H   H8        1.0  0.14826  0.62959  0.90991  1.0000
  H   H9        1.0  0.53112  0.44746  0.59036  1.0000
  H   H10       1.0  0.85706  0.44077  0.90970  1.0000
  H   H11       1.0  0.46888  0.55254  0.40964  1.0000
  H   H12       1.0  0.14294  0.55923  0.09030  1.0000
  H   H13       1.0  0.72698  0.35160  0.63835  1.0000
  H   H14       1.0  0.71331  0.58873  0.86165  1.0000
  H   H15       1.0  0.27302  0.64840  0.36165  1.0000
  H   H16       1.0  0.28669  0.41127  0.13835  1.0000
  H   H17       1.0  0.61903  0.19735  0.48286  1.0000
  H   H18       1.0  0.71465  0.63637  0.01718  1.0000
  H   H19       1.0  0.38097  0.80265  0.51714  1.0000
  H   H20       1.0  0.28535  0.36363  0.98282  1.0000
  H   H21       1.0  0.00223  0.65151  0.30859  1.0000
  H   H22       1.0  0.34300  0.19337  0.19136  1.0000
  H   H23       1.0  0.99777  0.34849  0.69142  1.0000
  H   H24       1.0  0.65700  0.80663  0.80864  1.0000
  H   H25       1.0  0.17537  0.09424  0.70650  1.0000
  H   H26       1.0  0.38814  0.96882  0.79360  1.0000
  H   H27       1.0  0.82463  0.90577  0.29350  1.0000
  H   H28       1.0  0.61186  0.03117  0.20640  1.0000
  H   H29       1.0  0.19917  0.90393  0.36313  1.0000
  H   H30       1.0  0.54095  0.33588  0.13696  1.0000
  H   H31       1.0  0.80083  0.09607  0.63688  1.0000
  H   H32       1.0  0.45906  0.66412  0.86303  1.0000
  H   H33       1.0  0.97957  0.84934  0.66759  1.0000
  H   H34       1.0  0.18219  0.81177  0.83243  1.0000
  H   H35       1.0  0.02042  0.15067  0.33241  1.0000
  H   H36       1.0  0.81780  0.18823  0.16757  1.0000
  C   C1        1.0  0.37182  0.23196  0.43232  1.0000
  C   C2        1.0  0.79961  0.43954  0.06775  1.0000
  C   C3        1.0  0.62818  0.76804  0.56768  1.0000
  C   C4        1.0  0.20039  0.56046  0.93225  1.0000
  C   C5        1.0  0.51143  0.33478  0.53207  1.0000
  C   C6        1.0  0.80268  0.47938  0.96797  1.0000
  C   C7        1.0  0.48857  0.66522  0.46793  1.0000
  C   C8        1.0  0.19732  0.52062  0.03203  1.0000
  C   C9        1.0  0.64938  0.31504  0.53934  1.0000
  C   C10       1.0  0.77578  0.61015  0.96066  1.0000
  C   C11       1.0  0.35062  0.68496  0.46066  1.0000
  C   C12       1.0  0.22422  0.38985  0.03934  1.0000
  C   C13       1.0  0.03756  0.74677  0.39784  1.0000
  C   C14       1.0  0.34917  0.13948  0.10218  1.0000
  C   C15       1.0  0.96244  0.25323  0.60216  1.0000
  C   C16       1.0  0.65083  0.86052  0.89782  1.0000
  C   C17       1.0  0.97656  0.72814  0.48517  1.0000
  C   C18       1.0  0.24322  0.99113  0.01479  1.0000
  C   C19       1.0  0.02344  0.27186  0.51483  1.0000
  C   C20       1.0  0.75678  0.00887  0.98521  1.0000
  C   C21       1.0  0.13421  0.99302  0.61972  1.0000
  C   C22       1.0  0.37369  0.01434  0.88038  1.0000
  C   C23       1.0  0.86579  0.00699  0.38028  1.0000
  C   C24       1.0  0.62631  0.98566  0.11962  1.0000
  C   C25       1.0  0.14678  0.88744  0.42756  1.0000
  C   C26       1.0  0.46011  0.21903  0.07253  1.0000
  C   C27       1.0  0.85322  0.11256  0.57244  1.0000
  C   C28       1.0  0.53989  0.78097  0.92746  1.0000
  C   C29       1.0  0.02454  0.85599  0.59704  1.0000
  C   C30       1.0  0.25936  0.92729  0.90302  1.0000
  C   C31       1.0  0.97546  0.14402  0.40296  1.0000
  C   C32       1.0  0.74064  0.07270  0.09698  1.0000
  C   C33       1.0  0.87140  0.57924  0.46187  1.0000
  C   C34       1.0  0.11759  0.90939  0.03807  1.0000
  C   C35       1.0  0.12860  0.42076  0.53813  1.0000
  C   C36       1.0  0.88241  0.09061  0.96193  1.0000
  Br  Br1       1.0  0.40875  0.37062  0.79668  1.0000
  Br  Br2       1.0  0.57392  0.11208  0.70322  1.0000
  Br  Br3       1.0  0.59124  0.62937  0.20332  1.0000
  Br  Br4       1.0  0.42608  0.88792  0.29678  1.0000
  N   N1        1.0  0.81482  0.55102  0.54432  1.0000
  N   N2        1.0  0.00682  0.77040  0.95563  1.0000
  N   N3        1.0  0.18518  0.44898  0.45568  1.0000
  N   N4        1.0  0.99318  0.22960  0.04437  1.0000
  N   N5        1.0  0.82412  0.45000  0.35694  1.0000
  N   N6        1.0  0.09328  0.96719  0.14296  1.0000
  N   N7        1.0  0.17588  0.55000  0.64306  1.0000
  N   N8        1.0  0.90672  0.03281  0.85704  1.0000
  N   N9        1.0  0.73642  0.33901  0.37284  1.0000
  N   N10       1.0  0.96633  0.86376  0.12707  1.0000
  N   N11       1.0  0.26358  0.66099  0.62716  1.0000
  N   N12       1.0  0.03366  0.13624  0.87293  1.0000
  N   N13       1.0  0.73307  0.40259  0.48538  1.0000
  N   N14       1.0  0.91731  0.74776  0.01454  1.0000
  N   N15       1.0  0.26693  0.59742  0.51462  1.0000
  N   N16       1.0  0.08269  0.25224  0.98546  1.0000
  N   N17       1.0  0.19801  0.00900  0.53832  1.0000
  N   N18       1.0  0.47098  0.15959  0.96179  1.0000
  N   N19       1.0  0.80199  0.99100  0.46168  1.0000
  N   N20       1.0  0.52901  0.84040  0.03821  1.0000
