data_image0
_chemical_formula_structural       Cu2H18C18N10Cl2
_chemical_formula_sum              "Cu2 H18 C18 N10 Cl2"
_cell_length_a       7.22933
_cell_length_b       7.53636
_cell_length_c       9.93528
_cell_angle_alpha    81.1943
_cell_angle_beta     76.9349
_cell_angle_gamma    84.6291

_space_group_name_H-M_alt    "P 1"
_space_group_IT_number       1

loop_
  _space_group_symop_operation_xyz
  'x, y, z'

loop_
  _atom_site_type_symbol
  _atom_site_label
  _atom_site_symmetry_multiplicity
  _atom_site_fract_x
  _atom_site_fract_y
  _atom_site_fract_z
  _atom_site_occupancy
  Cu  Cu1       1.0  0.16312  0.83198  0.38558  1.0000
  Cu  Cu2       1.0  0.83688  0.16802  0.61442  1.0000
  H   H1        1.0  0.54169  0.98025  0.30705  1.0000
  H   H2        1.0  0.45831  0.01975  0.69295  1.0000
  H   H3        1.0  0.71222  0.19947  0.11475  1.0000
  H   H4        1.0  0.28778  0.80053  0.88525  1.0000
  H   H5        1.0  0.54310  0.35506  0.93323  1.0000
  H   H6        1.0  0.45690  0.64494  0.06677  1.0000
  H   H7        1.0  0.05728  0.04846  0.14143  1.0000
  H   H8        1.0  0.94272  0.95154  0.85857  1.0000
  H   H9        1.0  0.11988  0.76506  0.69481  1.0000
  H   H10       1.0  0.88012  0.23494  0.30519  1.0000
  H   H11       1.0  0.92400  0.66843  0.65918  1.0000
  H   H12       1.0  0.07600  0.33157  0.34082  1.0000
  H   H13       1.0  0.16027  0.49361  0.48346  1.0000
  H   H14       1.0  0.83973  0.50639  0.51654  1.0000
  H   H15       1.0  0.42835  0.77326  0.51999  1.0000
  H   H16       1.0  0.57165  0.22675  0.48001  1.0000
  H   H17       1.0  0.46909  0.62701  0.38083  1.0000
  H   H18       1.0  0.53091  0.37299  0.61917  1.0000
  C   C1        1.0  0.47130  0.04951  0.22596  1.0000
  C   C2        1.0  0.52870  0.95049  0.77404  1.0000
  C   C3        1.0  0.56558  0.17244  0.11966  1.0000
  C   C4        1.0  0.43442  0.82756  0.88034  1.0000
  C   C5        1.0  0.47192  0.25829  0.01762  1.0000
  C   C6        1.0  0.52808  0.74171  0.98239  1.0000
  C   C7        1.0  0.20092  0.08845  0.13302  1.0000
  C   C8        1.0  0.79908  0.91155  0.86698  1.0000
  C   C9        1.0  0.28429  0.21753  0.02491  1.0000
  C   C10       1.0  0.71571  0.78247  0.97509  1.0000
  C   C11       1.0  0.07516  0.64591  0.66234  1.0000
  C   C12       1.0  0.92484  0.35409  0.33767  1.0000
  C   C13       1.0  0.17333  0.31087  0.92680  1.0000
  C   C14       1.0  0.82667  0.68913  0.07321  1.0000
  C   C15       1.0  0.19501  0.61079  0.52320  1.0000
  C   C16       1.0  0.80499  0.38921  0.47680  1.0000
  C   C17       1.0  0.36937  0.68455  0.46523  1.0000
  C   C18       1.0  0.63063  0.31545  0.53477  1.0000
  N   N1        1.0  0.29165  0.00733  0.23219  1.0000
  N   N2        1.0  0.70835  0.99267  0.76781  1.0000
  N   N3        1.0  0.08375  0.49444  0.77281  1.0000
  N   N4        1.0  0.91625  0.50556  0.22719  1.0000
  N   N5        1.0  0.23732  0.44302  0.82423  1.0000
  N   N6        1.0  0.76268  0.55698  0.17577  1.0000
  N   N7        1.0  0.98685  0.28496  0.93489  1.0000
  N   N8        1.0  0.01315  0.71504  0.06511  1.0000
  N   N9        1.0  0.93173  0.40207  0.83659  1.0000
  N   N10       1.0  0.06827  0.59794  0.16341  1.0000
  Cl  Cl1       1.0  0.84947  0.88593  0.40300  1.0000
  Cl  Cl2       1.0  0.15053  0.11407  0.59700  1.0000
