data_image0
_chemical_formula_structural       K4H16C16N12O20
_chemical_formula_sum              "K4 H16 C16 N12 O20"
_cell_length_a       6.60002
_cell_length_b       6.65451
_cell_length_c       17.4198
_cell_angle_alpha    90.0002
_cell_angle_beta     90.0001
_cell_angle_gamma    96.4847

_space_group_name_H-M_alt    "P 1"
_space_group_IT_number       1

loop_
  _space_group_symop_operation_xyz
  'x, y, z'

loop_
  _atom_site_type_symbol
  _atom_site_label
  _atom_site_symmetry_multiplicity
  _atom_site_fract_x
  _atom_site_fract_y
  _atom_site_fract_z
  _atom_site_occupancy
  K   K1        1.0  0.68321  0.67958  0.43005  1.0000
  K   K2        1.0  0.31679  0.82041  0.93005  1.0000
  K   K3        1.0  0.31679  0.32043  0.56995  1.0000
  K   K4        1.0  0.68322  0.17957  0.06995  1.0000
  H   H1        1.0  0.36491  0.26983  0.38083  1.0000
  H   H2        1.0  0.63509  0.23018  0.88083  1.0000
  H   H3        1.0  0.63508  0.73017  0.61918  1.0000
  H   H4        1.0  0.36492  0.76983  0.11918  1.0000
  H   H5        1.0  0.24465  0.69578  0.43205  1.0000
  H   H6        1.0  0.75536  0.80422  0.93205  1.0000
  H   H7        1.0  0.75535  0.30422  0.56795  1.0000
  H   H8        1.0  0.24466  0.19579  0.06795  1.0000
  H   H9        1.0  0.22360  0.78447  0.51550  1.0000
  H   H10       1.0  0.77641  0.71552  0.01550  1.0000
  H   H11       1.0  0.77641  0.21553  0.48451  1.0000
  H   H12       1.0  0.22360  0.28448  0.98450  1.0000
  H   H13       1.0  0.78961  0.98755  0.26798  1.0000
  H   H14       1.0  0.21038  0.51245  0.76798  1.0000
  H   H15       1.0  0.21039  0.01246  0.73202  1.0000
  H   H16       1.0  0.78961  0.48753  0.23202  1.0000
  C   C1        1.0  0.09171  0.13560  0.29847  1.0000
  C   C2        1.0  0.90829  0.36441  0.79846  1.0000
  C   C3        1.0  0.90828  0.86440  0.70154  1.0000
  C   C4        1.0  0.09170  0.63559  0.20153  1.0000
  C   C5        1.0  0.24841  0.20735  0.24775  1.0000
  C   C6        1.0  0.75158  0.29265  0.74775  1.0000
  C   C7        1.0  0.75159  0.79265  0.75225  1.0000
  C   C8        1.0  0.24841  0.70736  0.25225  1.0000
  C   C9        1.0  0.07128  0.13332  0.38356  1.0000
  C   C10       1.0  0.92871  0.36669  0.88356  1.0000
  C   C11       1.0  0.92871  0.86668  0.61644  1.0000
  C   C12       1.0  0.07128  0.63332  0.11644  1.0000
  C   C13       1.0  0.45704  0.30669  0.26472  1.0000
  C   C14       1.0  0.54296  0.19331  0.76472  1.0000
  C   C15       1.0  0.54296  0.69330  0.73528  1.0000
  C   C16       1.0  0.45703  0.80670  0.23528  1.0000
  N   N1        1.0  0.93585  0.06302  0.25245  1.0000
  N   N2        1.0  0.06415  0.43699  0.75245  1.0000
  N   N3        1.0  0.06415  0.93699  0.74755  1.0000
  N   N4        1.0  0.93585  0.56301  0.24755  1.0000
  N   N5        1.0  0.98741  0.08592  0.17831  1.0000
  N   N6        1.0  0.01258  0.41407  0.67831  1.0000
  N   N7        1.0  0.01259  0.91408  0.82169  1.0000
  N   N8        1.0  0.98741  0.58592  0.32169  1.0000
  N   N9        1.0  0.17635  0.17399  0.17481  1.0000
  N   N10       1.0  0.82365  0.32601  0.67481  1.0000
  N   N11       1.0  0.82366  0.82601  0.82519  1.0000
  N   N12       1.0  0.17634  0.67399  0.32519  1.0000
  O   O1        1.0  0.57606  0.35674  0.20989  1.0000
  O   O2        1.0  0.42394  0.14325  0.70989  1.0000
  O   O3        1.0  0.42394  0.64325  0.79011  1.0000
  O   O4        1.0  0.57605  0.85675  0.29011  1.0000
  O   O5        1.0  0.50385  0.33927  0.33593  1.0000
  O   O6        1.0  0.49615  0.16073  0.83593  1.0000
  O   O7        1.0  0.49614  0.66072  0.66407  1.0000
  O   O8        1.0  0.50386  0.83928  0.16407  1.0000
  O   O9        1.0  0.23168  0.20843  0.42167  1.0000
  O   O10       1.0  0.76831  0.29158  0.92167  1.0000
  O   O11       1.0  0.76830  0.79157  0.57833  1.0000
  O   O12       1.0  0.23169  0.70843  0.07833  1.0000
  O   O13       1.0  0.90674  0.06339  0.41298  1.0000
  O   O14       1.0  0.09327  0.43662  0.91298  1.0000
  O   O15       1.0  0.09325  0.93662  0.58701  1.0000
  O   O16       1.0  0.90674  0.56337  0.08701  1.0000
  O   O17       1.0  0.29200  0.68614  0.48562  1.0000
  O   O18       1.0  0.70801  0.81386  0.98562  1.0000
  O   O19       1.0  0.70800  0.31386  0.51439  1.0000
  O   O20       1.0  0.29200  0.18614  0.01438  1.0000
