data_image0
_chemical_formula_structural       Ba4P4H28C8O32
_chemical_formula_sum              "Ba4 P4 H28 C8 O32"
_cell_length_a       6.32352
_cell_length_b       10.6864
_cell_length_c       11.7725
_cell_angle_alpha    89.9999
_cell_angle_beta     90.0001
_cell_angle_gamma    91.3909

_space_group_name_H-M_alt    "P 1"
_space_group_IT_number       1

loop_
  _space_group_symop_operation_xyz
  'x, y, z'

loop_
  _atom_site_type_symbol
  _atom_site_label
  _atom_site_symmetry_multiplicity
  _atom_site_fract_x
  _atom_site_fract_y
  _atom_site_fract_z
  _atom_site_occupancy
  Ba  Ba1       1.0  0.94187  0.80498  0.42416  1.0000
  Ba  Ba2       1.0  0.55813  0.69502  0.92416  1.0000
  Ba  Ba3       1.0  0.05813  0.19502  0.57584  1.0000
  Ba  Ba4       1.0  0.44187  0.30498  0.07584  1.0000
  P   P1        1.0  0.11651  0.47520  0.32065  1.0000
  P   P2        1.0  0.38348  0.02481  0.82065  1.0000
  P   P3        1.0  0.88348  0.52480  0.67935  1.0000
  P   P4        1.0  0.61652  0.97519  0.17934  1.0000
  H   H1        1.0  0.73993  0.48383  0.36711  1.0000
  H   H2        1.0  0.76006  0.01617  0.86711  1.0000
  H   H3        1.0  0.26006  0.51617  0.63290  1.0000
  H   H4        1.0  0.23994  0.98383  0.13288  1.0000
  H   H5        1.0  0.76363  0.28103  0.31080  1.0000
  H   H6        1.0  0.73637  0.21897  0.81080  1.0000
  H   H7        1.0  0.23637  0.71898  0.68921  1.0000
  H   H8        1.0  0.26363  0.78102  0.18920  1.0000
  H   H9        1.0  0.22500  0.27675  0.33750  1.0000
  H   H10       1.0  0.27501  0.22325  0.83751  1.0000
  H   H11       1.0  0.77501  0.72325  0.66249  1.0000
  H   H12       1.0  0.72500  0.77675  0.16250  1.0000
  H   H13       1.0  0.37670  0.80331  0.54284  1.0000
  H   H14       1.0  0.12329  0.69669  0.04284  1.0000
  H   H15       1.0  0.62330  0.19669  0.45716  1.0000
  H   H16       1.0  0.87670  0.30331  0.95716  1.0000
  H   H17       1.0  0.41239  0.66321  0.42137  1.0000
  H   H18       1.0  0.08761  0.83679  0.92137  1.0000
  H   H19       1.0  0.58761  0.33679  0.57863  1.0000
  H   H20       1.0  0.91239  0.16320  0.07863  1.0000
  H   H21       1.0  0.27225  0.90151  0.63341  1.0000
  H   H22       1.0  0.22775  0.59849  0.13341  1.0000
  H   H23       1.0  0.72775  0.09849  0.36659  1.0000
  H   H24       1.0  0.77226  0.40151  0.86659  1.0000
  H   H25       1.0  0.44769  0.78874  0.36064  1.0000
  H   H26       1.0  0.05231  0.71126  0.86063  1.0000
  H   H27       1.0  0.55231  0.21126  0.63937  1.0000
  H   H28       1.0  0.94769  0.28874  0.13937  1.0000
  C   C1        1.0  0.76945  0.56444  0.20029  1.0000
  C   C2        1.0  0.73055  0.93557  0.70028  1.0000
  C   C3        1.0  0.23054  0.43557  0.79971  1.0000
  C   C4        1.0  0.26948  0.06443  0.29970  1.0000
  C   C5        1.0  0.82708  0.46489  0.28785  1.0000
  C   C6        1.0  0.67291  0.03511  0.78785  1.0000
  C   C7        1.0  0.17291  0.53511  0.71215  1.0000
  C   C8        1.0  0.32709  0.96489  0.21214  1.0000
  O   O1        1.0  0.80945  0.67780  0.23085  1.0000
  O   O2        1.0  0.69055  0.82219  0.73085  1.0000
  O   O3        1.0  0.19053  0.32220  0.76915  1.0000
  O   O4        1.0  0.30947  0.17780  0.26914  1.0000
  O   O5        1.0  0.69111  0.53223  0.10602  1.0000
  O   O6        1.0  0.80887  0.96777  0.60603  1.0000
  O   O7        1.0  0.30888  0.46777  0.89397  1.0000
  O   O8        1.0  0.19114  0.03223  0.39397  1.0000
  O   O9        1.0  0.77282  0.34368  0.24471  1.0000
  O   O10       1.0  0.72718  0.15632  0.74471  1.0000
  O   O11       1.0  0.22718  0.65632  0.75530  1.0000
  O   O12       1.0  0.27282  0.84368  0.25529  1.0000
  O   O13       1.0  0.22901  0.47081  0.20593  1.0000
  O   O14       1.0  0.27099  0.02918  0.70593  1.0000
  O   O15       1.0  0.77099  0.52919  0.79408  1.0000
  O   O16       1.0  0.72901  0.97081  0.29407  1.0000
  O   O17       1.0  0.16358  0.34981  0.38781  1.0000
  O   O18       1.0  0.33641  0.15019  0.88782  1.0000
  O   O19       1.0  0.83642  0.65019  0.61218  1.0000
  O   O20       1.0  0.66359  0.84980  0.11218  1.0000
  O   O21       1.0  0.16347  0.58641  0.39712  1.0000
  O   O22       1.0  0.33653  0.91359  0.89713  1.0000
  O   O23       1.0  0.83654  0.41359  0.60288  1.0000
  O   O24       1.0  0.66347  0.08641  0.10287  1.0000
  O   O25       1.0  0.25371  0.81812  0.59372  1.0000
  O   O26       1.0  0.24629  0.68188  0.09372  1.0000
  O   O27       1.0  0.74629  0.18187  0.40629  1.0000
  O   O28       1.0  0.75371  0.31812  0.90629  1.0000
  O   O29       1.0  0.50391  0.74030  0.42588  1.0000
  O   O30       1.0  0.99609  0.75970  0.92588  1.0000
  O   O31       1.0  0.49609  0.25970  0.57412  1.0000
  O   O32       1.0  0.00391  0.24030  0.07412  1.0000
