data_image0
_chemical_formula_structural       Sr4P4H36C8O36
_chemical_formula_sum              "Sr4 P4 H36 C8 O36"
_cell_length_a       6.98786
_cell_length_b       11.0184
_cell_length_c       13.293
_cell_angle_alpha    110.047
_cell_angle_beta     89.9999
_cell_angle_gamma    90.0001

_space_group_name_H-M_alt    "P 1"
_space_group_IT_number       1

loop_
  _space_group_symop_operation_xyz
  'x, y, z'

loop_
  _atom_site_type_symbol
  _atom_site_label
  _atom_site_symmetry_multiplicity
  _atom_site_fract_x
  _atom_site_fract_y
  _atom_site_fract_z
  _atom_site_occupancy
  Sr  Sr1       1.0  0.93644  0.84842  0.34786  1.0000
  Sr  Sr2       1.0  0.43644  0.15158  0.15213  1.0000
  Sr  Sr3       1.0  0.06356  0.15159  0.65214  1.0000
  Sr  Sr4       1.0  0.56356  0.84842  0.84787  1.0000
  P   P1        1.0  0.78846  0.63232  0.59878  1.0000
  P   P2        1.0  0.28845  0.36769  0.90122  1.0000
  P   P3        1.0  0.21156  0.36769  0.40121  1.0000
  P   P4        1.0  0.71155  0.63231  0.09879  1.0000
  H   H1        1.0  0.51949  0.73927  0.55158  1.0000
  H   H2        1.0  0.01949  0.26072  0.94842  1.0000
  H   H3        1.0  0.48051  0.26074  0.44842  1.0000
  H   H4        1.0  0.98052  0.73927  0.05159  1.0000
  H   H5        1.0  0.69292  0.62149  0.39102  1.0000
  H   H6        1.0  0.19292  0.37850  0.10897  1.0000
  H   H7        1.0  0.30708  0.37851  0.60898  1.0000
  H   H8        1.0  0.80708  0.62150  0.89103  1.0000
  H   H9        1.0  0.84346  0.44534  0.46779  1.0000
  H   H10       1.0  0.34346  0.55465  0.03221  1.0000
  H   H11       1.0  0.15653  0.55465  0.53221  1.0000
  H   H12       1.0  0.65654  0.44534  0.96778  1.0000
  H   H13       1.0  0.70510  0.09573  0.46394  1.0000
  H   H14       1.0  0.20510  0.90428  0.03606  1.0000
  H   H15       1.0  0.29490  0.90427  0.53606  1.0000
  H   H16       1.0  0.79489  0.09572  0.96394  1.0000
  H   H17       1.0  0.29613  0.89946  0.25785  1.0000
  H   H18       1.0  0.79612  0.10055  0.24215  1.0000
  H   H19       1.0  0.70388  0.10054  0.74215  1.0000
  H   H20       1.0  0.20388  0.89945  0.75785  1.0000
  H   H21       1.0  0.26410  0.68176  0.41448  1.0000
  H   H22       1.0  0.76411  0.31824  0.08553  1.0000
  H   H23       1.0  0.73590  0.31824  0.58553  1.0000
  H   H24       1.0  0.23589  0.68177  0.91448  1.0000
  H   H25       1.0  0.34159  0.75109  0.19531  1.0000
  H   H26       1.0  0.84160  0.24892  0.30469  1.0000
  H   H27       1.0  0.65841  0.24891  0.80469  1.0000
  H   H28       1.0  0.15840  0.75108  0.69531  1.0000
  H   H29       1.0  0.11010  0.72428  0.50528  1.0000
  H   H30       1.0  0.61011  0.27572  0.99472  1.0000
  H   H31       1.0  0.88990  0.27572  0.49472  1.0000
  H   H32       1.0  0.38989  0.72427  0.00527  1.0000
  H   H33       1.0  0.57457  0.03056  0.36388  1.0000
  H   H34       1.0  0.07457  0.96944  0.13612  1.0000
  H   H35       1.0  0.42543  0.96944  0.63613  1.0000
  H   H36       1.0  0.92543  0.03056  0.86388  1.0000
  C   C1        1.0  0.67494  0.74488  0.54029  1.0000
  C   C2        1.0  0.17494  0.25511  0.95970  1.0000
  C   C3        1.0  0.32505  0.25512  0.45970  1.0000
  C   C4        1.0  0.82506  0.74489  0.04030  1.0000
  C   C5        1.0  0.74242  0.88174  0.60256  1.0000
  C   C6        1.0  0.24244  0.11825  0.89744  1.0000
  C   C7        1.0  0.25758  0.11826  0.39744  1.0000
  C   C8        1.0  0.75756  0.88175  0.10256  1.0000
  O   O1        1.0  0.72317  0.71204  0.42961  1.0000
  O   O2        1.0  0.22317  0.28795  0.07038  1.0000
  O   O3        1.0  0.27682  0.28796  0.57038  1.0000
  O   O4        1.0  0.77684  0.71205  0.92962  1.0000
  O   O5        1.0  0.00656  0.65107  0.59423  1.0000
  O   O6        1.0  0.50656  0.34894  0.90577  1.0000
  O   O7        1.0  0.99343  0.34894  0.40577  1.0000
  O   O8        1.0  0.49344  0.65106  0.09423  1.0000
  O   O9        1.0  0.73179  0.49556  0.51404  1.0000
  O   O10       1.0  0.23178  0.50443  0.98596  1.0000
  O   O11       1.0  0.26821  0.50443  0.48596  1.0000
  O   O12       1.0  0.76821  0.49557  0.01404  1.0000
  O   O13       1.0  0.70150  0.65161  0.70642  1.0000
  O   O14       1.0  0.20150  0.34838  0.79357  1.0000
  O   O15       1.0  0.29849  0.34839  0.29358  1.0000
  O   O16       1.0  0.79849  0.65161  0.20642  1.0000
  O   O17       1.0  0.87553  0.93074  0.56494  1.0000
  O   O18       1.0  0.37554  0.06925  0.93506  1.0000
  O   O19       1.0  0.12447  0.06925  0.43506  1.0000
  O   O20       1.0  0.62445  0.93075  0.06494  1.0000
  O   O21       1.0  0.65841  0.93619  0.69252  1.0000
  O   O22       1.0  0.15843  0.06380  0.80747  1.0000
  O   O23       1.0  0.34159  0.06381  0.30748  1.0000
  O   O24       1.0  0.84158  0.93619  0.19252  1.0000
  O   O25       1.0  0.66909  0.01150  0.41094  1.0000
  O   O26       1.0  0.16909  0.98851  0.08906  1.0000
  O   O27       1.0  0.33091  0.98851  0.58906  1.0000
  O   O28       1.0  0.83091  0.01149  0.91094  1.0000
  O   O29       1.0  0.24685  0.81016  0.24241  1.0000
  O   O30       1.0  0.74687  0.18984  0.25759  1.0000
  O   O31       1.0  0.75315  0.18983  0.75760  1.0000
  O   O32       1.0  0.25313  0.81015  0.74241  1.0000
  O   O33       1.0  0.18098  0.75372  0.45292  1.0000
  O   O34       1.0  0.68098  0.24629  0.04708  1.0000
  O   O35       1.0  0.81902  0.24629  0.54708  1.0000
  O   O36       1.0  0.31902  0.75371  0.95293  1.0000
