data_image0
_chemical_formula_structural       Ag2H20C22S2N4O6F6
_chemical_formula_sum              "Ag2 H20 C22 S2 N4 O6 F6"
_cell_length_a       7.83559
_cell_length_b       9.18268
_cell_length_c       10.0785
_cell_angle_alpha    76.4219
_cell_angle_beta     84.9433
_cell_angle_gamma    68.3953

_space_group_name_H-M_alt    "P 1"
_space_group_IT_number       1

loop_
  _space_group_symop_operation_xyz
  'x, y, z'

loop_
  _atom_site_type_symbol
  _atom_site_label
  _atom_site_symmetry_multiplicity
  _atom_site_fract_x
  _atom_site_fract_y
  _atom_site_fract_z
  _atom_site_occupancy
  Ag  Ag1       1.0  0.37636  0.35465  0.12289  1.0000
  Ag  Ag2       1.0  0.62364  0.64535  0.87711  1.0000
  H   H1        1.0  0.36027  0.39662  0.39640  1.0000
  H   H2        1.0  0.63973  0.60337  0.60360  1.0000
  H   H3        1.0  0.08982  0.70843  0.04812  1.0000
  H   H4        1.0  0.91018  0.29157  0.95188  1.0000
  H   H5        1.0  0.86279  0.70571  0.05027  1.0000
  H   H6        1.0  0.13720  0.29429  0.94973  1.0000
  H   H7        1.0  0.87749  0.58022  0.28504  1.0000
  H   H8        1.0  0.12251  0.41978  0.71496  1.0000
  H   H9        1.0  0.09375  0.60442  0.28176  1.0000
  H   H10       1.0  0.90625  0.39558  0.71824  1.0000
  H   H11       1.0  0.99490  0.72748  0.81658  1.0000
  H   H12       1.0  0.00509  0.27252  0.18342  1.0000
  H   H13       1.0  0.18563  0.54722  0.87153  1.0000
  H   H14       1.0  0.81437  0.45278  0.12847  1.0000
  H   H15       1.0  0.48741  0.14691  0.57344  1.0000
  H   H16       1.0  0.51259  0.85309  0.42656  1.0000
  H   H17       1.0  0.96728  0.07971  0.59578  1.0000
  H   H18       1.0  0.03272  0.92030  0.40422  1.0000
  H   H19       1.0  0.84312  0.32695  0.41657  1.0000
  H   H20       1.0  0.15688  0.67305  0.58343  1.0000
  C   C1        1.0  0.27733  0.32288  0.43578  1.0000
  C   C2        1.0  0.72267  0.67713  0.56422  1.0000
  C   C3        1.0  0.00891  0.63865  0.03312  1.0000
  C   C4        1.0  0.99109  0.36135  0.96688  1.0000
  C   C5        1.0  0.02670  0.52029  0.27558  1.0000
  C   C6        1.0  0.97330  0.47971  0.72442  1.0000
  C   C7        1.0  0.09724  0.37301  0.38819  1.0000
  C   C8        1.0  0.90276  0.62698  0.61181  1.0000
  C   C9        1.0  0.03830  0.61121  0.88926  1.0000
  C   C10       1.0  0.96170  0.38879  0.11075  1.0000
  C   C11       1.0  0.23725  0.09464  0.59267  1.0000
  C   C12       1.0  0.76275  0.90536  0.40733  1.0000
  C   C13       1.0  0.31446  0.95282  0.69443  1.0000
  C   C14       1.0  0.68555  0.04718  0.30558  1.0000
  C   C15       1.0  0.34846  0.18438  0.53628  1.0000
  C   C16       1.0  0.65154  0.81562  0.46372  1.0000
  C   C17       1.0  0.26783  0.92396  0.14727  1.0000
  C   C18       1.0  0.73217  0.07604  0.85273  1.0000
  C   C19       1.0  0.05454  0.14652  0.54929  1.0000
  C   C20       1.0  0.94546  0.85348  0.45071  1.0000
  C   C21       1.0  0.98616  0.28498  0.44768  1.0000
  C   C22       1.0  0.01384  0.71502  0.55232  1.0000
  S   S1        1.0  0.43471  0.71420  0.20000  1.0000
  S   S2        1.0  0.56528  0.28580  0.80000  1.0000
  N   N1        1.0  0.06815  0.48403  0.13611  1.0000
  N   N2        1.0  0.93185  0.51597  0.86389  1.0000
  N   N3        1.0  0.38774  0.83585  0.77508  1.0000
  N   N4        1.0  0.61226  0.16416  0.22491  1.0000
  O   O1        1.0  0.41289  0.63514  0.09437  1.0000
  O   O2        1.0  0.58710  0.36486  0.90563  1.0000
  O   O3        1.0  0.60898  0.73779  0.19349  1.0000
  O   O4        1.0  0.39102  0.26220  0.80651  1.0000
  O   O5        1.0  0.37067  0.65739  0.33502  1.0000
  O   O6        1.0  0.62933  0.34262  0.66498  1.0000
  F   F1        1.0  0.31151  0.99933  0.02485  1.0000
  F   F2        1.0  0.68849  0.00066  0.97514  1.0000
  F   F3        1.0  0.26740  0.01027  0.24140  1.0000
  F   F4        1.0  0.73260  0.98974  0.75860  1.0000
  F   F5        1.0  0.09284  0.92879  0.14011  1.0000
  F   F6        1.0  0.90716  0.07121  0.85989  1.0000
