data_image0
_chemical_formula_structural       CdH38C44S2N12
_chemical_formula_sum              "Cd1 H38 C44 S2 N12"
_cell_length_a       5.71722
_cell_length_b       10.3245
_cell_length_c       17.5698
_cell_angle_alpha    90.1101
_cell_angle_beta     87.6849
_cell_angle_gamma    87.7227

_space_group_name_H-M_alt    "P 1"
_space_group_IT_number       1

loop_
  _space_group_symop_operation_xyz
  'x, y, z'

loop_
  _atom_site_type_symbol
  _atom_site_label
  _atom_site_symmetry_multiplicity
  _atom_site_fract_x
  _atom_site_fract_y
  _atom_site_fract_z
  _atom_site_occupancy
  Cd  Cd1       1.0  0.49998  0.00001  0.00000  1.0000
  H   H1        1.0  0.65615  0.12159  0.44504  1.0000
  H   H2        1.0  0.34384  0.87843  0.55496  1.0000
  H   H3        1.0  0.60133  0.21116  0.36180  1.0000
  H   H4        1.0  0.39869  0.78886  0.63820  1.0000
  H   H5        1.0  0.79153  0.46855  0.48768  1.0000
  H   H6        1.0  0.20845  0.53146  0.51232  1.0000
  H   H7        1.0  0.60579  0.34035  0.51397  1.0000
  H   H8        1.0  0.39421  0.65964  0.48603  1.0000
  H   H9        1.0  0.57324  0.42149  0.42522  1.0000
  H   H10       1.0  0.42676  0.57850  0.57477  1.0000
  H   H11       1.0  0.95463  0.19276  0.53476  1.0000
  H   H12       1.0  0.04540  0.80725  0.46524  1.0000
  H   H13       1.0  0.14796  0.31794  0.50921  1.0000
  H   H14       1.0  0.85207  0.68207  0.49079  1.0000
  H   H15       1.0  0.17878  0.16541  0.46266  1.0000
  H   H16       1.0  0.82124  0.83459  0.53734  1.0000
  H   H17       1.0  0.87872  0.40511  0.32589  1.0000
  H   H18       1.0  0.12129  0.59488  0.67411  1.0000
  H   H19       1.0  0.12141  0.42440  0.38278  1.0000
  H   H20       1.0  0.87859  0.57560  0.61721  1.0000
  H   H21       1.0  0.19739  0.06144  0.27150  1.0000
  H   H22       1.0  0.80258  0.93856  0.72850  1.0000
  H   H23       1.0  0.43599  0.22649  0.22828  1.0000
  H   H24       1.0  0.56402  0.77352  0.77172  1.0000
  H   H25       1.0  0.27792  0.50129  0.28431  1.0000
  H   H26       1.0  0.72210  0.49871  0.71569  1.0000
  H   H27       1.0  0.44514  0.67663  0.22758  1.0000
  H   H28       1.0  0.55489  0.32338  0.77242  1.0000
  H   H29       1.0  0.75949  0.77709  0.15097  1.0000
  H   H30       1.0  0.24054  0.22291  0.84902  1.0000
  H   H31       1.0  0.08387  0.39891  0.10436  1.0000
  H   H32       1.0  0.91612  0.60108  0.89564  1.0000
  H   H33       1.0  0.76324  0.29742  0.17747  1.0000
  H   H34       1.0  0.23673  0.70258  0.82253  1.0000
  H   H35       1.0  0.08439  0.85361  0.11926  1.0000
  H   H36       1.0  0.91563  0.14637  0.88073  1.0000
  H   H37       1.0  0.57293  0.65502  0.97136  1.0000
  H   H38       1.0  0.42707  0.34498  0.02863  1.0000
  C   C1        1.0  0.98157  0.85927  0.30235  1.0000
  C   C2        1.0  0.01842  0.14074  0.69764  1.0000
  C   C3        1.0  0.63033  0.90636  0.38070  1.0000
  C   C4        1.0  0.36967  0.09364  0.61930  1.0000
  C   C5        1.0  0.83800  0.95091  0.34453  1.0000
  C   C6        1.0  0.16199  0.04909  0.65547  1.0000
  C   C7        1.0  0.89534  0.08056  0.34970  1.0000
  C   C8        1.0  0.10465  0.91944  0.65030  1.0000
  C   C9        1.0  0.74251  0.17260  0.39752  1.0000
  C   C10       1.0  0.25749  0.82741  0.60249  1.0000
  C   C11       1.0  0.87662  0.28669  0.42808  1.0000
  C   C12       1.0  0.12339  0.71332  0.57192  1.0000
  C   C13       1.0  0.70107  0.38492  0.46592  1.0000
  C   C14       1.0  0.29893  0.61508  0.53408  1.0000
  C   C15       1.0  0.05024  0.23753  0.48692  1.0000
  C   C16       1.0  0.94978  0.76248  0.51308  1.0000
  C   C17       1.0  0.00631  0.35127  0.36076  1.0000
  C   C18       1.0  0.99370  0.64873  0.63924  1.0000
  C   C19       1.0  0.14608  0.25737  0.30966  1.0000
  C   C20       1.0  0.85392  0.74263  0.69034  1.0000
  C   C21       1.0  0.09122  0.12853  0.30797  1.0000
  C   C22       1.0  0.90877  0.87147  0.69203  1.0000
  C   C23       1.0  0.33587  0.30096  0.26162  1.0000
  C   C24       1.0  0.66413  0.69904  0.73839  1.0000
  C   C25       1.0  0.38943  0.42797  0.25403  1.0000
  C   C26       1.0  0.61058  0.57204  0.74597  1.0000
  C   C27       1.0  0.57966  0.47983  0.20832  1.0000
  C   C28       1.0  0.42035  0.52017  0.79168  1.0000
  C   C29       1.0  0.58521  0.61568  0.20055  1.0000
  C   C30       1.0  0.41481  0.38432  0.79945  1.0000
  C   C31       1.0  0.76244  0.67224  0.15792  1.0000
  C   C32       1.0  0.23757  0.32775  0.84207  1.0000
  C   C33       1.0  0.94326  0.59388  0.12423  1.0000
  C   C34       1.0  0.05677  0.40612  0.87577  1.0000
  C   C35       1.0  0.94278  0.45881  0.13105  1.0000
  C   C36       1.0  0.05723  0.54119  0.86894  1.0000
  C   C37       1.0  0.76154  0.40265  0.17238  1.0000
  C   C38       1.0  0.23845  0.59735  0.82762  1.0000
  C   C39       1.0  0.18059  0.78059  0.08517  1.0000
  C   C40       1.0  0.81941  0.21940  0.91483  1.0000
  C   C41       1.0  0.42603  0.67685  0.01077  1.0000
  C   C42       1.0  0.57399  0.32315  0.98923  1.0000
  C   C43       1.0  0.01543  0.92099  0.90895  1.0000
  C   C44       1.0  0.98451  0.07900  0.09106  1.0000
  S   S1        1.0  0.26412  0.95699  0.86655  1.0000
  S   S2        1.0  0.73580  0.04299  0.13346  1.0000
  N   N1        1.0  0.10365  0.78464  0.26792  1.0000
  N   N2        1.0  0.89632  0.21540  0.73207  1.0000
  N   N3        1.0  0.45571  0.87292  0.41018  1.0000
  N   N4        1.0  0.54431  0.12705  0.58983  1.0000
  N   N5        1.0  0.12892  0.65393  0.08400  1.0000
  N   N6        1.0  0.87110  0.34607  0.91600  1.0000
  N   N7        1.0  0.28616  0.58640  0.03682  1.0000
  N   N8        1.0  0.71385  0.41359  0.96318  1.0000
  N   N9        1.0  0.36714  0.79825  0.03905  1.0000
  N   N10       1.0  0.63288  0.20174  0.96094  1.0000
  N   N11       1.0  0.83352  0.89621  0.93926  1.0000
  N   N12       1.0  0.16640  0.10377  0.06076  1.0000
