data_image0
_chemical_formula_structural       CoH12C14N6O4
_chemical_formula_sum              "Co1 H12 C14 N6 O4"
_cell_length_a       5.39932
_cell_length_b       8.7691
_cell_length_c       9.48436
_cell_angle_alpha    74.8354
_cell_angle_beta     79.8188
_cell_angle_gamma    83.446

_space_group_name_H-M_alt    "P 1"
_space_group_IT_number       1

loop_
  _space_group_symop_operation_xyz
  'x, y, z'

loop_
  _atom_site_type_symbol
  _atom_site_label
  _atom_site_symmetry_multiplicity
  _atom_site_fract_x
  _atom_site_fract_y
  _atom_site_fract_z
  _atom_site_occupancy
  Co  Co1       1.0  0.00001  0.50000  0.00000  1.0000
  H   H1        1.0  0.36721  0.58231  0.67923  1.0000
  H   H2        1.0  0.63278  0.41770  0.32077  1.0000
  H   H3        1.0  0.83253  0.24200  0.86185  1.0000
  H   H4        1.0  0.16749  0.75799  0.13816  1.0000
  H   H5        1.0  0.95489  0.24845  0.47628  1.0000
  H   H6        1.0  0.04511  0.75155  0.52371  1.0000
  H   H7        1.0  0.88950  0.10980  0.64970  1.0000
  H   H8        1.0  0.11049  0.89021  0.35029  1.0000
  H   H9        1.0  0.29113  0.94827  0.76191  1.0000
  H   H10       1.0  0.70885  0.05174  0.23809  1.0000
  H   H11       1.0  0.31012  0.20020  0.30260  1.0000
  H   H12       1.0  0.68985  0.79980  0.69740  1.0000
  C   C1        1.0  0.24890  0.48586  0.69342  1.0000
  C   C2        1.0  0.75111  0.51415  0.30658  1.0000
  C   C3        1.0  0.97588  0.31412  0.78852  1.0000
  C   C4        1.0  0.02413  0.68588  0.21149  1.0000
  C   C5        1.0  0.03420  0.18361  0.57582  1.0000
  C   C6        1.0  0.96580  0.81639  0.42418  1.0000
  C   C7        1.0  0.27322  0.08645  0.53682  1.0000
  C   C8        1.0  0.72677  0.91356  0.46318  1.0000
  C   C9        1.0  0.38209  0.97327  0.64677  1.0000
  C   C10       1.0  0.61789  0.02673  0.35322  1.0000
  C   C11       1.0  0.39241  0.11247  0.38985  1.0000
  C   C12       1.0  0.60758  0.88753  0.61014  1.0000
  C   C13       1.0  0.49209  0.41214  0.04241  1.0000
  C   C14       1.0  0.50795  0.58785  0.95760  1.0000
  N   N1        1.0  0.07818  0.43267  0.81773  1.0000
  N   N2        1.0  0.92184  0.56732  0.18227  1.0000
  N   N3        1.0  0.08106  0.29899  0.65315  1.0000
  N   N4        1.0  0.91893  0.70101  0.34685  1.0000
  N   N5        1.0  0.25541  0.40677  0.59071  1.0000
  N   N6        1.0  0.74457  0.59324  0.40928  1.0000
  O   O1        1.0  0.27376  0.35738  0.07398  1.0000
  O   O2        1.0  0.72626  0.64262  0.92603  1.0000
  O   O3        1.0  0.69255  0.33292  0.07614  1.0000
  O   O4        1.0  0.30748  0.66707  0.92387  1.0000
