data_image0
_chemical_formula_structural       Hg4H36C32N4O8
_chemical_formula_sum              "Hg4 H36 C32 N4 O8"
_cell_length_a       4.89488
_cell_length_b       12.9285
_cell_length_c       13.4801
_cell_angle_alpha    90
_cell_angle_beta     93.1606
_cell_angle_gamma    89.9999

_space_group_name_H-M_alt    "P 1"
_space_group_IT_number       1

loop_
  _space_group_symop_operation_xyz
  'x, y, z'

loop_
  _atom_site_type_symbol
  _atom_site_label
  _atom_site_symmetry_multiplicity
  _atom_site_fract_x
  _atom_site_fract_y
  _atom_site_fract_z
  _atom_site_occupancy
  Hg  Hg1       1.0  0.05489  0.15048  0.64586  1.0000
  Hg  Hg2       1.0  0.44511  0.65048  0.85414  1.0000
  Hg  Hg3       1.0  0.94512  0.84952  0.35414  1.0000
  Hg  Hg4       1.0  0.55488  0.34952  0.14586  1.0000
  H   H1        1.0  0.88345  0.15602  0.25935  1.0000
  H   H2        1.0  0.61655  0.65602  0.24065  1.0000
  H   H3        1.0  0.11655  0.84398  0.74065  1.0000
  H   H4        1.0  0.38346  0.34399  0.75935  1.0000
  H   H5        1.0  0.97903  0.27390  0.30429  1.0000
  H   H6        1.0  0.52097  0.77390  0.19571  1.0000
  H   H7        1.0  0.02097  0.72610  0.69571  1.0000
  H   H8        1.0  0.47903  0.22610  0.80429  1.0000
  H   H9        1.0  0.69540  0.06117  0.95044  1.0000
  H   H10       1.0  0.80460  0.56117  0.54956  1.0000
  H   H11       1.0  0.30460  0.93883  0.04956  1.0000
  H   H12       1.0  0.19540  0.43883  0.45044  1.0000
  H   H13       1.0  0.70414  0.92829  0.91499  1.0000
  H   H14       1.0  0.79586  0.42829  0.58501  1.0000
  H   H15       1.0  0.29586  0.07171  0.08501  1.0000
  H   H16       1.0  0.20414  0.57171  0.41499  1.0000
  H   H17       1.0  0.44090  0.01125  0.86336  1.0000
  H   H18       1.0  0.05910  0.51125  0.63664  1.0000
  H   H19       1.0  0.55910  0.98875  0.13664  1.0000
  H   H20       1.0  0.94090  0.48875  0.36336  1.0000
  H   H21       1.0  0.45112  0.32385  0.58279  1.0000
  H   H22       1.0  0.04888  0.82385  0.91721  1.0000
  H   H23       1.0  0.54888  0.67615  0.41721  1.0000
  H   H24       1.0  0.95112  0.17615  0.08279  1.0000
  H   H25       1.0  0.75670  0.35073  0.44508  1.0000
  H   H26       1.0  0.74331  0.85073  0.05492  1.0000
  H   H27       1.0  0.24330  0.64927  0.55492  1.0000
  H   H28       1.0  0.25669  0.14927  0.94508  1.0000
  H   H29       1.0  0.52065  0.05510  0.32178  1.0000
  H   H30       1.0  0.97935  0.55510  0.17822  1.0000
  H   H31       1.0  0.47935  0.94489  0.67822  1.0000
  H   H32       1.0  0.02065  0.44490  0.82178  1.0000
  H   H33       1.0  0.20729  0.02872  0.45570  1.0000
  H   H34       1.0  0.29271  0.52872  0.04430  1.0000
  H   H35       1.0  0.79271  0.97128  0.54430  1.0000
  H   H36       1.0  0.70729  0.47128  0.95570  1.0000
  C   C1        1.0  0.65725  0.00655  0.88876  1.0000
  C   C2        1.0  0.84275  0.50654  0.61124  1.0000
  C   C3        1.0  0.34276  0.99346  0.11124  1.0000
  C   C4        1.0  0.15725  0.49346  0.38876  1.0000
  C   C5        1.0  0.83817  0.03548  0.80644  1.0000
  C   C6        1.0  0.66183  0.53548  0.69356  1.0000
  C   C7        1.0  0.16183  0.96452  0.19356  1.0000
  C   C8        1.0  0.33817  0.46453  0.30644  1.0000
  C   C9        1.0  0.30457  0.17429  0.52958  1.0000
  C   C10       1.0  0.19543  0.67429  0.97042  1.0000
  C   C11       1.0  0.69543  0.82571  0.47042  1.0000
  C   C12       1.0  0.80457  0.32571  0.02958  1.0000
  C   C13       1.0  0.46248  0.26456  0.52540  1.0000
  C   C14       1.0  0.03752  0.76456  0.97460  1.0000
  C   C15       1.0  0.53752  0.73544  0.47460  1.0000
  C   C16       1.0  0.96248  0.23544  0.02540  1.0000
  C   C17       1.0  0.63577  0.28008  0.44795  1.0000
  C   C18       1.0  0.86423  0.78008  0.05205  1.0000
  C   C19       1.0  0.36423  0.71991  0.55205  1.0000
  C   C20       1.0  0.13577  0.21992  0.94795  1.0000
  C   C21       1.0  0.65890  0.20547  0.37299  1.0000
  C   C22       1.0  0.84110  0.70547  0.12701  1.0000
  C   C23       1.0  0.34109  0.79453  0.62701  1.0000
  C   C24       1.0  0.15890  0.29453  0.87299  1.0000
  C   C25       1.0  0.50165  0.11479  0.37808  1.0000
  C   C26       1.0  0.99835  0.61479  0.12192  1.0000
  C   C27       1.0  0.49835  0.88521  0.62193  1.0000
  C   C28       1.0  0.00165  0.38521  0.87807  1.0000
  C   C29       1.0  0.32592  0.10007  0.45466  1.0000
  C   C30       1.0  0.17407  0.60007  0.04534  1.0000
  C   C31       1.0  0.67408  0.89992  0.54534  1.0000
  C   C32       1.0  0.82592  0.39992  0.95466  1.0000
  N   N1        1.0  0.82167  0.22241  0.29313  1.0000
  N   N2        1.0  0.67833  0.72241  0.20687  1.0000
  N   N3        1.0  0.17833  0.77759  0.70687  1.0000
  N   N4        1.0  0.32167  0.27759  0.79313  1.0000
  O   O1        1.0  0.76599  0.11923  0.75727  1.0000
  O   O2        1.0  0.73401  0.61923  0.74273  1.0000
  O   O3        1.0  0.23402  0.88078  0.24273  1.0000
  O   O4        1.0  0.26598  0.38078  0.25727  1.0000
  O   O5        1.0  0.04406  0.98305  0.78771  1.0000
  O   O6        1.0  0.45594  0.48305  0.71229  1.0000
  O   O7        1.0  0.95594  0.01695  0.21229  1.0000
  O   O8        1.0  0.54406  0.51695  0.28771  1.0000
