data_image0
_chemical_formula_structural       Cs4Li4H32C16O32
_chemical_formula_sum              "Cs4 Li4 H32 C16 O32"
_cell_length_a       4.9868
_cell_length_b       10.7436
_cell_length_c       16.9166
_cell_angle_alpha    89.9997
_cell_angle_beta     90.0001
_cell_angle_gamma    97.7105

_space_group_name_H-M_alt    "P 1"
_space_group_IT_number       1

loop_
  _space_group_symop_operation_xyz
  'x, y, z'

loop_
  _atom_site_type_symbol
  _atom_site_label
  _atom_site_symmetry_multiplicity
  _atom_site_fract_x
  _atom_site_fract_y
  _atom_site_fract_z
  _atom_site_occupancy
  Cs  Cs1       1.0  0.63406  0.64789  0.27472  1.0000
  Cs  Cs2       1.0  0.36594  0.85211  0.77472  1.0000
  Cs  Cs3       1.0  0.36594  0.35211  0.72528  1.0000
  Cs  Cs4       1.0  0.63406  0.14789  0.22528  1.0000
  Li  Li1       1.0  0.89608  0.04154  0.66815  1.0000
  Li  Li2       1.0  0.10393  0.45847  0.16815  1.0000
  Li  Li3       1.0  0.10393  0.95846  0.33185  1.0000
  Li  Li4       1.0  0.89606  0.54154  0.83185  1.0000
  H   H1        1.0  0.31278  0.33355  0.51336  1.0000
  H   H2        1.0  0.68724  0.16645  0.01336  1.0000
  H   H3        1.0  0.68724  0.66645  0.48664  1.0000
  H   H4        1.0  0.31275  0.83355  0.98664  1.0000
  H   H5        1.0  0.37293  0.12353  0.46565  1.0000
  H   H6        1.0  0.62707  0.37647  0.96565  1.0000
  H   H7        1.0  0.62708  0.87647  0.53435  1.0000
  H   H8        1.0  0.37291  0.62353  0.03435  1.0000
  H   H9        1.0  0.83542  0.42884  0.53776  1.0000
  H   H10       1.0  0.16460  0.07116  0.03776  1.0000
  H   H11       1.0  0.16460  0.57116  0.46224  1.0000
  H   H12       1.0  0.83539  0.92884  0.96224  1.0000
  H   H13       1.0  0.90286  0.14890  0.53753  1.0000
  H   H14       1.0  0.09716  0.35109  0.03753  1.0000
  H   H15       1.0  0.09716  0.85109  0.46247  1.0000
  H   H16       1.0  0.90282  0.64891  0.96247  1.0000
  H   H17       1.0  0.80773  0.79964  0.63505  1.0000
  H   H18       1.0  0.19225  0.70036  0.13505  1.0000
  H   H19       1.0  0.19228  0.20036  0.36495  1.0000
  H   H20       1.0  0.80773  0.29964  0.86495  1.0000
  H   H21       1.0  0.07122  0.86908  0.59357  1.0000
  H   H22       1.0  0.92877  0.63092  0.09357  1.0000
  H   H23       1.0  0.92880  0.13092  0.40643  1.0000
  H   H24       1.0  0.07121  0.36908  0.90643  1.0000
  H   H25       1.0  0.02394  0.06159  0.82817  1.0000
  H   H26       1.0  0.97608  0.43841  0.32817  1.0000
  H   H27       1.0  0.97605  0.93841  0.17183  1.0000
  H   H28       1.0  0.02393  0.56159  0.67183  1.0000
  H   H29       1.0  0.75168  0.10684  0.80570  1.0000
  H   H30       1.0  0.24834  0.39315  0.30570  1.0000
  H   H31       1.0  0.24832  0.89316  0.19430  1.0000
  H   H32       1.0  0.75167  0.60685  0.69430  1.0000
  C   C1        1.0  0.60744  0.35999  0.42152  1.0000
  C   C2        1.0  0.39258  0.14000  0.92151  1.0000
  C   C3        1.0  0.39258  0.64001  0.57849  1.0000
  C   C4        1.0  0.60742  0.86000  0.07848  1.0000
  C   C5        1.0  0.52131  0.31207  0.50421  1.0000
  C   C6        1.0  0.47871  0.18793  0.00420  1.0000
  C   C7        1.0  0.47871  0.68793  0.49580  1.0000
  C   C8        1.0  0.52127  0.81207  0.99579  1.0000
  C   C9        1.0  0.51464  0.16813  0.51020  1.0000
  C   C10       1.0  0.48536  0.33186  0.01019  1.0000
  C   C11       1.0  0.48537  0.83187  0.48981  1.0000
  C   C12       1.0  0.51462  0.66814  0.98981  1.0000
  C   C13       1.0  0.39821  0.12435  0.59104  1.0000
  C   C14       1.0  0.60179  0.37565  0.09103  1.0000
  C   C15       1.0  0.60180  0.87565  0.40896  1.0000
  C   C16       1.0  0.39819  0.62435  0.90896  1.0000
  O   O1        1.0  0.81442  0.44186  0.41645  1.0000
  O   O2        1.0  0.18559  0.05814  0.91644  1.0000
  O   O3        1.0  0.18560  0.55814  0.58355  1.0000
  O   O4        1.0  0.81440  0.94186  0.08355  1.0000
  O   O5        1.0  0.46477  0.31469  0.36292  1.0000
  O   O6        1.0  0.53524  0.18530  0.86292  1.0000
  O   O7        1.0  0.53524  0.68531  0.63708  1.0000
  O   O8        1.0  0.46476  0.81470  0.13707  1.0000
  O   O9        1.0  0.69282  0.37154  0.56420  1.0000
  O   O10       1.0  0.30720  0.12846  0.06419  1.0000
  O   O11       1.0  0.30720  0.62846  0.43581  1.0000
  O   O12       1.0  0.69278  0.87154  0.93580  1.0000
  O   O13       1.0  0.76898  0.12889  0.49372  1.0000
  O   O14       1.0  0.23103  0.37110  0.99372  1.0000
  O   O15       1.0  0.23103  0.87110  0.50628  1.0000
  O   O16       1.0  0.76895  0.62890  0.00628  1.0000
  O   O17       1.0  0.54179  0.07687  0.64107  1.0000
  O   O18       1.0  0.45820  0.42313  0.14107  1.0000
  O   O19       1.0  0.45821  0.92313  0.35893  1.0000
  O   O20       1.0  0.54178  0.57688  0.85893  1.0000
  O   O21       1.0  0.15473  0.14486  0.60401  1.0000
  O   O22       1.0  0.84527  0.35514  0.10401  1.0000
  O   O23       1.0  0.84528  0.85514  0.39599  1.0000
  O   O24       1.0  0.15472  0.64486  0.89599  1.0000
  O   O25       1.0  0.95682  0.87045  0.64197  1.0000
  O   O26       1.0  0.04317  0.62955  0.14197  1.0000
  O   O27       1.0  0.04319  0.12955  0.35803  1.0000
  O   O28       1.0  0.95681  0.37045  0.85803  1.0000
  O   O29       1.0  0.90096  0.06722  0.78194  1.0000
  O   O30       1.0  0.09906  0.43278  0.28194  1.0000
  O   O31       1.0  0.09904  0.93278  0.21806  1.0000
  O   O32       1.0  0.90095  0.56722  0.71806  1.0000
