data_image0
_chemical_formula_structural       Cs2H12C8O12
_chemical_formula_sum              "Cs2 H12 C8 O12"
_cell_length_a       6.47795
_cell_length_b       5.6571
_cell_length_c       9.94751
_cell_angle_alpha    96.8723
_cell_angle_beta     75.3744
_cell_angle_gamma    91.6973

_space_group_name_H-M_alt    "P 1"
_space_group_IT_number       1

loop_
  _space_group_symop_operation_xyz
  'x, y, z'

loop_
  _atom_site_type_symbol
  _atom_site_label
  _atom_site_symmetry_multiplicity
  _atom_site_fract_x
  _atom_site_fract_y
  _atom_site_fract_z
  _atom_site_occupancy
  Cs  Cs1       1.0  0.91247  0.94482  0.70687  1.0000
  Cs  Cs2       1.0  0.08755  0.05512  0.29309  1.0000
  H   H1        1.0  0.39134  0.82615  0.53664  1.0000
  H   H2        1.0  0.60901  0.17411  0.46328  1.0000
  H   H3        1.0  0.16288  0.46360  0.57609  1.0000
  H   H4        1.0  0.83708  0.53637  0.42391  1.0000
  H   H5        1.0  0.12224  0.66363  0.93369  1.0000
  H   H6        1.0  0.87774  0.33638  0.06631  1.0000
  H   H7        1.0  0.37622  0.92370  0.89588  1.0000
  H   H8        1.0  0.62378  0.07631  0.10412  1.0000
  H   H9        1.0  0.40976  0.22279  0.65873  1.0000
  H   H10       1.0  0.59018  0.77721  0.34127  1.0000
  H   H11       1.0  0.56131  0.50341  0.82489  1.0000
  H   H12       1.0  0.43866  0.49657  0.17510  1.0000
  C   C1        1.0  0.52458  0.54172  0.57362  1.0000
  C   C2        1.0  0.47538  0.45826  0.42640  1.0000
  C   C3        1.0  0.36257  0.41215  0.68503  1.0000
  C   C4        1.0  0.63737  0.58785  0.31498  1.0000
  C   C5        1.0  0.38883  0.47678  0.83593  1.0000
  C   C6        1.0  0.61115  0.52322  0.16408  1.0000
  C   C7        1.0  0.31727  0.26447  0.91483  1.0000
  C   C8        1.0  0.68271  0.73553  0.08518  1.0000
  O   O1        1.0  0.48047  0.79983  0.59986  1.0000
  O   O2        1.0  0.51960  0.20016  0.40018  1.0000
  O   O3        1.0  0.72828  0.49511  0.57498  1.0000
  O   O4        1.0  0.27168  0.50475  0.42501  1.0000
  O   O5        1.0  0.14719  0.44174  0.68122  1.0000
  O   O6        1.0  0.85276  0.55829  0.31879  1.0000
  O   O7        1.0  0.27948  0.68443  0.91158  1.0000
  O   O8        1.0  0.72051  0.31557  0.08843  1.0000
  O   O9        1.0  0.14518  0.25432  0.00382  1.0000
  O   O10       1.0  0.85480  0.74566  0.99618  1.0000
  O   O11       1.0  0.45167  0.08412  0.87278  1.0000
  O   O12       1.0  0.54833  0.91588  0.12723  1.0000
