data_image0
_chemical_formula_structural       K2Cu2H48C32I4O12
_chemical_formula_sum              "K2 Cu2 H48 C32 I4 O12"
_cell_length_a       9.27624
_cell_length_b       9.63916
_cell_length_c       12.6801
_cell_angle_alpha    93.1298
_cell_angle_beta     93.7167
_cell_angle_gamma    109.81

_space_group_name_H-M_alt    "P 1"
_space_group_IT_number       1

loop_
  _space_group_symop_operation_xyz
  'x, y, z'

loop_
  _atom_site_type_symbol
  _atom_site_label
  _atom_site_symmetry_multiplicity
  _atom_site_fract_x
  _atom_site_fract_y
  _atom_site_fract_z
  _atom_site_occupancy
  K   K1        1.0  0.59816  0.65078  0.14735  1.0000
  K   K2        1.0  0.40183  0.34922  0.85265  1.0000
  Cu  Cu1       1.0  0.95925  0.99821  0.40239  1.0000
  Cu  Cu2       1.0  0.04075  0.00179  0.59761  1.0000
  H   H1        1.0  0.27636  0.31555  0.43090  1.0000
  H   H2        1.0  0.72364  0.68445  0.56910  1.0000
  H   H3        1.0  0.31347  0.08151  0.46624  1.0000
  H   H4        1.0  0.68652  0.91849  0.53376  1.0000
  H   H5        1.0  0.55673  0.04000  0.42038  1.0000
  H   H6        1.0  0.44327  0.96000  0.57962  1.0000
  H   H7        1.0  0.75119  0.22725  0.33330  1.0000
  H   H8        1.0  0.24881  0.77275  0.66670  1.0000
  H   H9        1.0  0.84027  0.35932  0.20767  1.0000
  H   H10       1.0  0.15973  0.64068  0.79233  1.0000
  H   H11       1.0  0.94125  0.48156  0.32054  1.0000
  H   H12       1.0  0.05875  0.51844  0.67946  1.0000
  H   H13       1.0  0.95053  0.69931  0.21478  1.0000
  H   H14       1.0  0.04947  0.30069  0.78523  1.0000
  H   H15       1.0  0.05202  0.58713  0.16207  1.0000
  H   H16       1.0  0.94798  0.41287  0.83793  1.0000
  H   H17       1.0  0.01267  0.66127  0.98105  1.0000
  H   H18       1.0  0.98733  0.33873  0.01895  1.0000
  H   H19       1.0  0.92201  0.78019  0.03880  1.0000
  H   H20       1.0  0.07799  0.21981  0.96120  1.0000
  H   H21       1.0  0.84373  0.69824  0.84260  1.0000
  H   H22       1.0  0.15627  0.30176  0.15740  1.0000
  H   H23       1.0  0.76399  0.51182  0.87718  1.0000
  H   H24       1.0  0.23601  0.48818  0.12282  1.0000
  H   H25       1.0  0.65216  0.79512  0.81022  1.0000
  H   H26       1.0  0.34784  0.20488  0.18978  1.0000
  H   H27       1.0  0.72978  0.87591  0.94117  1.0000
  H   H28       1.0  0.27022  0.12409  0.05883  1.0000
  H   H29       1.0  0.45761  0.87888  0.87533  1.0000
  H   H30       1.0  0.54239  0.12112  0.12467  1.0000
  H   H31       1.0  0.39124  0.68532  0.89027  1.0000
  H   H32       1.0  0.60876  0.31468  0.10973  1.0000
  H   H33       1.0  0.24267  0.71869  0.02531  1.0000
  H   H34       1.0  0.75733  0.28131  0.97469  1.0000
  H   H35       1.0  0.30784  0.91437  0.01818  1.0000
  H   H36       1.0  0.69216  0.08563  0.98182  1.0000
  H   H37       1.0  0.43846  0.93726  0.20811  1.0000
  H   H38       1.0  0.56154  0.06274  0.79189  1.0000
  H   H39       1.0  0.23293  0.86816  0.19726  1.0000
  H   H40       1.0  0.76707  0.13184  0.80274  1.0000
  H   H41       1.0  0.27298  0.75883  0.36554  1.0000
  H   H42       1.0  0.72702  0.24117  0.63446  1.0000
  H   H43       1.0  0.47547  0.80286  0.35768  1.0000
  H   H44       1.0  0.52453  0.19714  0.64232  1.0000
  H   H45       1.0  0.34951  0.57554  0.45357  1.0000
  H   H46       1.0  0.65049  0.42446  0.54643  1.0000
  H   H47       1.0  0.23950  0.48743  0.33202  1.0000
  H   H48       1.0  0.76050  0.51257  0.66798  1.0000
  C   C1        1.0  0.49033  0.40513  0.35854  1.0000
  C   C2        1.0  0.50967  0.59487  0.64146  1.0000
  C   C3        1.0  0.38034  0.29781  0.40796  1.0000
  C   C4        1.0  0.61966  0.70219  0.59204  1.0000
  C   C5        1.0  0.40252  0.16494  0.42904  1.0000
  C   C6        1.0  0.59748  0.83506  0.57096  1.0000
  C   C7        1.0  0.53597  0.14123  0.40264  1.0000
  C   C8        1.0  0.46403  0.85877  0.59736  1.0000
  C   C9        1.0  0.64766  0.24841  0.35323  1.0000
  C   C10       1.0  0.35234  0.75160  0.64677  1.0000
  C   C11       1.0  0.62492  0.37936  0.32969  1.0000
  C   C12       1.0  0.37508  0.62065  0.67031  1.0000
  C   C13       1.0  0.86379  0.46980  0.24836  1.0000
  C   C14       1.0  0.13621  0.53020  0.75165  1.0000
  C   C15       1.0  0.93666  0.58906  0.17659  1.0000
  C   C16       1.0  0.06334  0.41094  0.82341  1.0000
  C   C17       1.0  0.90155  0.66688  0.00352  1.0000
  C   C18       1.0  0.09845  0.33312  0.99648  1.0000
  C   C19       1.0  0.78995  0.62826  0.90524  1.0000
  C   C20       1.0  0.21005  0.37174  0.09476  1.0000
  C   C21       1.0  0.63687  0.78462  0.89530  1.0000
  C   C22       1.0  0.36313  0.21538  0.10470  1.0000
  C   C23       1.0  0.48183  0.79143  0.91794  1.0000
  C   C24       1.0  0.51817  0.20857  0.08206  1.0000
  C   C25       1.0  0.33313  0.82376  0.05600  1.0000
  C   C26       1.0  0.66687  0.17624  0.94400  1.0000
  C   C27       1.0  0.33577  0.84396  0.17499  1.0000
  C   C28       1.0  0.66423  0.15604  0.82500  1.0000
  C   C29       1.0  0.36103  0.72179  0.33054  1.0000
  C   C30       1.0  0.63897  0.27821  0.66946  1.0000
  C   C31       1.0  0.34779  0.57216  0.36662  1.0000
  C   C32       1.0  0.65222  0.42784  0.63338  1.0000
  I   I1        1.0  0.88370  0.01322  0.20880  1.0000
  I   I2        1.0  0.11629  0.98678  0.79120  1.0000
  I   I3        1.0  0.99261  0.22985  0.52873  1.0000
  I   I4        1.0  0.00739  0.77015  0.47127  1.0000
  O   O1        1.0  0.47736  0.53695  0.33237  1.0000
  O   O2        1.0  0.52264  0.46305  0.66763  1.0000
  O   O3        1.0  0.72300  0.48783  0.27649  1.0000
  O   O4        1.0  0.27700  0.51217  0.72351  1.0000
  O   O5        1.0  0.84028  0.56080  0.07882  1.0000
  O   O6        1.0  0.15972  0.43920  0.92118  1.0000
  O   O7        1.0  0.64441  0.64431  0.92377  1.0000
  O   O8        1.0  0.35559  0.35569  0.07623  1.0000
  O   O9        1.0  0.47946  0.82011  0.02967  1.0000
  O   O10       1.0  0.52054  0.17989  0.97033  1.0000
  O   O11       1.0  0.33904  0.71002  0.21692  1.0000
  O   O12       1.0  0.66096  0.28998  0.78308  1.0000
