data_image0
_chemical_formula_structural       K2Cu2H48C24Cl4O12
_chemical_formula_sum              "K2 Cu2 H48 C24 Cl4 O12"
_cell_length_a       7.82946
_cell_length_b       8.65038
_cell_length_c       13.7466
_cell_angle_alpha    102.969
_cell_angle_beta     90.0002
_cell_angle_gamma    89.9997

_space_group_name_H-M_alt    "P 1"
_space_group_IT_number       1

loop_
  _space_group_symop_operation_xyz
  'x, y, z'

loop_
  _atom_site_type_symbol
  _atom_site_label
  _atom_site_symmetry_multiplicity
  _atom_site_fract_x
  _atom_site_fract_y
  _atom_site_fract_z
  _atom_site_occupancy
  K   K1        1.0  0.50000  0.00000  0.50000  1.0000
  K   K2        1.0  0.00000  0.50000  0.00000  1.0000
  Cu  Cu1       1.0  0.00000  0.00000  0.50000  1.0000
  Cu  Cu2       1.0  0.50000  0.50000  1.00000  1.0000
  H   H1        1.0  0.40937  0.16968  0.20496  1.0000
  H   H2        1.0  0.90937  0.33032  0.29504  1.0000
  H   H3        1.0  0.59063  0.83032  0.79504  1.0000
  H   H4        1.0  0.09064  0.66968  0.70496  1.0000
  H   H5        1.0  0.57536  0.21457  0.29664  1.0000
  H   H6        1.0  0.07536  0.28543  0.20336  1.0000
  H   H7        1.0  0.42464  0.78543  0.70336  1.0000
  H   H8        1.0  0.92464  0.71457  0.79664  1.0000
  H   H9        1.0  0.30061  0.37616  0.33542  1.0000
  H   H10       1.0  0.80060  0.12384  0.16458  1.0000
  H   H11       1.0  0.69940  0.62384  0.66458  1.0000
  H   H12       1.0  0.19939  0.87616  0.83542  1.0000
  H   H13       1.0  0.19784  0.20066  0.35390  1.0000
  H   H14       1.0  0.69784  0.29935  0.14610  1.0000
  H   H15       1.0  0.80216  0.79935  0.64610  1.0000
  H   H16       1.0  0.30216  0.70065  0.85390  1.0000
  H   H17       1.0  0.16304  0.33688  0.52639  1.0000
  H   H18       1.0  0.66304  0.16312  0.97361  1.0000
  H   H19       1.0  0.83696  0.66312  0.47361  1.0000
  H   H20       1.0  0.33696  0.83688  0.02639  1.0000
  H   H21       1.0  0.28265  0.50653  0.51043  1.0000
  H   H22       1.0  0.78265  0.99347  0.98957  1.0000
  H   H23       1.0  0.71735  0.49347  0.48957  1.0000
  H   H24       1.0  0.21735  0.00653  0.01043  1.0000
  H   H25       1.0  0.51077  0.43876  0.62376  1.0000
  H   H26       1.0  0.01077  0.06124  0.87624  1.0000
  H   H27       1.0  0.48923  0.56124  0.37624  1.0000
  H   H28       1.0  0.98923  0.93876  0.12376  1.0000
  H   H29       1.0  0.30878  0.49029  0.68345  1.0000
  H   H30       1.0  0.80878  0.00971  0.81655  1.0000
  H   H31       1.0  0.69121  0.50971  0.31655  1.0000
  H   H32       1.0  0.19122  0.99029  0.18345  1.0000
  H   H33       1.0  0.35745  0.33627  0.80739  1.0000
  H   H34       1.0  0.85745  0.16373  0.69261  1.0000
  H   H35       1.0  0.64255  0.66373  0.19261  1.0000
  H   H36       1.0  0.14255  0.83627  0.30739  1.0000
  H   H37       1.0  0.56815  0.30363  0.75733  1.0000
  H   H38       1.0  0.06815  0.19636  0.74267  1.0000
  H   H39       1.0  0.43185  0.69637  0.24267  1.0000
  H   H40       1.0  0.93185  0.80363  0.25733  1.0000
  H   H41       1.0  0.69575  0.95979  0.24773  1.0000
  H   H42       1.0  0.19575  0.54021  0.25227  1.0000
  H   H43       1.0  0.30425  0.04021  0.75227  1.0000
  H   H44       1.0  0.80425  0.45980  0.74773  1.0000
  H   H45       1.0  0.53875  0.90244  0.15124  1.0000
  H   H46       1.0  0.03875  0.59756  0.34876  1.0000
  H   H47       1.0  0.46125  0.09755  0.84876  1.0000
  H   H48       1.0  0.96125  0.40244  0.65124  1.0000
  C   C1        1.0  0.44557  0.16445  0.28198  1.0000
  C   C2        1.0  0.94557  0.33555  0.21802  1.0000
  C   C3        1.0  0.55443  0.83555  0.71802  1.0000
  C   C4        1.0  0.05443  0.66445  0.78198  1.0000
  C   C5        1.0  0.32267  0.26114  0.35555  1.0000
  C   C6        1.0  0.82266  0.23886  0.14444  1.0000
  C   C7        1.0  0.67733  0.73886  0.64444  1.0000
  C   C8        1.0  0.17733  0.76114  0.85556  1.0000
  C   C9        1.0  0.29277  0.38736  0.52665  1.0000
  C   C10       1.0  0.79277  0.11264  0.97335  1.0000
  C   C11       1.0  0.70723  0.61264  0.47335  1.0000
  C   C12       1.0  0.20723  0.88736  0.02665  1.0000
  C   C13       1.0  0.37642  0.40086  0.62677  1.0000
  C   C14       1.0  0.87641  0.09914  0.87323  1.0000
  C   C15       1.0  0.62358  0.59914  0.37323  1.0000
  C   C16       1.0  0.12358  0.90086  0.12677  1.0000
  C   C17       1.0  0.43634  0.25686  0.75061  1.0000
  C   C18       1.0  0.93634  0.24314  0.74939  1.0000
  C   C19       1.0  0.56366  0.74314  0.24939  1.0000
  C   C20       1.0  0.06365  0.75686  0.25061  1.0000
  C   C21       1.0  0.56709  0.90796  0.23067  1.0000
  C   C22       1.0  0.06708  0.59204  0.26933  1.0000
  C   C23       1.0  0.43291  0.09203  0.76933  1.0000
  C   C24       1.0  0.93292  0.40797  0.73067  1.0000
  Cl  Cl1       1.0  0.84891  0.17413  0.45660  1.0000
  Cl  Cl2       1.0  0.34891  0.32587  0.04341  1.0000
  Cl  Cl3       1.0  0.15109  0.82587  0.54340  1.0000
  Cl  Cl4       1.0  0.65110  0.67413  0.95659  1.0000
  O   O1        1.0  0.44439  0.00437  0.29401  1.0000
  O   O2        1.0  0.94439  0.49563  0.20599  1.0000
  O   O3        1.0  0.55561  0.99562  0.70599  1.0000
  O   O4        1.0  0.05562  0.50437  0.79401  1.0000
  O   O5        1.0  0.39581  0.28591  0.45283  1.0000
  O   O6        1.0  0.89581  0.21409  0.04717  1.0000
  O   O7        1.0  0.60419  0.71409  0.54717  1.0000
  O   O8        1.0  0.10419  0.78591  0.95283  1.0000
  O   O9        1.0  0.37002  0.25016  0.65279  1.0000
  O   O10       1.0  0.87001  0.24984  0.84721  1.0000
  O   O11       1.0  0.62999  0.74984  0.34721  1.0000
  O   O12       1.0  0.12998  0.75016  0.15279  1.0000
