data_image0
_chemical_formula_structural       K2Cu2H48C24Br4O12
_chemical_formula_sum              "K2 Cu2 H48 C24 Br4 O12"
_cell_length_a       8.00322
_cell_length_b       8.73699
_cell_length_c       13.8041
_cell_angle_alpha    103.228
_cell_angle_beta     89.9997
_cell_angle_gamma    89.9999

_space_group_name_H-M_alt    "P 1"
_space_group_IT_number       1

loop_
  _space_group_symop_operation_xyz
  'x, y, z'

loop_
  _atom_site_type_symbol
  _atom_site_label
  _atom_site_symmetry_multiplicity
  _atom_site_fract_x
  _atom_site_fract_y
  _atom_site_fract_z
  _atom_site_occupancy
  K   K1        1.0  0.99999  1.00000  1.00000  1.0000
  K   K2        1.0  0.50000  0.50000  0.50000  1.0000
  Cu  Cu1       1.0  0.49999  0.00001  0.00001  1.0000
  Cu  Cu2       1.0  0.00000  0.50000  0.50000  1.0000
  H   H1        1.0  0.92818  0.69528  0.74547  1.0000
  H   H2        1.0  0.42818  0.80472  0.75453  1.0000
  H   H3        1.0  0.07182  0.30472  0.25453  1.0000
  H   H4        1.0  0.57182  0.19528  0.24547  1.0000
  H   H5        1.0  0.13359  0.66169  0.69432  1.0000
  H   H6        1.0  0.63359  0.83831  0.80568  1.0000
  H   H7        1.0  0.86642  0.33831  0.30568  1.0000
  H   H8        1.0  0.36641  0.16169  0.19432  1.0000
  H   H9        1.0  0.18670  0.95496  0.74600  1.0000
  H   H10       1.0  0.68670  0.54505  0.75400  1.0000
  H   H11       1.0  0.81330  0.04504  0.25400  1.0000
  H   H12       1.0  0.31330  0.45496  0.24600  1.0000
  H   H13       1.0  0.02956  0.89648  0.65230  1.0000
  H   H14       1.0  0.52956  0.60352  0.84770  1.0000
  H   H15       1.0  0.97044  0.10352  0.34770  1.0000
  H   H16       1.0  0.47045  0.39648  0.15230  1.0000
  H   H17       1.0  0.90614  0.16149  0.70482  1.0000
  H   H18       1.0  0.40614  0.33851  0.79518  1.0000
  H   H19       1.0  0.09386  0.83851  0.29518  1.0000
  H   H20       1.0  0.59387  0.66149  0.20482  1.0000
  H   H21       1.0  0.07072  0.20839  0.79427  1.0000
  H   H22       1.0  0.57072  0.29161  0.70573  1.0000
  H   H23       1.0  0.92929  0.79161  0.20573  1.0000
  H   H24       1.0  0.42929  0.70838  0.29427  1.0000
  H   H25       1.0  0.80419  0.37088  0.83409  1.0000
  H   H26       1.0  0.30418  0.12912  0.66591  1.0000
  H   H27       1.0  0.19581  0.62911  0.16591  1.0000
  H   H28       1.0  0.69582  0.87088  0.33409  1.0000
  H   H29       1.0  0.70177  0.19880  0.85367  1.0000
  H   H30       1.0  0.20177  0.30121  0.64634  1.0000
  H   H31       1.0  0.29823  0.80120  0.14633  1.0000
  H   H32       1.0  0.79823  0.69879  0.35367  1.0000
  H   H33       1.0  0.67000  0.33275  0.02620  1.0000
  H   H34       1.0  0.17000  0.16725  0.47381  1.0000
  H   H35       1.0  0.33000  0.66725  0.97380  1.0000
  H   H36       1.0  0.83000  0.83275  0.52620  1.0000
  H   H37       1.0  0.78486  0.50066  0.00901  1.0000
  H   H38       1.0  0.28486  0.99934  0.49099  1.0000
  H   H39       1.0  0.21514  0.49934  0.99099  1.0000
  H   H40       1.0  0.71514  0.00066  0.50901  1.0000
  H   H41       1.0  0.01064  0.43812  0.12168  1.0000
  H   H42       1.0  0.51063  0.06189  0.37832  1.0000
  H   H43       1.0  0.98937  0.56189  0.87832  1.0000
  H   H44       1.0  0.48936  0.93812  0.62168  1.0000
  H   H45       1.0  0.81297  0.48767  0.18148  1.0000
  H   H46       1.0  0.31296  0.01233  0.31852  1.0000
  H   H47       1.0  0.18704  0.51233  0.81852  1.0000
  H   H48       1.0  0.68703  0.98767  0.68148  1.0000
  C   C1        1.0  0.05729  0.74145  0.75111  1.0000
  C   C2        1.0  0.55729  0.75855  0.74889  1.0000
  C   C3        1.0  0.94272  0.25855  0.24889  1.0000
  C   C4        1.0  0.44271  0.24145  0.25111  1.0000
  C   C5        1.0  0.06013  0.90391  0.73128  1.0000
  C   C6        1.0  0.56013  0.59609  0.76872  1.0000
  C   C7        1.0  0.93987  0.09609  0.26872  1.0000
  C   C8        1.0  0.43987  0.40391  0.23128  1.0000
  C   C9        1.0  0.94331  0.15892  0.78152  1.0000
  C   C10       1.0  0.44332  0.34108  0.71848  1.0000
  C   C11       1.0  0.05669  0.84108  0.21848  1.0000
  C   C12       1.0  0.55669  0.65891  0.28152  1.0000
  C   C13       1.0  0.82464  0.25732  0.85480  1.0000
  C   C14       1.0  0.32464  0.24268  0.64520  1.0000
  C   C15       1.0  0.17536  0.74267  0.14520  1.0000
  C   C16       1.0  0.67536  0.75732  0.35480  1.0000
  C   C17       1.0  0.79660  0.38317  0.02552  1.0000
  C   C18       1.0  0.29660  0.11683  0.47448  1.0000
  C   C19       1.0  0.20340  0.61683  0.97448  1.0000
  C   C20       1.0  0.70340  0.88317  0.52552  1.0000
  C   C21       1.0  0.87984  0.39896  0.12512  1.0000
  C   C22       1.0  0.37983  0.10104  0.37488  1.0000
  C   C23       1.0  0.12017  0.60104  0.87488  1.0000
  C   C24       1.0  0.62016  0.89896  0.62512  1.0000
  Br  Br1       1.0  0.34703  0.18381  0.95233  1.0000
  Br  Br2       1.0  0.84702  0.31620  0.54768  1.0000
  Br  Br3       1.0  0.65296  0.81620  0.04769  1.0000
  Br  Br4       1.0  0.15298  0.68380  0.45233  1.0000
  O   O1        1.0  0.12409  0.74966  0.84829  1.0000
  O   O2        1.0  0.62408  0.75034  0.65171  1.0000
  O   O3        1.0  0.87592  0.25034  0.15171  1.0000
  O   O4        1.0  0.37591  0.24966  0.34829  1.0000
  O   O5        1.0  0.94220  0.00139  0.79517  1.0000
  O   O6        1.0  0.44220  0.49861  0.70483  1.0000
  O   O7        1.0  0.05780  0.99860  0.20483  1.0000
  O   O8        1.0  0.55780  0.50139  0.29517  1.0000
  O   O9        1.0  0.89693  0.28252  0.95161  1.0000
  O   O10       1.0  0.39693  0.21748  0.54839  1.0000
  O   O11       1.0  0.10307  0.71748  0.04839  1.0000
  O   O12       1.0  0.60307  0.78252  0.45161  1.0000
