data_image0
_chemical_formula_structural       Cu2H8C12N8Cl4
_chemical_formula_sum              "Cu2 H8 C12 N8 Cl4"
_cell_length_a       7.68612
_cell_length_b       8.83016
_cell_length_c       8.83016
_cell_angle_alpha    62.1858
_cell_angle_beta     64.1896
_cell_angle_gamma    64.1896

_space_group_name_H-M_alt    "P 1"
_space_group_IT_number       1

loop_
  _space_group_symop_operation_xyz
  'x, y, z'

loop_
  _atom_site_type_symbol
  _atom_site_label
  _atom_site_symmetry_multiplicity
  _atom_site_fract_x
  _atom_site_fract_y
  _atom_site_fract_z
  _atom_site_occupancy
  Cu  Cu1       1.0  0.25000  0.50002  0.49998  1.0000
  Cu  Cu2       1.0  0.75000  0.49998  0.50002  1.0000
  H   H1        1.0  0.16199  0.33642  0.90403  1.0000
  H   H2        1.0  0.40242  0.66379  0.09594  1.0000
  H   H3        1.0  0.33800  0.09597  0.66358  1.0000
  H   H4        1.0  0.09758  0.90406  0.33621  1.0000
  H   H5        1.0  0.83801  0.66358  0.09596  1.0000
  H   H6        1.0  0.59758  0.33621  0.90406  1.0000
  H   H7        1.0  0.66199  0.90403  0.33642  1.0000
  H   H8        1.0  0.90241  0.09594  0.66380  1.0000
  C   C1        1.0  0.03581  0.34680  0.87139  1.0000
  C   C2        1.0  0.25404  0.65332  0.12856  1.0000
  C   C3        1.0  0.46419  0.12861  0.65320  1.0000
  C   C4        1.0  0.24596  0.87144  0.34668  1.0000
  C   C5        1.0  0.96420  0.65320  0.12861  1.0000
  C   C6        1.0  0.74596  0.34668  0.87144  1.0000
  C   C7        1.0  0.53581  0.87139  0.34680  1.0000
  C   C8        1.0  0.75404  0.12856  0.65332  1.0000
  C   C9        1.0  0.85195  0.31186  0.98418  1.0000
  C   C10       1.0  0.14806  0.68814  0.01582  1.0000
  C   C11       1.0  0.64805  0.01582  0.68814  1.0000
  C   C12       1.0  0.35194  0.98418  0.31186  1.0000
  N   N1        1.0  0.03688  0.40128  0.70000  1.0000
  N   N2        1.0  0.13817  0.59879  0.29999  1.0000
  N   N3        1.0  0.46312  0.30000  0.59872  1.0000
  N   N4        1.0  0.36183  0.70001  0.40121  1.0000
  N   N5        1.0  0.96312  0.59872  0.30000  1.0000
  N   N6        1.0  0.86184  0.40121  0.70001  1.0000
  N   N7        1.0  0.53688  0.70000  0.40128  1.0000
  N   N8        1.0  0.63816  0.29999  0.59879  1.0000
  Cl  Cl1       1.0  0.77221  0.24259  0.21293  1.0000
  Cl  Cl2       1.0  0.22779  0.75741  0.78707  1.0000
  Cl  Cl3       1.0  0.72779  0.78707  0.75741  1.0000
  Cl  Cl4       1.0  0.27221  0.21293  0.24259  1.0000
