data_image0
_chemical_formula_structural       Ni2H26C36N6O14
_chemical_formula_sum              "Ni2 H26 C36 N6 O14"
_cell_length_a       8.55271
_cell_length_b       10.8867
_cell_length_c       11.368
_cell_angle_alpha    107.301
_cell_angle_beta     107.828
_cell_angle_gamma    108.038

_space_group_name_H-M_alt    "P 1"
_space_group_IT_number       1

loop_
  _space_group_symop_operation_xyz
  'x, y, z'

loop_
  _atom_site_type_symbol
  _atom_site_label
  _atom_site_symmetry_multiplicity
  _atom_site_fract_x
  _atom_site_fract_y
  _atom_site_fract_z
  _atom_site_occupancy
  Ni  Ni1       1.0  0.67243  0.96394  0.35263  1.0000
  Ni  Ni2       1.0  0.32611  0.04337  0.65154  1.0000
  H   H1        1.0  0.68881  0.51880  0.79126  1.0000
  H   H2        1.0  0.32987  0.48011  0.20090  1.0000
  H   H3        1.0  0.90576  0.55519  0.68376  1.0000
  H   H4        1.0  0.10206  0.44841  0.29974  1.0000
  H   H5        1.0  0.89108  0.69276  0.54545  1.0000
  H   H6        1.0  0.10468  0.31354  0.44128  1.0000
  H   H7        1.0  0.62036  0.05028  0.12104  1.0000
  H   H8        1.0  0.38510  0.94790  0.87775  1.0000
  H   H9        1.0  0.75002  0.05864  0.95502  1.0000
  H   H10       1.0  0.25104  0.93364  0.04124  1.0000
  H   H11       1.0  0.13246  0.92599  0.16788  1.0000
  H   H12       1.0  0.87381  0.07323  0.83374  1.0000
  H   H13       1.0  0.97433  0.90850  0.31355  1.0000
  H   H14       1.0  0.03539  0.09608  0.69102  1.0000
  H   H15       1.0  0.51970  0.70188  0.07549  1.0000
  H   H16       1.0  0.46806  0.29771  0.92010  1.0000
  H   H17       1.0  0.22292  0.49783  0.91735  1.0000
  H   H18       1.0  0.76652  0.50032  0.07658  1.0000
  H   H19       1.0  0.01137  0.66170  0.19954  1.0000
  H   H20       1.0  0.97662  0.32548  0.79826  1.0000
  H   H21       1.0  0.31705  0.86484  0.34138  1.0000
  H   H22       1.0  0.66925  0.12481  0.65719  1.0000
  H   H23       1.0  0.01226  0.17122  0.53263  1.0000
  H   H24       1.0  0.99123  0.84685  0.48269  1.0000
  H   H25       1.0  0.84316  0.21737  0.51753  1.0000
  H   H26       1.0  0.16084  0.79220  0.49922  1.0000
  C   C1        1.0  0.67772  0.74009  0.57875  1.0000
  C   C2        1.0  0.31585  0.25926  0.41373  1.0000
  C   C3        1.0  0.55383  0.71975  0.63792  1.0000
  C   C4        1.0  0.44007  0.27164  0.35492  1.0000
  C   C5        1.0  0.56391  0.63848  0.71333  1.0000
  C   C6        1.0  0.43995  0.35418  0.28038  1.0000
  C   C7        1.0  0.68987  0.58088  0.73204  1.0000
  C   C8        1.0  0.31991  0.41663  0.25854  1.0000
  C   C9        1.0  0.80961  0.60179  0.67287  1.0000
  C   C10       1.0  0.19461  0.39871  0.31317  1.0000
  C   C11       1.0  0.80077  0.67935  0.59515  1.0000
  C   C12       1.0  0.19622  0.32275  0.39234  1.0000
  C   C13       1.0  0.68239  0.82766  0.49916  1.0000
  C   C14       1.0  0.30829  0.18553  0.50590  1.0000
  C   C15       1.0  0.41786  0.78315  0.61878  1.0000
  C   C16       1.0  0.58013  0.21311  0.38572  1.0000
  C   C17       1.0  0.73069  0.01946  0.12415  1.0000
  C   C18       1.0  0.27547  0.97915  0.87612  1.0000
  C   C19       1.0  0.80822  0.02710  0.03390  1.0000
  C   C20       1.0  0.19542  0.96859  0.96456  1.0000
  C   C21       1.0  0.95644  0.99298  0.04504  1.0000
  C   C22       1.0  0.04777  0.00326  0.95435  1.0000
  C   C23       1.0  0.01567  0.95036  0.14884  1.0000
  C   C24       1.0  0.99019  0.04835  0.85219  1.0000
  C   C25       1.0  0.92852  0.94181  0.23304  1.0000
  C   C26       1.0  0.07924  0.06006  0.76970  1.0000
  C   C27       1.0  0.40281  0.69017  0.09851  1.0000
  C   C28       1.0  0.58526  0.30682  0.89821  1.0000
  C   C29       1.0  0.23365  0.57352  0.01032  1.0000
  C   C30       1.0  0.75532  0.42222  0.98503  1.0000
  C   C31       1.0  0.08519  0.55792  0.04286  1.0000
  C   C32       1.0  0.90390  0.43461  0.95335  1.0000
  C   C33       1.0  0.11762  0.66519  0.16526  1.0000
  C   C34       1.0  0.87059  0.32494  0.83226  1.0000
  C   C35       1.0  0.28944  0.77986  0.24690  1.0000
  C   C36       1.0  0.69783  0.21154  0.75078  1.0000
  N   N1        1.0  0.44001  0.60945  0.77707  1.0000
  N   N2        1.0  0.57522  0.38551  0.22649  1.0000
  N   N3        1.0  0.78817  0.97667  0.22243  1.0000
  N   N4        1.0  0.22022  0.02570  0.78048  1.0000
  N   N5        1.0  0.43126  0.79234  0.21473  1.0000
  N   N6        1.0  0.55605  0.20269  0.78290  1.0000
  O   O1        1.0  0.77514  0.82587  0.42851  1.0000
  O   O2        1.0  0.22669  0.21024  0.58005  1.0000
  O   O3        1.0  0.59632  0.90362  0.50055  1.0000
  O   O4        1.0  0.38336  0.10062  0.50905  1.0000
  O   O5        1.0  0.47420  0.90920  0.70731  1.0000
  O   O6        1.0  0.53118  0.08300  0.30792  1.0000
  O   O7        1.0  0.26346  0.70546  0.51517  1.0000
  O   O8        1.0  0.73117  0.30020  0.48829  1.0000
  O   O9        1.0  0.32999  0.66261  0.76835  1.0000
  O   O10       1.0  0.65748  0.30985  0.21426  1.0000
  O   O11       1.0  0.45227  0.53264  0.83867  1.0000
  O   O12       1.0  0.60101  0.48850  0.19571  1.0000
  O   O13       1.0  0.88472  0.14005  0.52358  1.0000
  O   O14       1.0  0.11952  0.87233  0.49460  1.0000
