data_image0
_chemical_formula_structural       In2H14C20O16
_chemical_formula_sum              "In2 H14 C20 O16"
_cell_length_a       7.44632
_cell_length_b       8.52598
_cell_length_c       9.85801
_cell_angle_alpha    113.859
_cell_angle_beta     92.2578
_cell_angle_gamma    109.726

_space_group_name_H-M_alt    "P 1"
_space_group_IT_number       1

loop_
  _space_group_symop_operation_xyz
  'x, y, z'

loop_
  _atom_site_type_symbol
  _atom_site_label
  _atom_site_symmetry_multiplicity
  _atom_site_fract_x
  _atom_site_fract_y
  _atom_site_fract_z
  _atom_site_occupancy
  In  In1       1.0  0.45898  0.71580  0.38572  1.0000
  In  In2       1.0  0.54101  0.28415  0.61425  1.0000
  H   H1        1.0  0.53614  0.74886  0.07719  1.0000
  H   H2        1.0  0.46385  0.25116  0.92282  1.0000
  H   H3        1.0  0.84474  0.94855  0.78261  1.0000
  H   H4        1.0  0.15528  0.05145  0.21740  1.0000
  H   H5        1.0  0.86145  0.33852  0.23510  1.0000
  H   H6        1.0  0.13855  0.66150  0.76490  1.0000
  H   H7        1.0  0.09640  0.17429  0.80939  1.0000
  H   H8        1.0  0.90361  0.82571  0.19061  1.0000
  H   H9        1.0  0.19496  0.42041  0.89512  1.0000
  H   H10       1.0  0.80505  0.57958  0.10487  1.0000
  H   H11       1.0  0.83841  0.71973  0.43591  1.0000
  H   H12       1.0  0.16159  0.28027  0.56410  1.0000
  H   H13       1.0  0.72637  0.69247  0.56844  1.0000
  H   H14       1.0  0.27363  0.30754  0.43156  1.0000
  C   C1        1.0  0.69302  0.04798  0.17214  1.0000
  C   C2        1.0  0.30699  0.95204  0.82788  1.0000
  C   C3        1.0  0.62795  0.86500  0.05853  1.0000
  C   C4        1.0  0.37205  0.13501  0.94147  1.0000
  C   C5        1.0  0.68238  0.83170  0.91871  1.0000
  C   C6        1.0  0.31762  0.16830  0.08130  1.0000
  C   C7        1.0  0.80221  0.97870  0.89167  1.0000
  C   C8        1.0  0.19777  0.02130  0.10832  1.0000
  C   C9        1.0  0.86665  0.16061  0.00648  1.0000
  C   C10       1.0  0.13336  0.83940  0.99352  1.0000
  C   C11       1.0  0.80906  0.19598  0.14613  1.0000
  C   C12       1.0  0.19095  0.80402  0.85387  1.0000
  C   C13       1.0  0.64435  0.08418  0.32410  1.0000
  C   C14       1.0  0.35566  0.91582  0.67590  1.0000
  C   C15       1.0  0.62279  0.63631  0.80410  1.0000
  C   C16       1.0  0.37720  0.36367  0.19590  1.0000
  C   C17       1.0  0.05955  0.29768  0.86154  1.0000
  C   C18       1.0  0.94046  0.70232  0.13846  1.0000
  C   C19       1.0  0.92093  0.29596  0.74288  1.0000
  C   C20       1.0  0.07908  0.70404  0.25712  1.0000
  O   O1        1.0  0.64152  0.97265  0.37980  1.0000
  O   O2        1.0  0.35845  0.02735  0.62020  1.0000
  O   O3        1.0  0.73865  0.75164  0.49781  1.0000
  O   O4        1.0  0.26135  0.24836  0.50218  1.0000
  O   O5        1.0  0.61393  0.23312  0.39542  1.0000
  O   O6        1.0  0.38607  0.76690  0.60458  1.0000
  O   O7        1.0  0.50623  0.50398  0.82661  1.0000
  O   O8        1.0  0.49376  0.49600  0.17339  1.0000
  O   O9        1.0  0.69420  0.59514  0.68268  1.0000
  O   O10       1.0  0.30579  0.40483  0.31732  1.0000
  O   O11       1.0  0.99233  0.31390  0.99792  1.0000
  O   O12       1.0  0.00768  0.68610  0.00207  1.0000
  O   O13       1.0  0.74630  0.27242  0.76473  1.0000
  O   O14       1.0  0.25370  0.72757  0.23526  1.0000
  O   O15       1.0  0.98299  0.31835  0.63299  1.0000
  O   O16       1.0  0.01702  0.68165  0.36701  1.0000
