data_image0
_chemical_formula_structural       Mn2H24C16N2O10
_chemical_formula_sum              "Mn2 H24 C16 N2 O10"
_cell_length_a       6.46743
_cell_length_b       7.9812
_cell_length_c       10.3828
_cell_angle_alpha    100.49
_cell_angle_beta     103.113
_cell_angle_gamma    105.349

_space_group_name_H-M_alt    "P 1"
_space_group_IT_number       1

loop_
  _space_group_symop_operation_xyz
  'x, y, z'

loop_
  _atom_site_type_symbol
  _atom_site_label
  _atom_site_symmetry_multiplicity
  _atom_site_fract_x
  _atom_site_fract_y
  _atom_site_fract_z
  _atom_site_occupancy
  Mn  Mn1       1.0  0.89392  0.46973  0.34405  1.0000
  Mn  Mn2       1.0  0.10609  0.53029  0.65596  1.0000
  H   H1        1.0  0.88880  0.04660  0.58952  1.0000
  H   H2        1.0  0.11119  0.95341  0.41048  1.0000
  H   H3        1.0  0.73202  0.94455  0.68913  1.0000
  H   H4        1.0  0.26797  0.05546  0.31087  1.0000
  H   H5        1.0  0.54719  0.01272  0.84372  1.0000
  H   H6        1.0  0.45283  0.98728  0.15628  1.0000
  H   H7        1.0  0.76644  0.17149  0.98700  1.0000
  H   H8        1.0  0.23358  0.82852  0.01301  1.0000
  H   H9        1.0  0.68039  0.23367  0.83177  1.0000
  H   H10       1.0  0.31963  0.76633  0.16823  1.0000
  H   H11       1.0  0.55958  0.89987  0.38029  1.0000
  H   H12       1.0  0.44041  0.10013  0.61971  1.0000
  H   H13       1.0  0.22674  0.42344  0.05420  1.0000
  H   H14       1.0  0.77327  0.57655  0.94579  1.0000
  H   H15       1.0  0.42053  0.49538  0.22208  1.0000
  H   H16       1.0  0.57945  0.50461  0.77791  1.0000
  H   H17       1.0  0.23839  0.27189  0.15825  1.0000
  H   H18       1.0  0.76159  0.72810  0.84174  1.0000
  H   H19       1.0  0.21066  0.04127  0.77661  1.0000
  H   H20       1.0  0.78936  0.95873  0.22338  1.0000
  H   H21       1.0  0.15713  0.24433  0.83782  1.0000
  H   H22       1.0  0.84288  0.75566  0.16217  1.0000
  H   H23       1.0  0.11449  0.06738  0.92303  1.0000
  H   H24       1.0  0.88551  0.93261  0.07696  1.0000
  C   C1        1.0  0.75237  0.92757  0.58619  1.0000
  C   C2        1.0  0.24760  0.07245  0.41381  1.0000
  C   C3        1.0  0.34554  0.75011  0.47698  1.0000
  C   C4        1.0  0.65445  0.24989  0.52303  1.0000
  C   C5        1.0  0.62253  0.15461  0.90072  1.0000
  C   C6        1.0  0.37749  0.84538  0.09928  1.0000
  C   C7        1.0  0.51726  0.33408  0.07397  1.0000
  C   C8        1.0  0.48274  0.66591  0.92602  1.0000
  C   C9        1.0  0.53605  0.91495  0.48258  1.0000
  C   C10       1.0  0.46394  0.08506  0.51742  1.0000
  C   C11       1.0  0.83150  0.76591  0.55566  1.0000
  C   C12       1.0  0.16849  0.23410  0.44434  1.0000
  C   C13       1.0  0.34136  0.38448  0.12955  1.0000
  C   C14       1.0  0.65863  0.61550  0.87044  1.0000
  C   C15       1.0  0.22111  0.13877  0.86847  1.0000
  C   C16       1.0  0.77890  0.86122  0.13152  1.0000
  N   N1        1.0  0.45445  0.21297  0.95285  1.0000
  N   N2        1.0  0.54556  0.78702  0.04715  1.0000
  O   O1        1.0  0.79120  0.68453  0.43049  1.0000
  O   O2        1.0  0.20877  0.31547  0.56951  1.0000
  O   O3        1.0  0.72490  0.40284  0.13877  1.0000
  O   O4        1.0  0.27509  0.59715  0.86122  1.0000
  O   O5        1.0  0.20243  0.66608  0.36114  1.0000
  O   O6        1.0  0.79757  0.33393  0.63887  1.0000
  O   O7        1.0  0.94018  0.72671  0.65806  1.0000
  O   O8        1.0  0.05984  0.27331  0.34194  1.0000
  O   O9        1.0  0.33951  0.71186  0.59007  1.0000
  O   O10       1.0  0.66049  0.28816  0.40994  1.0000
