data_image0
_chemical_formula_structural       Co2H14C14N2O12
_chemical_formula_sum              "Co2 H14 C14 N2 O12"
_cell_length_a       7.39069
_cell_length_b       7.74429
_cell_length_c       7.74427
_cell_angle_alpha    100.909
_cell_angle_beta     100.126
_cell_angle_gamma    100.126

_space_group_name_H-M_alt    "P 1"
_space_group_IT_number       1

loop_
  _space_group_symop_operation_xyz
  'x, y, z'

loop_
  _atom_site_type_symbol
  _atom_site_label
  _atom_site_symmetry_multiplicity
  _atom_site_fract_x
  _atom_site_fract_y
  _atom_site_fract_z
  _atom_site_occupancy
  Co  Co1       1.0  0.75000  0.33465  0.66535  1.0000
  Co  Co2       1.0  0.25000  0.66535  0.33466  1.0000
  H   H1        1.0  0.78206  0.94549  0.65129  1.0000
  H   H2        1.0  0.71794  0.34871  0.05450  1.0000
  H   H3        1.0  0.21795  0.05451  0.34872  1.0000
  H   H4        1.0  0.28205  0.65129  0.94549  1.0000
  H   H5        1.0  0.74999  0.82972  0.17028  1.0000
  H   H6        1.0  0.25000  0.17028  0.82972  1.0000
  H   H7        1.0  0.39257  0.32741  0.53393  1.0000
  H   H8        1.0  0.10743  0.46607  0.67259  1.0000
  H   H9        1.0  0.60743  0.67260  0.46608  1.0000
  H   H10       1.0  0.89256  0.53392  0.32741  1.0000
  H   H11       1.0  0.40674  0.15473  0.61468  1.0000
  H   H12       1.0  0.09326  0.38532  0.84527  1.0000
  H   H13       1.0  0.59326  0.84528  0.38533  1.0000
  H   H14       1.0  0.90674  0.61467  0.15473  1.0000
  C   C1        1.0  0.76497  0.98439  0.78878  1.0000
  C   C2        1.0  0.73503  0.21122  0.01561  1.0000
  C   C3        1.0  0.23503  0.01561  0.21122  1.0000
  C   C4        1.0  0.26497  0.78878  0.98439  1.0000
  C   C5        1.0  0.76003  0.86136  0.89959  1.0000
  C   C6        1.0  0.73997  0.10041  0.13863  1.0000
  C   C7        1.0  0.23998  0.13863  0.10041  1.0000
  C   C8        1.0  0.26002  0.89959  0.86137  1.0000
  C   C9        1.0  0.75000  0.92102  0.07897  1.0000
  C   C10       1.0  0.25000  0.07898  0.92102  1.0000
  C   C11       1.0  0.76359  0.67032  0.82351  1.0000
  C   C12       1.0  0.73640  0.17649  0.32967  1.0000
  C   C13       1.0  0.23642  0.32967  0.17649  1.0000
  C   C14       1.0  0.26359  0.82351  0.67032  1.0000
  N   N1        1.0  0.75000  0.15570  0.84430  1.0000
  N   N2        1.0  0.25000  0.84430  0.15570  1.0000
  O   O1        1.0  0.72001  0.60902  0.65333  1.0000
  O   O2        1.0  0.77999  0.34667  0.39098  1.0000
  O   O3        1.0  0.28002  0.39099  0.34668  1.0000
  O   O4        1.0  0.22000  0.65332  0.60902  1.0000
  O   O5        1.0  0.80883  0.56790  0.92683  1.0000
  O   O6        1.0  0.69117  0.07318  0.43210  1.0000
  O   O7        1.0  0.19118  0.43210  0.07318  1.0000
  O   O8        1.0  0.30881  0.92681  0.56789  1.0000
  O   O9        1.0  0.45809  0.28658  0.63723  1.0000
  O   O10       1.0  0.04191  0.36277  0.71342  1.0000
  O   O11       1.0  0.54191  0.71343  0.36277  1.0000
  O   O12       1.0  0.95809  0.63723  0.28658  1.0000
