data_image0
_chemical_formula_structural       Cu2H22C16S2N6O12
_chemical_formula_sum              "Cu2 H22 C16 S2 N6 O12"
_cell_length_a       6.2288
_cell_length_b       6.87813
_cell_length_c       13.494
_cell_angle_alpha    90.0001
_cell_angle_beta     89.3407
_cell_angle_gamma    90.0001

_space_group_name_H-M_alt    "P 1"
_space_group_IT_number       1

loop_
  _space_group_symop_operation_xyz
  'x, y, z'

loop_
  _atom_site_type_symbol
  _atom_site_label
  _atom_site_symmetry_multiplicity
  _atom_site_fract_x
  _atom_site_fract_y
  _atom_site_fract_z
  _atom_site_occupancy
  Cu  Cu1       1.0  0.01014  0.81276  0.00002  1.0000
  Cu  Cu2       1.0  0.98987  0.31275  0.99998  1.0000
  H   H1        1.0  0.79255  0.05139  0.08450  1.0000
  H   H2        1.0  0.20743  0.55141  0.91549  1.0000
  H   H3        1.0  0.38699  0.77712  0.14361  1.0000
  H   H4        1.0  0.61300  0.27711  0.85639  1.0000
  H   H5        1.0  0.38606  0.58167  0.07993  1.0000
  H   H6        1.0  0.61394  0.08166  0.92007  1.0000
  H   H7        1.0  0.64977  0.76792  0.86904  1.0000
  H   H8        1.0  0.35023  0.26793  0.13097  1.0000
  H   H9        1.0  0.54971  0.79049  0.98233  1.0000
  H   H10       1.0  0.45028  0.29049  0.01767  1.0000
  H   H11       1.0  0.91043  0.87069  0.23783  1.0000
  H   H12       1.0  0.08956  0.37067  0.76217  1.0000
  H   H13       1.0  0.80483  0.26220  0.23089  1.0000
  H   H14       1.0  0.19517  0.76219  0.76911  1.0000
  H   H15       1.0  0.47106  0.44986  0.33973  1.0000
  H   H16       1.0  0.52894  0.94985  0.66026  1.0000
  H   H17       1.0  0.36407  0.43433  0.51869  1.0000
  H   H18       1.0  0.63594  0.93434  0.48131  1.0000
  H   H19       1.0  0.98318  0.65853  0.60024  1.0000
  H   H20       1.0  0.01682  0.15853  0.39976  1.0000
  H   H21       1.0  0.09028  0.67616  0.42093  1.0000
  H   H22       1.0  0.90972  0.17615  0.57908  1.0000
  C   C1        1.0  0.89949  0.72264  0.21158  1.0000
  C   C2        1.0  0.10051  0.22265  0.78841  1.0000
  C   C3        1.0  0.84343  0.40899  0.20678  1.0000
  C   C4        1.0  0.15657  0.90900  0.79323  1.0000
  C   C5        1.0  0.78620  0.56265  0.37169  1.0000
  C   C6        1.0  0.21379  0.06265  0.62831  1.0000
  C   C7        1.0  0.58224  0.49397  0.39721  1.0000
  C   C8        1.0  0.41777  0.99397  0.60279  1.0000
  C   C9        1.0  0.52333  0.48439  0.49671  1.0000
  C   C10       1.0  0.47666  0.98439  0.50328  1.0000
  C   C11       1.0  0.66787  0.54335  0.56907  1.0000
  C   C12       1.0  0.33213  0.04335  0.43092  1.0000
  C   C13       1.0  0.87194  0.61280  0.54312  1.0000
  C   C14       1.0  0.12806  0.11280  0.45688  1.0000
  C   C15       1.0  0.93214  0.62302  0.44321  1.0000
  C   C16       1.0  0.06787  0.12301  0.55679  1.0000
  S   S1        1.0  0.58442  0.52760  0.69585  1.0000
  S   S2        1.0  0.41558  0.02761  0.30415  1.0000
  N   N1        1.0  0.92865  0.66329  0.11960  1.0000
  N   N2        1.0  0.07135  0.16329  0.88040  1.0000
  N   N3        1.0  0.89513  0.46703  0.11656  1.0000
  N   N4        1.0  0.10489  0.96702  0.88344  1.0000
  N   N5        1.0  0.84418  0.56627  0.26866  1.0000
  N   N6        1.0  0.15582  0.06627  0.73134  1.0000
  O   O1        1.0  0.34951  0.54903  0.69539  1.0000
  O   O2        1.0  0.65048  0.04904  0.30461  1.0000
  O   O3        1.0  0.65359  0.33347  0.72927  1.0000
  O   O4        1.0  0.34642  0.83347  0.27073  1.0000
  O   O5        1.0  0.69502  0.68770  0.74656  1.0000
  O   O6        1.0  0.30498  0.18770  0.25344  1.0000
  O   O7        1.0  0.94539  0.06122  0.06868  1.0000
  O   O8        1.0  0.05460  0.56122  0.93132  1.0000
  O   O9        1.0  0.39972  0.72707  0.07509  1.0000
  O   O10       1.0  0.60028  0.22707  0.92491  1.0000
  O   O11       1.0  0.64869  0.84651  0.93036  1.0000
  O   O12       1.0  0.35130  0.34652  0.06964  1.0000
