data_image0
_chemical_formula_structural       Cu2H12C8S2N6Cl2O6
_chemical_formula_sum              "Cu2 H12 C8 S2 N6 Cl2 O6"
_cell_length_a       5.84657
_cell_length_b       7.29581
_cell_length_c       9.76898
_cell_angle_alpha    93.3788
_cell_angle_beta     107.554
_cell_angle_gamma    90.3544

_space_group_name_H-M_alt    "P 1"
_space_group_IT_number       1

loop_
  _space_group_symop_operation_xyz
  'x, y, z'

loop_
  _atom_site_type_symbol
  _atom_site_label
  _atom_site_symmetry_multiplicity
  _atom_site_fract_x
  _atom_site_fract_y
  _atom_site_fract_z
  _atom_site_occupancy
  Cu  Cu1       1.0  0.50000  0.00001  0.50000  1.0000
  Cu  Cu2       1.0  0.49999  0.50000  0.50000  1.0000
  H   H1        1.0  0.99166  0.01756  0.25227  1.0000
  H   H2        1.0  0.00833  0.98244  0.74773  1.0000
  H   H3        1.0  0.99484  0.43753  0.25467  1.0000
  H   H4        1.0  0.00516  0.56247  0.74533  1.0000
  H   H5        1.0  0.55771  0.75280  0.13445  1.0000
  H   H6        1.0  0.44230  0.24720  0.86555  1.0000
  H   H7        1.0  0.67662  0.55882  0.06252  1.0000
  H   H8        1.0  0.32338  0.44118  0.93748  1.0000
  H   H9        1.0  0.87151  0.77769  0.93132  1.0000
  H   H10       1.0  0.12850  0.22229  0.06867  1.0000
  H   H11       1.0  0.72913  0.96426  0.99829  1.0000
  H   H12       1.0  0.27089  0.03574  0.00171  1.0000
  C   C1        1.0  0.04657  0.87939  0.28043  1.0000
  C   C2        1.0  0.95343  0.12062  0.71957  1.0000
  C   C3        1.0  0.04884  0.58092  0.28262  1.0000
  C   C4        1.0  0.95116  0.41908  0.71738  1.0000
  C   C5        1.0  0.70376  0.70583  0.09351  1.0000
  C   C6        1.0  0.29624  0.29418  0.90649  1.0000
  C   C7        1.0  0.71795  0.81613  0.96875  1.0000
  C   C8        1.0  0.28206  0.18387  0.03124  1.0000
  S   S1        1.0  0.45233  0.77699  0.81634  1.0000
  S   S2        1.0  0.54768  0.22301  0.18366  1.0000
  N   N1        1.0  0.23626  0.83465  0.38555  1.0000
  N   N2        1.0  0.76374  0.16535  0.61446  1.0000
  N   N3        1.0  0.23718  0.64670  0.38729  1.0000
  N   N4        1.0  0.76282  0.35330  0.61270  1.0000
  N   N5        1.0  0.92732  0.72282  0.21313  1.0000
  N   N6        1.0  0.07267  0.27718  0.78688  1.0000
  Cl  Cl1       1.0  0.75897  0.75136  0.51419  1.0000
  Cl  Cl2       1.0  0.24104  0.24865  0.48581  1.0000
  O   O1        1.0  0.44566  0.93557  0.72932  1.0000
  O   O2        1.0  0.55434  0.06442  0.27068  1.0000
  O   O3        1.0  0.24806  0.77229  0.87644  1.0000
  O   O4        1.0  0.75194  0.22770  0.12356  1.0000
  O   O5        1.0  0.48167  0.59941  0.74534  1.0000
  O   O6        1.0  0.51833  0.40058  0.25466  1.0000
