data_image0
_chemical_formula_structural       Cu2H34C26N10O4
_chemical_formula_sum              "Cu2 H34 C26 N10 O4"
_cell_length_a       7.11342
_cell_length_b       10.0127
_cell_length_c       10.7573
_cell_angle_alpha    115.34
_cell_angle_beta     90.0004
_cell_angle_gamma    89.9995

_space_group_name_H-M_alt    "P 1"
_space_group_IT_number       1

loop_
  _space_group_symop_operation_xyz
  'x, y, z'

loop_
  _atom_site_type_symbol
  _atom_site_label
  _atom_site_symmetry_multiplicity
  _atom_site_fract_x
  _atom_site_fract_y
  _atom_site_fract_z
  _atom_site_occupancy
  Cu  Cu1       1.0  0.15447  0.24751  0.45144  1.0000
  Cu  Cu2       1.0  0.65447  0.75248  0.54856  1.0000
  H   H1        1.0  0.68383  0.39520  0.75505  1.0000
  H   H2        1.0  0.18384  0.60480  0.24494  1.0000
  H   H3        1.0  0.69338  0.43192  0.99678  1.0000
  H   H4        1.0  0.19339  0.56807  0.00321  1.0000
  H   H5        1.0  0.97464  0.35354  0.08982  1.0000
  H   H6        1.0  0.47465  0.64645  0.91018  1.0000
  H   H7        1.0  0.24864  0.24382  0.93599  1.0000
  H   H8        1.0  0.74865  0.75618  0.06401  1.0000
  H   H9        1.0  0.40395  0.16571  0.73252  1.0000
  H   H10       1.0  0.90395  0.83430  0.26749  1.0000
  H   H11       1.0  0.46641  0.98928  0.41812  1.0000
  H   H12       1.0  0.96641  0.01072  0.58188  1.0000
  H   H13       1.0  0.60558  0.11839  0.55320  1.0000
  H   H14       1.0  0.10557  0.88162  0.44681  1.0000
  H   H15       1.0  0.59047  0.29825  0.45729  1.0000
  H   H16       1.0  0.09048  0.70176  0.54272  1.0000
  H   H17       1.0  0.66339  0.12815  0.32419  1.0000
  H   H18       1.0  0.16340  0.87185  0.67582  1.0000
  H   H19       1.0  0.18462  0.06856  0.16284  1.0000
  H   H20       1.0  0.68462  0.93144  0.83715  1.0000
  H   H21       1.0  0.32902  0.96494  0.22443  1.0000
  H   H22       1.0  0.82902  0.03506  0.77557  1.0000
  H   H23       1.0  0.60361  0.99527  0.09505  1.0000
  H   H24       1.0  0.10361  0.00474  0.90495  1.0000
  H   H25       1.0  0.40929  0.92136  0.98230  1.0000
  H   H26       1.0  0.90928  0.07864  0.01770  1.0000
  H   H27       1.0  0.53498  0.35685  0.10668  1.0000
  H   H28       1.0  0.03499  0.64315  0.89332  1.0000
  H   H29       1.0  0.67821  0.25127  0.16813  1.0000
  H   H30       1.0  0.17822  0.74874  0.83188  1.0000
  H   H31       1.0  0.45244  0.41516  0.34981  1.0000
  H   H32       1.0  0.95246  0.58484  0.65019  1.0000
  H   H33       1.0  0.26154  0.33599  0.23428  1.0000
  H   H34       1.0  0.76155  0.66401  0.76571  1.0000
  C   C1        1.0  0.12446  0.25843  0.75926  1.0000
  C   C2        1.0  0.62446  0.74158  0.24074  1.0000
  C   C3        1.0  0.96102  0.29973  0.70412  1.0000
  C   C4        1.0  0.46101  0.70027  0.29588  1.0000
  C   C5        1.0  0.80674  0.36126  0.79517  1.0000
  C   C6        1.0  0.30675  0.63874  0.20483  1.0000
  C   C7        1.0  0.81309  0.38076  0.93047  1.0000
  C   C8        1.0  0.31309  0.61924  0.06952  1.0000
  C   C9        1.0  0.97160  0.33858  0.98335  1.0000
  C   C10       1.0  0.47161  0.66141  0.01665  1.0000
  C   C11       1.0  0.12418  0.27815  0.89765  1.0000
  C   C12       1.0  0.62418  0.72185  0.10235  1.0000
  C   C13       1.0  0.29045  0.19590  0.67960  1.0000
  C   C14       1.0  0.79045  0.80410  0.32040  1.0000
  C   C15       1.0  0.49049  0.10795  0.48115  1.0000
  C   C16       1.0  0.99049  0.89205  0.51885  1.0000
  C   C17       1.0  0.54462  0.18521  0.39157  1.0000
  C   C18       1.0  0.04462  0.81480  0.60844  1.0000
  C   C19       1.0  0.32845  0.05589  0.19300  1.0000
  C   C20       1.0  0.82845  0.94411  0.80700  1.0000
  C   C21       1.0  0.46022  0.01960  0.07082  1.0000
  C   C22       1.0  0.96022  0.98040  0.92919  1.0000
  C   C23       1.0  0.53321  0.26915  0.14193  1.0000
  C   C24       1.0  0.03322  0.73085  0.85807  1.0000
  C   C25       1.0  0.40170  0.31442  0.26433  1.0000
  C   C26       1.0  0.90171  0.68558  0.73567  1.0000
  N   N1        1.0  0.31661  0.17345  0.55299  1.0000
  N   N2        1.0  0.81661  0.82656  0.44700  1.0000
  N   N3        1.0  0.37857  0.19682  0.31256  1.0000
  N   N4        1.0  0.87857  0.80319  0.68744  1.0000
  N   N5        1.0  0.98983  0.28762  0.32351  1.0000
  N   N6        1.0  0.48983  0.71237  0.67649  1.0000
  N   N7        1.0  0.89331  0.39652  0.36647  1.0000
  N   N8        1.0  0.39332  0.60348  0.63353  1.0000
  N   N9        1.0  0.79462  0.49996  0.40089  1.0000
  N   N10       1.0  0.29462  0.50002  0.59911  1.0000
  O   O1        1.0  0.94441  0.28301  0.57729  1.0000
  O   O2        1.0  0.44441  0.71700  0.42270  1.0000
  O   O3        1.0  0.46758  0.13740  0.02899  1.0000
  O   O4        1.0  0.96758  0.86260  0.97101  1.0000
