data_image0
_chemical_formula_structural       Cd2H28C36S2N4O18
_chemical_formula_sum              "Cd2 H28 C36 S2 N4 O18"
_cell_length_a       7.56375
_cell_length_b       9.44827
_cell_length_c       12.7605
_cell_angle_alpha    90
_cell_angle_beta     89.9997
_cell_angle_gamma    100.644

_space_group_name_H-M_alt    "P 1"
_space_group_IT_number       1

loop_
  _space_group_symop_operation_xyz
  'x, y, z'

loop_
  _atom_site_type_symbol
  _atom_site_label
  _atom_site_symmetry_multiplicity
  _atom_site_fract_x
  _atom_site_fract_y
  _atom_site_fract_z
  _atom_site_occupancy
  Cd  Cd1       1.0  0.23037  0.38588  0.63861  1.0000
  Cd  Cd2       1.0  0.76963  0.61412  0.13861  1.0000
  H   H1        1.0  0.34107  0.46966  0.91832  1.0000
  H   H2        1.0  0.65893  0.53034  0.41832  1.0000
  H   H3        1.0  0.32518  0.67329  0.03699  1.0000
  H   H4        1.0  0.67482  0.32670  0.53699  1.0000
  H   H5        1.0  0.20462  0.88869  0.97059  1.0000
  H   H6        1.0  0.79538  0.11131  0.47059  1.0000
  H   H7        1.0  0.95468  0.96458  0.53076  1.0000
  H   H8        1.0  0.04531  0.03542  0.03075  1.0000
  H   H9        1.0  0.94296  0.78475  0.38470  1.0000
  H   H10       1.0  0.05705  0.21526  0.88470  1.0000
  H   H11       1.0  0.06076  0.55708  0.41466  1.0000
  H   H12       1.0  0.93925  0.44292  0.91466  1.0000
  H   H13       1.0  0.63650  0.04255  0.96472  1.0000
  H   H14       1.0  0.36350  0.95746  0.46472  1.0000
  H   H15       1.0  0.56063  0.84211  0.60259  1.0000
  H   H16       1.0  0.43936  0.15789  0.10259  1.0000
  H   H17       1.0  0.48608  0.08337  0.64151  1.0000
  H   H18       1.0  0.51392  0.91663  0.14152  1.0000
  H   H19       1.0  0.72274  0.64091  0.81308  1.0000
  H   H20       1.0  0.27725  0.35908  0.31309  1.0000
  H   H21       1.0  0.57401  0.57284  0.64400  1.0000
  H   H22       1.0  0.42599  0.42716  0.14400  1.0000
  H   H23       1.0  0.48270  0.59016  0.53306  1.0000
  H   H24       1.0  0.51730  0.40984  0.03306  1.0000
  H   H25       1.0  0.96895  0.15605  0.70464  1.0000
  H   H26       1.0  0.03105  0.84395  0.20464  1.0000
  H   H27       1.0  0.85562  0.28343  0.71247  1.0000
  H   H28       1.0  0.14438  0.71657  0.21247  1.0000
  C   C1        1.0  0.28853  0.56227  0.89032  1.0000
  C   C2        1.0  0.71147  0.43773  0.39032  1.0000
  C   C3        1.0  0.27884  0.67829  0.95659  1.0000
  C   C4        1.0  0.72116  0.32171  0.45659  1.0000
  C   C5        1.0  0.21199  0.79783  0.91936  1.0000
  C   C6        1.0  0.78801  0.20217  0.41936  1.0000
  C   C7        1.0  0.15811  0.79406  0.81528  1.0000
  C   C8        1.0  0.84189  0.20594  0.31528  1.0000
  C   C9        1.0  0.08303  0.89594  0.74515  1.0000
  C   C10       1.0  0.91697  0.10405  0.24515  1.0000
  C   C11       1.0  0.05944  0.82461  0.63968  1.0000
  C   C12       1.0  0.94055  0.17539  0.13968  1.0000
  C   C13       1.0  0.99623  0.86159  0.54324  1.0000
  C   C14       1.0  0.00377  0.13841  0.04324  1.0000
  C   C15       1.0  0.99245  0.76152  0.46160  1.0000
  C   C16       1.0  0.00756  0.23848  0.96160  1.0000
  C   C17       1.0  0.05253  0.63201  0.47837  1.0000
  C   C18       1.0  0.94747  0.36799  0.97837  1.0000
  C   C19       1.0  0.11074  0.68984  0.64891  1.0000
  C   C20       1.0  0.88926  0.31015  0.14891  1.0000
  C   C21       1.0  0.17192  0.67155  0.75585  1.0000
  C   C22       1.0  0.82808  0.32844  0.25585  1.0000
  C   C23       1.0  0.56264  0.07858  0.80500  1.0000
  C   C24       1.0  0.43736  0.92142  0.30500  1.0000
  C   C25       1.0  0.62080  0.99927  0.88553  1.0000
  C   C26       1.0  0.37920  0.00073  0.38553  1.0000
  C   C27       1.0  0.66029  0.86290  0.86544  1.0000
  C   C28       1.0  0.33971  0.13711  0.36544  1.0000
  C   C29       1.0  0.64188  0.80795  0.76180  1.0000
  C   C30       1.0  0.35812  0.19205  0.26180  1.0000
  C   C31       1.0  0.57833  0.88742  0.68140  1.0000
  C   C32       1.0  0.42167  0.11258  0.18140  1.0000
  C   C33       1.0  0.53853  0.02206  0.70300  1.0000
  C   C34       1.0  0.46148  0.97794  0.20300  1.0000
  C   C35       1.0  0.71779  0.77361  0.95064  1.0000
  C   C36       1.0  0.28220  0.22639  0.45064  1.0000
  S   S1        1.0  0.53181  0.25771  0.82712  1.0000
  S   S2        1.0  0.46820  0.74229  0.32712  1.0000
  N   N1        1.0  0.23312  0.55693  0.78932  1.0000
  N   N2        1.0  0.76688  0.44307  0.28932  1.0000
  N   N3        1.0  0.10833  0.59355  0.57309  1.0000
  N   N4        1.0  0.89167  0.40645  0.07309  1.0000
  O   O1        1.0  0.04410  0.01163  0.77128  1.0000
  O   O2        1.0  0.95589  0.98837  0.27127  1.0000
  O   O3        1.0  0.72062  0.81641  0.04524  1.0000
  O   O4        1.0  0.27939  0.18360  0.54524  1.0000
  O   O5        1.0  0.76016  0.65225  0.92480  1.0000
  O   O6        1.0  0.23983  0.34775  0.42480  1.0000
  O   O7        1.0  0.68536  0.67896  0.73983  1.0000
  O   O8        1.0  0.31463  0.32103  0.23984  1.0000
  O   O9        1.0  0.68416  0.35070  0.77424  1.0000
  O   O10       1.0  0.31584  0.64931  0.27424  1.0000
  O   O11       1.0  0.53237  0.27622  0.94170  1.0000
  O   O12       1.0  0.46763  0.72378  0.44170  1.0000
  O   O13       1.0  0.35708  0.26937  0.78008  1.0000
  O   O14       1.0  0.64292  0.73063  0.28008  1.0000
  O   O15       1.0  0.50287  0.51865  0.58655  1.0000
  O   O16       1.0  0.49713  0.48134  0.08655  1.0000
  O   O17       1.0  0.94966  0.24658  0.67147  1.0000
  O   O18       1.0  0.05035  0.75341  0.17147  1.0000
