data_image0
_chemical_formula_structural       Cd2H12C16N16O4
_chemical_formula_sum              "Cd2 H12 C16 N16 O4"
_cell_length_a       7.71607
_cell_length_b       7.83149
_cell_length_c       11.5843
_cell_angle_alpha    105.911
_cell_angle_beta     109.43
_cell_angle_gamma    90.0315

_space_group_name_H-M_alt    "P 1"
_space_group_IT_number       1

loop_
  _space_group_symop_operation_xyz
  'x, y, z'

loop_
  _atom_site_type_symbol
  _atom_site_label
  _atom_site_symmetry_multiplicity
  _atom_site_fract_x
  _atom_site_fract_y
  _atom_site_fract_z
  _atom_site_occupancy
  Cd  Cd1       1.0  0.50000  1.00000  0.50000  1.0000
  Cd  Cd2       1.0  0.00000  0.00000  0.50000  1.0000
  H   H1        1.0  0.63210  0.57232  0.72436  1.0000
  H   H2        1.0  0.90825  0.42698  0.27551  1.0000
  H   H3        1.0  0.36791  0.42768  0.27564  1.0000
  H   H4        1.0  0.09175  0.57302  0.72449  1.0000
  H   H5        1.0  0.76111  0.70712  0.96142  1.0000
  H   H6        1.0  0.79996  0.29213  0.03843  1.0000
  H   H7        1.0  0.23889  0.29288  0.03858  1.0000
  H   H8        1.0  0.20005  0.70787  0.96157  1.0000
  H   H9        1.0  0.15606  0.41830  0.54746  1.0000
  H   H10       1.0  0.60917  0.58188  0.45253  1.0000
  H   H11       1.0  0.84394  0.58170  0.45254  1.0000
  H   H12       1.0  0.39082  0.41812  0.54746  1.0000
  C   C1        1.0  0.54365  0.60227  0.78186  1.0000
  C   C2        1.0  0.76229  0.39730  0.21806  1.0000
  C   C3        1.0  0.45635  0.39773  0.21814  1.0000
  C   C4        1.0  0.23771  0.60270  0.78194  1.0000
  C   C5        1.0  0.61255  0.67722  0.91269  1.0000
  C   C6        1.0  0.70021  0.32232  0.08723  1.0000
  C   C7        1.0  0.38745  0.32278  0.08731  1.0000
  C   C8        1.0  0.29979  0.67768  0.91277  1.0000
  C   C9        1.0  0.49052  0.71499  0.98136  1.0000
  C   C10       1.0  0.50948  0.28501  0.01864  1.0000
  C   C11       1.0  0.55966  0.78751  0.11952  1.0000
  C   C12       1.0  0.44034  0.21248  0.88048  1.0000
  C   C13       1.0  0.28863  0.49790  0.57768  1.0000
  C   C14       1.0  0.71137  0.50210  0.42232  1.0000
  C   C15       1.0  0.26269  0.66122  0.52518  1.0000
  C   C16       1.0  0.73731  0.33878  0.47482  1.0000
  N   N1        1.0  0.35890  0.56526  0.71833  1.0000
  N   N2        1.0  0.64110  0.43474  0.28167  1.0000
  N   N3        1.0  0.45056  0.82317  0.19203  1.0000
  N   N4        1.0  0.25870  0.17705  0.80810  1.0000
  N   N5        1.0  0.54944  0.17683  0.80796  1.0000
  N   N6        1.0  0.74130  0.82294  0.19190  1.0000
  N   N7        1.0  0.56812  0.88145  0.31069  1.0000
  N   N8        1.0  0.25742  0.11868  0.68939  1.0000
  N   N9        1.0  0.43188  0.11855  0.68931  1.0000
  N   N10       1.0  0.74258  0.88132  0.31061  1.0000
  N   N11       1.0  0.19641  0.04542  0.39282  1.0000
  N   N12       1.0  0.80359  0.95459  0.60718  1.0000
  N   N13       1.0  0.15945  0.13323  0.31873  1.0000
  N   N14       1.0  0.84056  0.86677  0.68127  1.0000
  N   N15       1.0  0.12369  0.21829  0.24705  1.0000
  N   N16       1.0  0.87632  0.78171  0.75295  1.0000
  O   O1        1.0  0.40210  0.72078  0.50839  1.0000
  O   O2        1.0  0.89334  0.27912  0.49184  1.0000
  O   O3        1.0  0.59790  0.27923  0.49162  1.0000
  O   O4        1.0  0.10665  0.72088  0.50815  1.0000
