data_image0
_chemical_formula_structural       MgH38C18N4O12
_chemical_formula_sum              "Mg1 H38 C18 N4 O12"
_cell_length_a       7.83374
_cell_length_b       10.0157
_cell_length_c       10.1021
_cell_angle_alpha    69.0116
_cell_angle_beta     67.8322
_cell_angle_gamma    68.2409

_space_group_name_H-M_alt    "P 1"
_space_group_IT_number       1

loop_
  _space_group_symop_operation_xyz
  'x, y, z'

loop_
  _atom_site_type_symbol
  _atom_site_label
  _atom_site_symmetry_multiplicity
  _atom_site_fract_x
  _atom_site_fract_y
  _atom_site_fract_z
  _atom_site_occupancy
  Mg  Mg1       1.0  0.00000  1.00000  1.00000  1.0000
  H   H1        1.0  0.16159  0.60096  0.86665  1.0000
  H   H2        1.0  0.83841  0.39904  0.13335  1.0000
  H   H3        1.0  0.15981  0.57812  0.70143  1.0000
  H   H4        1.0  0.84019  0.42188  0.29857  1.0000
  H   H5        1.0  0.36891  0.34652  0.92788  1.0000
  H   H6        1.0  0.63110  0.65348  0.07211  1.0000
  H   H7        1.0  0.16464  0.34246  0.89429  1.0000
  H   H8        1.0  0.83537  0.65753  0.10572  1.0000
  H   H9        1.0  0.18594  0.28675  0.68855  1.0000
  H   H10       1.0  0.81406  0.71326  0.31144  1.0000
  H   H11       1.0  0.29339  0.42915  0.55874  1.0000
  H   H12       1.0  0.70662  0.57086  0.44125  1.0000
  H   H13       1.0  0.33621  0.22410  0.45481  1.0000
  H   H14       1.0  0.66379  0.77590  0.54519  1.0000
  H   H15       1.0  0.46988  0.09561  0.57344  1.0000
  H   H16       1.0  0.53011  0.90439  0.42656  1.0000
  H   H17       1.0  0.28601  0.75359  0.53715  1.0000
  H   H18       1.0  0.71399  0.24641  0.46286  1.0000
  H   H19       1.0  0.30636  0.83022  0.66238  1.0000
  H   H20       1.0  0.69363  0.16978  0.33762  1.0000
  H   H21       1.0  0.64728  0.10172  0.69940  1.0000
  H   H22       1.0  0.35272  0.89828  0.30060  1.0000
  H   H23       1.0  0.58547  0.14349  0.87084  1.0000
  H   H24       1.0  0.41453  0.85651  0.12916  1.0000
  H   H25       1.0  0.58533  0.67096  0.76261  1.0000
  H   H26       1.0  0.41466  0.32905  0.23738  1.0000
  H   H27       1.0  0.46690  0.54478  0.89922  1.0000
  H   H28       1.0  0.53309  0.45524  0.10078  1.0000
  H   H29       1.0  0.53667  0.35074  0.67270  1.0000
  H   H30       1.0  0.46333  0.64927  0.32730  1.0000
  H   H31       1.0  0.96310  0.01931  0.74376  1.0000
  H   H32       1.0  0.03688  0.98069  0.25624  1.0000
  H   H33       1.0  0.90731  0.19239  0.73632  1.0000
  H   H34       1.0  0.09268  0.80760  0.26368  1.0000
  H   H35       1.0  0.83434  0.28350  0.97493  1.0000
  H   H36       1.0  0.16566  0.71650  0.02508  1.0000
  H   H37       1.0  0.69416  0.17955  0.08929  1.0000
  H   H38       1.0  0.30584  0.82045  0.91072  1.0000
  C   C1        1.0  0.24903  0.54657  0.77533  1.0000
  C   C2        1.0  0.75097  0.45343  0.22467  1.0000
  C   C3        1.0  0.29465  0.37988  0.84332  1.0000
  C   C4        1.0  0.70535  0.62011  0.15667  1.0000
  C   C5        1.0  0.32226  0.31212  0.62077  1.0000
  C   C6        1.0  0.67774  0.68788  0.37923  1.0000
  C   C7        1.0  0.43472  0.21369  0.51422  1.0000
  C   C8        1.0  0.56528  0.78631  0.48578  1.0000
  C   C9        1.0  0.38317  0.74702  0.59624  1.0000
  C   C10       1.0  0.61683  0.25298  0.40376  1.0000
  C   C11       1.0  0.52720  0.14041  0.78922  1.0000
  C   C12       1.0  0.47280  0.85959  0.21078  1.0000
  C   C13       1.0  0.40420  0.03153  0.86307  1.0000
  C   C14       1.0  0.59580  0.96846  0.13693  1.0000
  C   C15       1.0  0.54533  0.57033  0.78058  1.0000
  C   C16       1.0  0.45467  0.42967  0.21942  1.0000
  C   C17       1.0  0.73056  0.44354  0.76389  1.0000
  C   C18       1.0  0.26945  0.55646  0.23612  1.0000
  N   N1        1.0  0.42566  0.29723  0.72693  1.0000
  N   N2        1.0  0.57434  0.70277  0.27307  1.0000
  N   N3        1.0  0.42315  0.59524  0.69010  1.0000
  N   N4        1.0  0.57686  0.40476  0.30990  1.0000
  O   O1        1.0  0.23254  0.08086  0.93564  1.0000
  O   O2        1.0  0.76747  0.91913  0.06435  1.0000
  O   O3        1.0  0.48630  0.89998  0.84956  1.0000
  O   O4        1.0  0.51372  0.10001  0.15044  1.0000
  O   O5        1.0  0.76039  0.35566  0.68644  1.0000
  O   O6        1.0  0.23961  0.64434  0.31358  1.0000
  O   O7        1.0  0.83971  0.43057  0.83625  1.0000
  O   O8        1.0  0.16029  0.56944  0.16377  1.0000
  O   O9        1.0  0.98884  0.08958  0.77463  1.0000
  O   O10       1.0  0.01116  0.91041  0.22537  1.0000
  O   O11       1.0  0.82639  0.19201  0.05853  1.0000
  O   O12       1.0  0.17361  0.80798  0.94147  1.0000
