data_image0
_chemical_formula_structural       Cu4H46C36S4I4N2
_chemical_formula_sum              "Cu4 H46 C36 S4 I4 N2"
_cell_length_a       8.90047
_cell_length_b       10.4787
_cell_length_c       12.0461
_cell_angle_alpha    94.6085
_cell_angle_beta     99.5342
_cell_angle_gamma    105.394

_space_group_name_H-M_alt    "P 1"
_space_group_IT_number       1

loop_
  _space_group_symop_operation_xyz
  'x, y, z'

loop_
  _atom_site_type_symbol
  _atom_site_label
  _atom_site_symmetry_multiplicity
  _atom_site_fract_x
  _atom_site_fract_y
  _atom_site_fract_z
  _atom_site_occupancy
  Cu  Cu1       1.0  0.64093  0.05452  0.54018  1.0000
  Cu  Cu2       1.0  0.35907  0.94547  0.45982  1.0000
  Cu  Cu3       1.0  0.49626  0.37454  0.47759  1.0000
  Cu  Cu4       1.0  0.50374  0.62546  0.52241  1.0000
  H   H1        1.0  0.74660  0.29828  0.52765  1.0000
  H   H2        1.0  0.25340  0.70172  0.47235  1.0000
  H   H3        1.0  0.02611  0.35292  0.58351  1.0000
  H   H4        1.0  0.97389  0.64709  0.41648  1.0000
  H   H5        1.0  0.01582  0.18342  0.55015  1.0000
  H   H6        1.0  0.98418  0.81657  0.44985  1.0000
  H   H7        1.0  0.87220  0.30202  0.73608  1.0000
  H   H8        1.0  0.12780  0.69798  0.26392  1.0000
  H   H9        1.0  0.04197  0.24101  0.75947  1.0000
  H   H10       1.0  0.95803  0.75899  0.24053  1.0000
  H   H11       1.0  0.82620  0.85795  0.65657  1.0000
  H   H12       1.0  0.17380  0.14205  0.34343  1.0000
  H   H13       1.0  0.98151  0.98884  0.62723  1.0000
  H   H14       1.0  0.01849  0.01117  0.37278  1.0000
  H   H15       1.0  0.22350  0.09210  0.77225  1.0000
  H   H16       1.0  0.77650  0.90790  0.22775  1.0000
  H   H17       1.0  0.40002  0.06869  0.94768  1.0000
  H   H18       1.0  0.59999  0.93131  0.05232  1.0000
  H   H19       1.0  0.29687  0.90092  0.07194  1.0000
  H   H20       1.0  0.70314  0.09908  0.92806  1.0000
  H   H21       1.0  0.01590  0.76103  0.02273  1.0000
  H   H22       1.0  0.98411  0.23897  0.97726  1.0000
  H   H23       1.0  0.83913  0.78571  0.84768  1.0000
  H   H24       1.0  0.16088  0.21429  0.15232  1.0000
  H   H25       1.0  0.59583  0.09186  0.31176  1.0000
  H   H26       1.0  0.40417  0.90813  0.68825  1.0000
  H   H27       1.0  0.68654  0.18799  0.21312  1.0000
  H   H28       1.0  0.31345  0.81201  0.78688  1.0000
  H   H29       1.0  0.54865  0.50626  0.25823  1.0000
  H   H30       1.0  0.45135  0.49373  0.74178  1.0000
  H   H31       1.0  0.73981  0.48560  0.30146  1.0000
  H   H32       1.0  0.26019  0.51439  0.69854  1.0000
  H   H33       1.0  0.89330  0.17742  0.36358  1.0000
  H   H34       1.0  0.10669  0.82257  0.63642  1.0000
  H   H35       1.0  0.88286  0.34339  0.37846  1.0000
  H   H36       1.0  0.11714  0.65661  0.62154  1.0000
  H   H37       1.0  0.39003  0.29856  0.06807  1.0000
  H   H38       1.0  0.60996  0.70144  0.93193  1.0000
  H   H39       1.0  0.40685  0.27419  0.86432  1.0000
  H   H40       1.0  0.59314  0.72582  0.13568  1.0000
  H   H41       1.0  0.65916  0.37841  0.80272  1.0000
  H   H42       1.0  0.34083  0.62159  0.19728  1.0000
  H   H43       1.0  0.89620  0.50738  0.94659  1.0000
  H   H44       1.0  0.10380  0.49262  0.05341  1.0000
  H   H45       1.0  0.88238  0.52632  0.15199  1.0000
  H   H46       1.0  0.11761  0.47367  0.84801  1.0000
  C   C1        1.0  0.95097  0.25000  0.58203  1.0000
  C   C2        1.0  0.04903  0.74999  0.41797  1.0000
  C   C3        1.0  0.92765  0.22884  0.70250  1.0000
  C   C4        1.0  0.07235  0.77116  0.29750  1.0000
  C   C5        1.0  0.91362  0.95400  0.69271  1.0000
  C   C6        1.0  0.08639  0.04600  0.30729  1.0000
  C   C7        1.0  0.01898  0.94247  0.79979  1.0000
  C   C8        1.0  0.98103  0.05753  0.20020  1.0000
  C   C9        1.0  0.17676  0.02227  0.82923  1.0000
  C   C10       1.0  0.82324  0.97773  0.17077  1.0000
  C   C11       1.0  0.27673  0.00746  0.92668  1.0000
  C   C12       1.0  0.72328  0.99254  0.07332  1.0000
  C   C13       1.0  0.21936  0.91317  0.99611  1.0000
  C   C14       1.0  0.78065  0.08683  0.00389  1.0000
  C   C15       1.0  0.06129  0.83452  0.96836  1.0000
  C   C16       1.0  0.93872  0.16548  0.03163  1.0000
  C   C17       1.0  0.96180  0.84865  0.87079  1.0000
  C   C18       1.0  0.03822  0.15136  0.12921  1.0000
  C   C19       1.0  0.66275  0.19264  0.29971  1.0000
  C   C20       1.0  0.33724  0.80736  0.70029  1.0000
  C   C21       1.0  0.62293  0.43908  0.24659  1.0000
  C   C22       1.0  0.37706  0.56091  0.75341  1.0000
  C   C23       1.0  0.81802  0.23963  0.38524  1.0000
  C   C24       1.0  0.18198  0.76037  0.61475  1.0000
  C   C25       1.0  0.63487  0.41504  0.12395  1.0000
  C   C26       1.0  0.36513  0.58496  0.87605  1.0000
  C   C27       1.0  0.50188  0.34309  0.04184  1.0000
  C   C28       1.0  0.49812  0.65691  0.95816  1.0000
  C   C29       1.0  0.51139  0.32927  0.92747  1.0000
  C   C30       1.0  0.48861  0.67074  0.07253  1.0000
  C   C31       1.0  0.65320  0.38766  0.89267  1.0000
  C   C32       1.0  0.34680  0.61234  0.10733  1.0000
  C   C33       1.0  0.78610  0.45954  0.97357  1.0000
  C   C34       1.0  0.21390  0.54046  0.02644  1.0000
  C   C35       1.0  0.77755  0.47146  0.08862  1.0000
  C   C36       1.0  0.22245  0.52854  0.91138  1.0000
  S   S1        1.0  0.79232  0.06748  0.71299  1.0000
  S   S2        1.0  0.20769  0.93253  0.28701  1.0000
  S   S3        1.0  0.52292  0.29074  0.30358  1.0000
  S   S4        1.0  0.47707  0.70926  0.69642  1.0000
  I   I1        1.0  0.59261  0.83402  0.41148  1.0000
  I   I2        1.0  0.40739  0.16598  0.58852  1.0000
  I   I3        1.0  0.75413  0.54309  0.60059  1.0000
  I   I4        1.0  0.24587  0.45691  0.39941  1.0000
  N   N1        1.0  0.79767  0.22551  0.50308  1.0000
  N   N2        1.0  0.20233  0.77449  0.49691  1.0000
