data_image0
_chemical_formula_structural       Cu6Sb4H28C30S18N14
_chemical_formula_sum              "Cu6 Sb4 H28 C30 S18 N14"
_cell_length_a       6.86904
_cell_length_b       13.6139
_cell_length_c       15.6184
_cell_angle_alpha    108.651
_cell_angle_beta     90.4336
_cell_angle_gamma    99.7576

_space_group_name_H-M_alt    "P 1"
_space_group_IT_number       1

loop_
  _space_group_symop_operation_xyz
  'x, y, z'

loop_
  _atom_site_type_symbol
  _atom_site_label
  _atom_site_symmetry_multiplicity
  _atom_site_fract_x
  _atom_site_fract_y
  _atom_site_fract_z
  _atom_site_occupancy
  Cu  Cu1       1.0  0.20956  0.78958  0.12403  1.0000
  Cu  Cu2       1.0  0.79044  0.21042  0.87597  1.0000
  Cu  Cu3       1.0  0.06877  0.25347  0.23693  1.0000
  Cu  Cu4       1.0  0.93123  0.74653  0.76307  1.0000
  Cu  Cu5       1.0  0.47075  0.28526  0.57473  1.0000
  Cu  Cu6       1.0  0.52925  0.71474  0.42527  1.0000
  Sb  Sb1       1.0  0.44790  0.04216  0.20673  1.0000
  Sb  Sb2       1.0  0.55210  0.95784  0.79327  1.0000
  Sb  Sb3       1.0  0.01242  0.51233  0.31799  1.0000
  Sb  Sb4       1.0  0.98758  0.48766  0.68200  1.0000
  H   H1        1.0  0.82278  0.91591  0.19209  1.0000
  H   H2        1.0  0.17722  0.08410  0.80791  1.0000
  H   H3        1.0  0.92867  0.04847  0.25923  1.0000
  H   H4        1.0  0.07134  0.95154  0.74077  1.0000
  H   H5        1.0  0.86582  0.02956  0.09488  1.0000
  H   H6        1.0  0.13419  0.97045  0.90512  1.0000
  H   H7        1.0  0.03037  0.93747  0.06410  1.0000
  H   H8        1.0  0.96963  0.06253  0.93590  1.0000
  H   H9        1.0  0.78383  0.91248  0.36650  1.0000
  H   H10       1.0  0.21618  0.08753  0.63349  1.0000
  H   H11       1.0  0.84146  0.98101  0.53789  1.0000
  H   H12       1.0  0.15855  0.01899  0.46210  1.0000
  H   H13       1.0  0.70806  0.14449  0.62121  1.0000
  H   H14       1.0  0.29194  0.85551  0.37878  1.0000
  H   H15       1.0  0.55045  0.38836  0.24595  1.0000
  H   H16       1.0  0.44955  0.61164  0.75405  1.0000
  H   H17       1.0  0.53010  0.52321  0.26609  1.0000
  H   H18       1.0  0.46990  0.47679  0.73391  1.0000
  H   H19       1.0  0.58811  0.48602  0.41169  1.0000
  H   H20       1.0  0.41189  0.51398  0.58831  1.0000
  H   H21       1.0  0.36633  0.39003  0.38526  1.0000
  H   H22       1.0  0.63368  0.60996  0.61474  1.0000
  H   H23       1.0  0.63965  0.39707  0.06137  1.0000
  H   H24       1.0  0.36036  0.60293  0.93864  1.0000
  H   H25       1.0  0.66114  0.48436  0.94004  1.0000
  H   H26       1.0  0.33886  0.51564  0.05997  1.0000
  H   H27       1.0  0.89675  0.65850  0.97410  1.0000
  H   H28       1.0  0.10324  0.34150  0.02591  1.0000
  C   C1        1.0  0.56290  0.73963  0.23537  1.0000
  C   C2        1.0  0.43710  0.26038  0.76464  1.0000
  C   C3        1.0  0.95397  0.97887  0.20414  1.0000
  C   C4        1.0  0.04603  0.02113  0.79586  1.0000
  C   C5        1.0  0.99549  0.00519  0.11839  1.0000
  C   C6        1.0  0.00451  0.99481  0.88161  1.0000
  C   C7        1.0  0.57871  0.12268  0.41257  1.0000
  C   C8        1.0  0.42128  0.87732  0.58743  1.0000
  C   C9        1.0  0.73609  0.98456  0.40751  1.0000
  C   C10       1.0  0.26391  0.01544  0.59248  1.0000
  C   C11       1.0  0.76801  0.02203  0.50155  1.0000
  C   C12       1.0  0.23199  0.97798  0.49844  1.0000
  C   C13       1.0  0.69404  0.11189  0.54753  1.0000
  C   C14       1.0  0.30596  0.88811  0.45246  1.0000
  C   C15       1.0  0.24731  0.79126  0.92672  1.0000
  C   C16       1.0  0.75269  0.20874  0.07328  1.0000
  C   C17       1.0  0.46077  0.44913  0.27602  1.0000
  C   C18       1.0  0.53923  0.55087  0.72397  1.0000
  C   C19       1.0  0.44102  0.46291  0.37525  1.0000
  C   C20       1.0  0.55898  0.53709  0.62475  1.0000
  C   C21       1.0  0.96882  0.60850  0.16254  1.0000
  C   C22       1.0  0.03118  0.39150  0.83746  1.0000
  C   C23       1.0  0.73701  0.47258  0.07112  1.0000
  C   C24       1.0  0.26298  0.52742  0.92889  1.0000
  C   C25       1.0  0.74799  0.52076  0.00439  1.0000
  C   C26       1.0  0.25200  0.47923  0.99562  1.0000
  C   C27       1.0  0.87834  0.61604  0.02287  1.0000
  C   C28       1.0  0.12167  0.38396  0.97714  1.0000
  C   C29       1.0  0.07667  0.27972  0.43909  1.0000
  C   C30       1.0  0.92333  0.72028  0.56090  1.0000
  S   S1        1.0  0.52946  0.75639  0.13765  1.0000
  S   S2        1.0  0.47054  0.24361  0.86235  1.0000
  S   S3        1.0  0.15355  0.92726  0.24358  1.0000
  S   S4        1.0  0.84645  0.07274  0.75642  1.0000
  S   S5        1.0  0.19823  0.11731  0.13689  1.0000
  S   S6        1.0  0.80178  0.88269  0.86310  1.0000
  S   S7        1.0  0.45995  0.18878  0.35606  1.0000
  S   S8        1.0  0.54004  0.81122  0.64394  1.0000
  S   S9        1.0  0.26306  0.76780  0.81755  1.0000
  S   S10       1.0  0.73694  0.23220  0.18246  1.0000
  S   S11       1.0  0.22388  0.40257  0.20931  1.0000
  S   S12       1.0  0.77613  0.59743  0.79069  1.0000
  S   S13       1.0  0.30871  0.56935  0.43154  1.0000
  S   S14       1.0  0.69129  0.43065  0.56846  1.0000
  S   S15       1.0  0.11405  0.66645  0.26274  1.0000
  S   S16       1.0  0.88595  0.33354  0.73727  1.0000
  S   S17       1.0  0.13843  0.29186  0.54376  1.0000
  S   S18       1.0  0.86156  0.70813  0.45624  1.0000
  N   N1        1.0  0.58551  0.72753  0.30637  1.0000
  N   N2        1.0  0.41450  0.27248  0.69363  1.0000
  N   N3        1.0  0.64113  0.03410  0.36340  1.0000
  N   N4        1.0  0.35887  0.96590  0.63659  1.0000
  N   N5        1.0  0.59794  0.16250  0.50423  1.0000
  N   N6        1.0  0.40206  0.83750  0.49577  1.0000
  N   N7        1.0  0.23443  0.80702  0.00527  1.0000
  N   N8        1.0  0.76557  0.19297  0.99473  1.0000
  N   N9        1.0  0.84589  0.51603  0.14994  1.0000
  N   N10       1.0  0.15412  0.48397  0.85007  1.0000
  N   N11       1.0  0.99151  0.66001  0.10091  1.0000
  N   N12       1.0  0.00849  0.33999  0.89910  1.0000
  N   N13       1.0  0.03507  0.26768  0.36229  1.0000
  N   N14       1.0  0.96494  0.73232  0.63771  1.0000
