data_image0
_chemical_formula_structural       Co2H28C40S2N4O14
_chemical_formula_sum              "Co2 H28 C40 S2 N4 O14"
_cell_length_a       8.93176
_cell_length_b       10.089
_cell_length_c       12.7582
_cell_angle_alpha    110.6
_cell_angle_beta     93.8343
_cell_angle_gamma    111.107

_space_group_name_H-M_alt    "P 1"
_space_group_IT_number       1

loop_
  _space_group_symop_operation_xyz
  'x, y, z'

loop_
  _atom_site_type_symbol
  _atom_site_label
  _atom_site_symmetry_multiplicity
  _atom_site_fract_x
  _atom_site_fract_y
  _atom_site_fract_z
  _atom_site_occupancy
  Co  Co1       1.0  0.66030  0.10607  0.20136  1.0000
  Co  Co2       1.0  0.33970  0.89393  0.79864  1.0000
  H   H1        1.0  0.32343  0.03318  0.28096  1.0000
  H   H2        1.0  0.67658  0.96682  0.71904  1.0000
  H   H3        1.0  0.24319  0.07811  0.47195  1.0000
  H   H4        1.0  0.75681  0.92189  0.52805  1.0000
  H   H5        1.0  0.46315  0.20776  0.65104  1.0000
  H   H6        1.0  0.53686  0.79223  0.34896  1.0000
  H   H7        1.0  0.77350  0.33876  0.74204  1.0000
  H   H8        1.0  0.22650  0.66123  0.25796  1.0000
  H   H9        1.0  0.06116  0.42299  0.71597  1.0000
  H   H10       1.0  0.93884  0.57700  0.28403  1.0000
  H   H11       1.0  0.25763  0.43320  0.58173  1.0000
  H   H12       1.0  0.74237  0.56681  0.41827  1.0000
  H   H13       1.0  0.29285  0.36086  0.37688  1.0000
  H   H14       1.0  0.70716  0.63915  0.62312  1.0000
  H   H15       1.0  0.04354  0.21908  0.21654  1.0000
  H   H16       1.0  0.95646  0.78093  0.78346  1.0000
  H   H17       1.0  0.96991  0.08121  0.95020  1.0000
  H   H18       1.0  0.03008  0.91879  0.04981  1.0000
  H   H19       1.0  0.12032  0.17741  0.88404  1.0000
  H   H20       1.0  0.87967  0.82259  0.11596  1.0000
  H   H21       1.0  0.92414  0.30977  0.93916  1.0000
  H   H22       1.0  0.07586  0.69023  0.06084  1.0000
  H   H23       1.0  0.97986  0.33430  0.08266  1.0000
  H   H24       1.0  0.02014  0.66570  0.91734  1.0000
  H   H25       1.0  0.67684  0.97128  0.98775  1.0000
  H   H26       1.0  0.32315  0.02872  0.01225  1.0000
  H   H27       1.0  0.69310  0.13628  0.00707  1.0000
  H   H28       1.0  0.30690  0.86372  0.99294  1.0000
  C   C1        1.0  0.41566  0.08953  0.36115  1.0000
  C   C2        1.0  0.58434  0.91047  0.63885  1.0000
  C   C3        1.0  0.37265  0.11581  0.46824  1.0000
  C   C4        1.0  0.62735  0.88419  0.53175  1.0000
  C   C5        1.0  0.49472  0.18856  0.56759  1.0000
  C   C6        1.0  0.50529  0.81144  0.43241  1.0000
  C   C7        1.0  0.66142  0.23734  0.55976  1.0000
  C   C8        1.0  0.33859  0.76265  0.44024  1.0000
  C   C9        1.0  0.79837  0.31494  0.65633  1.0000
  C   C10       1.0  0.20163  0.68505  0.34367  1.0000
  C   C11       1.0  0.95703  0.35928  0.64231  1.0000
  C   C12       1.0  0.04297  0.64071  0.35769  1.0000
  C   C13       1.0  0.99170  0.32743  0.52994  1.0000
  C   C14       1.0  0.00831  0.67257  0.47006  1.0000
  C   C15       1.0  0.15213  0.37007  0.50901  1.0000
  C   C16       1.0  0.84787  0.62994  0.49100  1.0000
  C   C17       1.0  0.17123  0.33139  0.39665  1.0000
  C   C18       1.0  0.82878  0.66862  0.60335  1.0000
  C   C19       1.0  0.03153  0.25162  0.30565  1.0000
  C   C20       1.0  0.96848  0.74838  0.69435  1.0000
  C   C21       1.0  0.85835  0.24859  0.43293  1.0000
  C   C22       1.0  0.14165  0.75141  0.56707  1.0000
  C   C23       1.0  0.69285  0.20498  0.44810  1.0000
  C   C24       1.0  0.30715  0.79502  0.55189  1.0000
  C   C25       1.0  0.55462  0.30162  0.17559  1.0000
  C   C26       1.0  0.44538  0.69839  0.82441  1.0000
  C   C27       1.0  0.48324  0.39937  0.15045  1.0000
  C   C28       1.0  0.51676  0.60063  0.84955  1.0000
  C   C29       1.0  0.32498  0.35704  0.09228  1.0000
  C   C30       1.0  0.67501  0.64296  0.90771  1.0000
  C   C31       1.0  0.07326  0.18930  0.96290  1.0000
  C   C32       1.0  0.92674  0.81070  0.03711  1.0000
  C   C33       1.0  0.02320  0.32332  0.00258  1.0000
  C   C34       1.0  0.97680  0.67668  0.99742  1.0000
  C   C35       1.0  0.30412  0.48319  0.07614  1.0000
  C   C36       1.0  0.69588  0.51681  0.92385  1.0000
  C   C37       1.0  0.44796  0.61926  0.12102  1.0000
  C   C38       1.0  0.55204  0.38074  0.87897  1.0000
  C   C39       1.0  0.47412  0.77326  0.12301  1.0000
  C   C40       1.0  0.52588  0.22675  0.87699  1.0000
  S   S1        1.0  0.60622  0.59173  0.18311  1.0000
  S   S2        1.0  0.39378  0.40827  0.81689  1.0000
  N   N1        1.0  0.57192  0.13211  0.35119  1.0000
  N   N2        1.0  0.42809  0.86790  0.64881  1.0000
  N   N3        1.0  0.87862  0.21177  0.32305  1.0000
  N   N4        1.0  0.12139  0.78823  0.67695  1.0000
  O   O1        1.0  0.46168  0.15740  0.14921  1.0000
  O   O2        1.0  0.53831  0.84260  0.85079  1.0000
  O   O3        1.0  0.70633  0.35711  0.22220  1.0000
  O   O4        1.0  0.29367  0.64289  0.77780  1.0000
  O   O5        1.0  0.20267  0.21150  0.05176  1.0000
  O   O6        1.0  0.79733  0.78850  0.94824  1.0000
  O   O7        1.0  0.15984  0.46878  0.02230  1.0000
  O   O8        1.0  0.84016  0.53121  0.97769  1.0000
  O   O9        1.0  0.35434  0.78952  0.07951  1.0000
  O   O10       1.0  0.64565  0.21048  0.92049  1.0000
  O   O11       1.0  0.61956  0.88190  0.17308  1.0000
  O   O12       1.0  0.38044  0.11810  0.82692  1.0000
  O   O13       1.0  0.72792  0.07917  0.04735  1.0000
  O   O14       1.0  0.27208  0.92083  0.95265  1.0000
