data_image0
_chemical_formula_structural       Zn2H20C16S2O18
_chemical_formula_sum              "Zn2 H20 C16 S2 O18"
_cell_length_a       7.63723
_cell_length_b       8.25767
_cell_length_c       10.1952
_cell_angle_alpha    106.96
_cell_angle_beta     111.981
_cell_angle_gamma    90.6237

_space_group_name_H-M_alt    "P 1"
_space_group_IT_number       1

loop_
  _space_group_symop_operation_xyz
  'x, y, z'

loop_
  _atom_site_type_symbol
  _atom_site_label
  _atom_site_symmetry_multiplicity
  _atom_site_fract_x
  _atom_site_fract_y
  _atom_site_fract_z
  _atom_site_occupancy
  Zn  Zn1       1.0  0.66451  0.75856  0.93865  1.0000
  Zn  Zn2       1.0  0.33549  0.24144  0.06134  1.0000
  H   H1        1.0  0.01331  0.44710  0.67470  1.0000
  H   H2        1.0  0.98669  0.55289  0.32531  1.0000
  H   H3        1.0  0.82152  0.56164  0.69476  1.0000
  H   H4        1.0  0.17850  0.43837  0.30525  1.0000
  H   H5        1.0  0.60023  0.38433  0.43630  1.0000
  H   H6        1.0  0.39977  0.61568  0.56371  1.0000
  H   H7        1.0  0.80402  0.48302  0.42937  1.0000
  H   H8        1.0  0.19598  0.51699  0.57063  1.0000
  H   H9        1.0  0.32294  0.85495  0.84125  1.0000
  H   H10       1.0  0.67706  0.14505  0.15875  1.0000
  H   H11       1.0  0.34723  0.82168  0.98970  1.0000
  H   H12       1.0  0.65278  0.17832  0.01029  1.0000
  H   H13       1.0  0.65006  0.42095  0.79731  1.0000
  H   H14       1.0  0.34993  0.57905  0.20269  1.0000
  H   H15       1.0  0.45089  0.44409  0.81462  1.0000
  H   H16       1.0  0.54910  0.55591  0.18537  1.0000
  H   H17       1.0  0.05532  0.74870  0.03831  1.0000
  H   H18       1.0  0.94468  0.25129  0.96169  1.0000
  H   H19       1.0  0.94119  0.61041  0.06329  1.0000
  H   H20       1.0  0.05881  0.38959  0.93671  1.0000
  C   C1        1.0  0.74192  0.83890  0.23861  1.0000
  C   C2        1.0  0.25808  0.16113  0.76139  1.0000
  C   C3        1.0  0.75036  0.93198  0.38804  1.0000
  C   C4        1.0  0.24964  0.06801  0.61196  1.0000
  C   C5        1.0  0.77502  0.10717  0.45929  1.0000
  C   C6        1.0  0.22497  0.89283  0.54071  1.0000
  C   C7        1.0  0.77280  0.14874  0.60453  1.0000
  C   C8        1.0  0.22721  0.85126  0.39548  1.0000
  C   C9        1.0  0.74187  0.00390  0.64091  1.0000
  C   C10       1.0  0.25813  0.99610  0.35909  1.0000
  C   C11       1.0  0.72238  0.98930  0.77531  1.0000
  C   C12       1.0  0.27761  0.01070  0.22469  1.0000
  C   C13       1.0  0.85778  0.43998  0.63887  1.0000
  C   C14       1.0  0.14222  0.56002  0.36114  1.0000
  C   C15       1.0  0.75583  0.39169  0.47191  1.0000
  C   C16       1.0  0.24417  0.60831  0.52810  1.0000
  S   S1        1.0  0.72142  0.82010  0.49889  1.0000
  S   S2        1.0  0.27858  0.17990  0.50111  1.0000
  O   O1        1.0  0.74660  0.92613  0.15337  1.0000
  O   O2        1.0  0.25339  0.07387  0.84664  1.0000
  O   O3        1.0  0.72839  0.67662  0.19719  1.0000
  O   O4        1.0  0.27159  0.32336  0.80280  1.0000
  O   O5        1.0  0.68420  0.83722  0.77445  1.0000
  O   O6        1.0  0.31580  0.16276  0.22555  1.0000
  O   O7        1.0  0.74266  0.12542  0.88153  1.0000
  O   O8        1.0  0.25736  0.87456  0.11848  1.0000
  O   O9        1.0  0.79781  0.31336  0.69432  1.0000
  O   O10       1.0  0.20219  0.68664  0.30568  1.0000
  O   O11       1.0  0.79891  0.22739  0.39905  1.0000
  O   O12       1.0  0.20108  0.77261  0.60095  1.0000
  O   O13       1.0  0.37949  0.77880  0.90030  1.0000
  O   O14       1.0  0.62051  0.22121  0.09969  1.0000
  O   O15       1.0  0.56600  0.50542  0.81648  1.0000
  O   O16       1.0  0.43401  0.49458  0.18352  1.0000
  O   O17       1.0  0.93508  0.66524  0.98889  1.0000
  O   O18       1.0  0.06493  0.33476  0.01111  1.0000
