data_image0
_chemical_formula_structural       CdH14C16N12O8
_chemical_formula_sum              "Cd1 H14 C16 N12 O8"
_cell_length_a       7.25745
_cell_length_b       7.47618
_cell_length_c       12.0418
_cell_angle_alpha    81.7906
_cell_angle_beta     76.297
_cell_angle_gamma    59.8535

_space_group_name_H-M_alt    "P 1"
_space_group_IT_number       1

loop_
  _space_group_symop_operation_xyz
  'x, y, z'

loop_
  _atom_site_type_symbol
  _atom_site_label
  _atom_site_symmetry_multiplicity
  _atom_site_fract_x
  _atom_site_fract_y
  _atom_site_fract_z
  _atom_site_occupancy
  Cd  Cd1       1.0  0.50000  0.50000  1.00000  1.0000
  H   H1        1.0  0.50237  0.13046  0.14423  1.0000
  H   H2        1.0  0.49764  0.86954  0.85577  1.0000
  H   H3        1.0  0.54812  0.61593  0.31507  1.0000
  H   H4        1.0  0.45187  0.38406  0.68493  1.0000
  H   H5        1.0  0.35228  0.66464  0.51649  1.0000
  H   H6        1.0  0.64772  0.33536  0.48351  1.0000
  H   H7        1.0  0.18008  0.30913  0.48644  1.0000
  H   H8        1.0  0.81993  0.69086  0.51356  1.0000
  H   H9        1.0  0.65531  0.68532  0.12007  1.0000
  H   H10       1.0  0.34468  0.31468  0.87993  1.0000
  H   H11       1.0  0.84123  0.44307  0.10000  1.0000
  H   H12       1.0  0.15876  0.55693  0.90000  1.0000
  H   H13       1.0  0.76233  0.90120  0.03487  1.0000
  H   H14       1.0  0.23766  0.09880  0.96513  1.0000
  C   C1        1.0  0.36543  0.13491  0.33414  1.0000
  C   C2        1.0  0.63457  0.86509  0.66585  1.0000
  C   C3        1.0  0.46842  0.93719  0.28310  1.0000
  C   C4        1.0  0.53158  0.06280  0.71690  1.0000
  C   C5        1.0  0.46803  0.76711  0.35294  1.0000
  C   C6        1.0  0.53197  0.23289  0.64705  1.0000
  C   C7        1.0  0.35922  0.79363  0.46465  1.0000
  C   C8        1.0  0.64078  0.20638  0.53535  1.0000
  C   C9        1.0  0.25124  0.99136  0.51395  1.0000
  C   C10       1.0  0.74876  0.00864  0.48605  1.0000
  C   C11       1.0  0.25870  0.15875  0.44762  1.0000
  C   C12       1.0  0.74130  0.84125  0.55238  1.0000
  C   C13       1.0  0.37543  0.31548  0.27120  1.0000
  C   C14       1.0  0.62457  0.68454  0.72880  1.0000
  C   C15       1.0  0.00136  0.95680  0.79469  1.0000
  C   C16       1.0  0.99864  0.04320  0.20531  1.0000
  N   N1        1.0  0.13670  0.03850  0.62427  1.0000
  N   N2        1.0  0.86330  0.96151  0.37573  1.0000
  N   N3        1.0  0.78848  0.14484  0.93766  1.0000
  N   N4        1.0  0.21151  0.85516  0.06234  1.0000
  N   N5        1.0  0.89832  0.15264  0.83546  1.0000
  N   N6        1.0  0.10167  0.84737  0.16454  1.0000
  N   N7        1.0  0.82650  0.94991  0.95863  1.0000
  N   N8        1.0  0.17350  0.05010  0.04136  1.0000
  N   N9        1.0  0.95884  0.82681  0.87295  1.0000
  N   N10       1.0  0.04116  0.17319  0.12705  1.0000
  N   N11       1.0  0.12797  0.88836  0.68809  1.0000
  N   N12       1.0  0.87202  0.11164  0.31191  1.0000
  O   O1        1.0  0.32197  0.47684  0.31354  1.0000
  O   O2        1.0  0.67805  0.52313  0.68646  1.0000
  O   O3        1.0  0.45720  0.28476  0.15598  1.0000
  O   O4        1.0  0.54281  0.71524  0.84402  1.0000
  O   O5        1.0  0.55702  0.91467  0.17274  1.0000
  O   O6        1.0  0.44297  0.08533  0.82725  1.0000
  O   O7        1.0  0.72416  0.56535  0.06750  1.0000
  O   O8        1.0  0.27583  0.43465  0.93250  1.0000
