data_image0
_chemical_formula_structural       Tb2H22C32O20
_chemical_formula_sum              "Tb2 H22 C32 O20"
_cell_length_a       8.66161
_cell_length_b       10.2238
_cell_length_c       9.61827
_cell_angle_alpha    69.3482
_cell_angle_beta     77.4373
_cell_angle_gamma    78.3718

_space_group_name_H-M_alt    "P 1"
_space_group_IT_number       1

loop_
  _space_group_symop_operation_xyz
  'x, y, z'

loop_
  _atom_site_type_symbol
  _atom_site_label
  _atom_site_symmetry_multiplicity
  _atom_site_fract_x
  _atom_site_fract_y
  _atom_site_fract_z
  _atom_site_occupancy
  Tb  Tb1       1.0  0.82809  0.91448  0.94831  1.0000
  Tb  Tb2       1.0  0.17191  0.08552  0.05169  1.0000
  H   H1        1.0  0.52698  0.13895  0.64136  1.0000
  H   H2        1.0  0.47303  0.86105  0.35862  1.0000
  H   H3        1.0  0.54518  0.11892  0.85371  1.0000
  H   H4        1.0  0.45482  0.88108  0.14628  1.0000
  H   H5        1.0  0.50321  0.97604  0.85826  1.0000
  H   H6        1.0  0.49680  0.02397  0.14173  1.0000
  H   H7        1.0  0.91073  0.77723  0.70745  1.0000
  H   H8        1.0  0.08927  0.22277  0.29255  1.0000
  H   H9        1.0  0.82541  0.92509  0.61876  1.0000
  H   H10       1.0  0.17459  0.07492  0.38124  1.0000
  H   H11       1.0  0.84847  0.40570  0.05861  1.0000
  H   H12       1.0  0.15154  0.59430  0.94141  1.0000
  H   H13       1.0  0.44937  0.17380  0.26487  1.0000
  H   H14       1.0  0.55064  0.82620  0.73514  1.0000
  H   H15       1.0  0.39785  0.61482  0.21825  1.0000
  H   H16       1.0  0.60212  0.38519  0.78172  1.0000
  H   H17       1.0  0.80241  0.34425  0.54830  1.0000
  H   H18       1.0  0.19758  0.65575  0.45171  1.0000
  H   H19       1.0  0.85660  0.52298  0.29297  1.0000
  H   H20       1.0  0.14339  0.47702  0.70704  1.0000
  H   H21       1.0  0.13324  0.54926  0.16627  1.0000
  H   H22       1.0  0.86675  0.45074  0.83373  1.0000
  C   C1        1.0  0.69690  0.66016  0.06581  1.0000
  C   C2        1.0  0.30309  0.33984  0.93419  1.0000
  C   C3        1.0  0.62874  0.52432  0.13009  1.0000
  C   C4        1.0  0.37125  0.47568  0.86991  1.0000
  C   C5        1.0  0.72382  0.40179  0.11086  1.0000
  C   C6        1.0  0.27618  0.59821  0.88914  1.0000
  C   C7        1.0  0.65704  0.27717  0.15340  1.0000
  C   C8        1.0  0.34296  0.72283  0.84660  1.0000
  C   C9        1.0  0.75137  0.15586  0.10638  1.0000
  C   C10       1.0  0.24864  0.84413  0.89363  1.0000
  C   C11       1.0  0.49944  0.27222  0.22819  1.0000
  C   C12       1.0  0.50056  0.72778  0.77182  1.0000
  C   C13       1.0  0.40637  0.39137  0.25780  1.0000
  C   C14       1.0  0.59363  0.60863  0.74219  1.0000
  C   C15       1.0  0.47039  0.51901  0.20298  1.0000
  C   C16       1.0  0.52960  0.48099  0.79701  1.0000
  C   C17       1.0  0.24114  0.38274  0.34227  1.0000
  C   C18       1.0  0.75885  0.61725  0.65773  1.0000
  C   C19       1.0  0.20957  0.28292  0.48615  1.0000
  C   C20       1.0  0.79042  0.71707  0.51385  1.0000
  C   C21       1.0  0.33821  0.17131  0.55335  1.0000
  C   C22       1.0  0.66178  0.82868  0.44666  1.0000
  C   C23       1.0  0.05146  0.27298  0.56206  1.0000
  C   C24       1.0  0.94854  0.72702  0.43795  1.0000
  C   C25       1.0  0.01933  0.18386  0.72446  1.0000
  C   C26       1.0  0.98067  0.81614  0.27554  1.0000
  C   C27       1.0  0.92422  0.35557  0.49006  1.0000
  C   C28       1.0  0.07578  0.64442  0.50995  1.0000
  C   C29       1.0  0.95452  0.45492  0.34784  1.0000
  C   C30       1.0  0.04548  0.54508  0.65217  1.0000
  C   C31       1.0  0.11127  0.47055  0.27664  1.0000
  C   C32       1.0  0.88872  0.52945  0.72336  1.0000
  O   O1        1.0  0.60933  0.77605  0.07283  1.0000
  O   O2        1.0  0.39066  0.22395  0.92716  1.0000
  O   O3        1.0  0.84166  0.66211  0.00044  1.0000
  O   O4        1.0  0.15834  0.33789  0.99957  1.0000
  O   O5        1.0  0.90243  0.14233  0.08659  1.0000
  O   O6        1.0  0.09757  0.85767  0.91342  1.0000
  O   O7        1.0  0.67694  0.07453  0.07760  1.0000
  O   O8        1.0  0.32306  0.92548  0.92241  1.0000
  O   O9        1.0  0.45485  0.21968  0.58353  1.0000
  O   O10       1.0  0.54516  0.78033  0.41645  1.0000
  O   O11       1.0  0.33274  0.04661  0.57263  1.0000
  O   O12       1.0  0.66725  0.95340  0.42737  1.0000
  O   O13       1.0  0.12144  0.17515  0.80532  1.0000
  O   O14       1.0  0.87857  0.82485  0.19468  1.0000
  O   O15       1.0  0.89099  0.12832  0.77128  1.0000
  O   O16       1.0  0.10901  0.87167  0.22873  1.0000
  O   O17       1.0  0.59294  0.03498  0.82130  1.0000
  O   O18       1.0  0.40706  0.96502  0.17870  1.0000
  O   O19       1.0  0.87246  0.87309  0.70980  1.0000
  O   O20       1.0  0.12754  0.12691  0.29020  1.0000
