data_image0
_chemical_formula_structural       Zn4P4H16C8N12O12
_chemical_formula_sum              "Zn4 P4 H16 C8 N12 O12"
_cell_length_a       7.43148
_cell_length_b       9.12394
_cell_length_c       10.0365
_cell_angle_alpha    89.9996
_cell_angle_beta     111.491
_cell_angle_gamma    90.0004

_space_group_name_H-M_alt    "P 1"
_space_group_IT_number       1

loop_
  _space_group_symop_operation_xyz
  'x, y, z'

loop_
  _atom_site_type_symbol
  _atom_site_label
  _atom_site_symmetry_multiplicity
  _atom_site_fract_x
  _atom_site_fract_y
  _atom_site_fract_z
  _atom_site_occupancy
  Zn  Zn1       1.0  0.09475  0.18018  0.63073  1.0000
  Zn  Zn2       1.0  0.40526  0.68018  0.86927  1.0000
  Zn  Zn3       1.0  0.90525  0.81982  0.36927  1.0000
  Zn  Zn4       1.0  0.59475  0.31981  0.13073  1.0000
  P   P1        1.0  0.18413  0.38720  0.89937  1.0000
  P   P2        1.0  0.31587  0.88720  0.60063  1.0000
  P   P3        1.0  0.81587  0.61280  0.10063  1.0000
  P   P4        1.0  0.68413  0.11280  0.39937  1.0000
  H   H1        1.0  0.24592  0.51065  0.57378  1.0000
  H   H2        1.0  0.25408  0.01065  0.92621  1.0000
  H   H3        1.0  0.75408  0.48935  0.42622  1.0000
  H   H4        1.0  0.74592  0.98935  0.07378  1.0000
  H   H5        1.0  0.23930  0.33637  0.19506  1.0000
  H   H6        1.0  0.26070  0.83637  0.30494  1.0000
  H   H7        1.0  0.76070  0.66363  0.80494  1.0000
  H   H8        1.0  0.73930  0.16364  0.69506  1.0000
  H   H9        1.0  0.11947  0.12574  0.32120  1.0000
  H   H10       1.0  0.38053  0.62573  0.17880  1.0000
  H   H11       1.0  0.88053  0.87427  0.67880  1.0000
  H   H12       1.0  0.61947  0.37426  0.82120  1.0000
  H   H13       1.0  0.01228  0.44861  0.90325  1.0000
  H   H14       1.0  0.48772  0.94862  0.59675  1.0000
  H   H15       1.0  0.98772  0.55138  0.09675  1.0000
  H   H16       1.0  0.51228  0.05138  0.40325  1.0000
  C   C1        1.0  0.22448  0.43413  0.48631  1.0000
  C   C2        1.0  0.27552  0.93413  0.01369  1.0000
  C   C3        1.0  0.77552  0.56587  0.51369  1.0000
  C   C4        1.0  0.72448  0.06587  0.98631  1.0000
  C   C5        1.0  0.15934  0.23639  0.36029  1.0000
  C   C6        1.0  0.34067  0.73639  0.13971  1.0000
  C   C7        1.0  0.84066  0.76361  0.63971  1.0000
  C   C8        1.0  0.65934  0.26361  0.86029  1.0000
  N   N1        1.0  0.21416  0.34122  0.29107  1.0000
  N   N2        1.0  0.28584  0.84122  0.20893  1.0000
  N   N3        1.0  0.78584  0.65877  0.70893  1.0000
  N   N4        1.0  0.71416  0.15878  0.79107  1.0000
  N   N5        1.0  0.16397  0.29164  0.48600  1.0000
  N   N6        1.0  0.33603  0.79164  0.01400  1.0000
  N   N7        1.0  0.83603  0.70836  0.51400  1.0000
  N   N8        1.0  0.66397  0.20836  0.98600  1.0000
  N   N9        1.0  0.25656  0.46750  0.36841  1.0000
  N   N10       1.0  0.24344  0.96749  0.13159  1.0000
  N   N11       1.0  0.74344  0.53250  0.63159  1.0000
  N   N12       1.0  0.75656  0.03251  0.86841  1.0000
  O   O1        1.0  0.13330  0.23895  0.82419  1.0000
  O   O2        1.0  0.36670  0.73895  0.67581  1.0000
  O   O3        1.0  0.86670  0.76105  0.17581  1.0000
  O   O4        1.0  0.63329  0.26105  0.32419  1.0000
  O   O5        1.0  0.26901  0.49211  0.81875  1.0000
  O   O6        1.0  0.23099  0.99211  0.68125  1.0000
  O   O7        1.0  0.73100  0.50788  0.18125  1.0000
  O   O8        1.0  0.76901  0.00789  0.31875  1.0000
  O   O9        1.0  0.31382  0.36984  0.05956  1.0000
  O   O10       1.0  0.18618  0.86984  0.44044  1.0000
  O   O11       1.0  0.68618  0.63016  0.94044  1.0000
  O   O12       1.0  0.81382  0.13016  0.55956  1.0000
