data_image0
_chemical_formula_structural       MnH16C16N10O6
_chemical_formula_sum              "Mn1 H16 C16 N10 O6"
_cell_length_a       7.16491
_cell_length_b       8.71424
_cell_length_c       8.93209
_cell_angle_alpha    72.8335
_cell_angle_beta     67.8858
_cell_angle_gamma    66.5869

_space_group_name_H-M_alt    "P 1"
_space_group_IT_number       1

loop_
  _space_group_symop_operation_xyz
  'x, y, z'

loop_
  _atom_site_type_symbol
  _atom_site_label
  _atom_site_symmetry_multiplicity
  _atom_site_fract_x
  _atom_site_fract_y
  _atom_site_fract_z
  _atom_site_occupancy
  Mn  Mn1       1.0  0.00000  1.00000  1.00000  1.0000
  H   H1        1.0  0.59635  0.09026  0.18838  1.0000
  H   H2        1.0  0.40365  0.90974  0.81162  1.0000
  H   H3        1.0  0.76945  0.00689  0.28933  1.0000
  H   H4        1.0  0.23055  0.99311  0.71067  1.0000
  H   H5        1.0  0.06002  0.76444  0.63881  1.0000
  H   H6        1.0  0.93999  0.23556  0.36120  1.0000
  H   H7        1.0  0.17007  0.60492  0.89307  1.0000
  H   H8        1.0  0.82993  0.39507  0.10693  1.0000
  H   H9        1.0  0.48635  0.15732  0.70251  1.0000
  H   H10       1.0  0.51365  0.84268  0.29749  1.0000
  H   H11       1.0  0.38356  0.29763  0.44068  1.0000
  H   H12       1.0  0.61643  0.70237  0.55932  1.0000
  H   H13       1.0  0.37144  0.38210  0.02037  1.0000
  H   H14       1.0  0.62856  0.61790  0.97964  1.0000
  H   H15       1.0  0.56554  0.22003  0.90831  1.0000
  H   H16       1.0  0.43446  0.77997  0.09169  1.0000
  C   C1        1.0  0.17087  0.62334  0.36297  1.0000
  C   C2        1.0  0.82913  0.37666  0.63703  1.0000
  C   C3        1.0  0.21287  0.54271  0.51853  1.0000
  C   C4        1.0  0.78713  0.45729  0.48147  1.0000
  C   C5        1.0  0.15113  0.62979  0.64830  1.0000
  C   C6        1.0  0.84888  0.37021  0.35169  1.0000
  C   C7        1.0  0.20769  0.54419  0.78979  1.0000
  C   C8        1.0  0.79231  0.45581  0.21022  1.0000
  C   C9        1.0  0.38521  0.28879  0.68179  1.0000
  C   C10       1.0  0.61479  0.71121  0.31822  1.0000
  C   C11       1.0  0.33070  0.36802  0.53970  1.0000
  C   C12       1.0  0.66930  0.63197  0.46030  1.0000
  C   C13       1.0  0.39501  0.28829  0.95061  1.0000
  C   C14       1.0  0.60499  0.71171  0.04939  1.0000
  C   C15       1.0  0.29478  0.15411  0.06725  1.0000
  C   C16       1.0  0.70522  0.84589  0.93275  1.0000
  N   N1        1.0  0.08100  0.79091  0.31171  1.0000
  N   N2        1.0  0.91900  0.20909  0.68829  1.0000
  N   N3        1.0  0.09320  0.79855  0.15588  1.0000
  N   N4        1.0  0.90680  0.20145  0.84412  1.0000
  N   N5        1.0  0.18044  0.64177  0.11641  1.0000
  N   N6        1.0  0.81956  0.35823  0.88359  1.0000
  N   N7        1.0  0.23213  0.53176  0.24314  1.0000
  N   N8        1.0  0.76787  0.46824  0.75686  1.0000
  N   N9        1.0  0.32325  0.37644  0.80508  1.0000
  N   N10       1.0  0.67676  0.62356  0.19492  1.0000
  O   O1        1.0  0.15257  0.13037  0.03348  1.0000
  O   O2        1.0  0.84743  0.86963  0.96651  1.0000
  O   O3        1.0  0.36784  0.08013  0.18787  1.0000
  O   O4        1.0  0.63216  0.91987  0.81213  1.0000
  O   O5        1.0  0.73777  0.08739  0.19203  1.0000
  O   O6        1.0  0.26223  0.91261  0.80797  1.0000
