data_image0
_chemical_formula_structural       Gd4H24C8Cl4O28
_chemical_formula_sum              "Gd4 H24 C8 Cl4 O28"
_cell_length_a       5.84562
_cell_length_b       8.22313
_cell_length_c       15.5559
_cell_angle_alpha    90
_cell_angle_beta     90.0001
_cell_angle_gamma    105.044

_space_group_name_H-M_alt    "P 1"
_space_group_IT_number       1

loop_
  _space_group_symop_operation_xyz
  'x, y, z'

loop_
  _atom_site_type_symbol
  _atom_site_label
  _atom_site_symmetry_multiplicity
  _atom_site_fract_x
  _atom_site_fract_y
  _atom_site_fract_z
  _atom_site_occupancy
  Gd  Gd1       1.0  0.98120  0.16875  0.39186  1.0000
  Gd  Gd2       1.0  0.51880  0.33126  0.89185  1.0000
  Gd  Gd3       1.0  0.01879  0.83126  0.60815  1.0000
  Gd  Gd4       1.0  0.48121  0.66874  0.10814  1.0000
  H   H1        1.0  0.33997  0.49720  0.33294  1.0000
  H   H2        1.0  0.16005  0.00280  0.83293  1.0000
  H   H3        1.0  0.66004  0.50280  0.66706  1.0000
  H   H4        1.0  0.83996  0.99720  0.16706  1.0000
  H   H5        1.0  0.49800  0.37944  0.36830  1.0000
  H   H6        1.0  0.00201  0.12056  0.86829  1.0000
  H   H7        1.0  0.50201  0.62056  0.63171  1.0000
  H   H8        1.0  0.99800  0.87944  0.13171  1.0000
  H   H9        1.0  0.21218  0.95506  0.27785  1.0000
  H   H10       1.0  0.28783  0.54494  0.77785  1.0000
  H   H11       1.0  0.78783  0.04495  0.72215  1.0000
  H   H12       1.0  0.71218  0.45506  0.22215  1.0000
  H   H13       1.0  0.37746  0.13644  0.26662  1.0000
  H   H14       1.0  0.12255  0.36356  0.76662  1.0000
  H   H15       1.0  0.62255  0.86357  0.73338  1.0000
  H   H16       1.0  0.87746  0.63644  0.23338  1.0000
  H   H17       1.0  0.64585  0.83362  0.32370  1.0000
  H   H18       1.0  0.85415  0.66639  0.82370  1.0000
  H   H19       1.0  0.35415  0.16639  0.67630  1.0000
  H   H20       1.0  0.14585  0.33362  0.17630  1.0000
  H   H21       1.0  0.83072  0.79259  0.39121  1.0000
  H   H22       1.0  0.66927  0.70742  0.89120  1.0000
  H   H23       1.0  0.16928  0.20742  0.60879  1.0000
  H   H24       1.0  0.33072  0.29259  0.10879  1.0000
  C   C1        1.0  0.05681  0.46418  0.53815  1.0000
  C   C2        1.0  0.44318  0.03581  0.03815  1.0000
  C   C3        1.0  0.94318  0.53581  0.46185  1.0000
  C   C4        1.0  0.55679  0.96417  0.96185  1.0000
  C   C5        1.0  0.44181  0.04859  0.46834  1.0000
  C   C6        1.0  0.05819  0.45140  0.96834  1.0000
  C   C7        1.0  0.55819  0.95140  0.53166  1.0000
  C   C8        1.0  0.94181  0.54859  0.03166  1.0000
  Cl  Cl1       1.0  0.79047  0.21809  0.22878  1.0000
  Cl  Cl2       1.0  0.70954  0.28191  0.72878  1.0000
  Cl  Cl3       1.0  0.20953  0.78191  0.77121  1.0000
  Cl  Cl4       1.0  0.29047  0.71809  0.27122  1.0000
  O   O1        1.0  0.08042  0.31563  0.52836  1.0000
  O   O2        1.0  0.41958  0.18437  0.02836  1.0000
  O   O3        1.0  0.91959  0.68438  0.47164  1.0000
  O   O4        1.0  0.58040  0.81562  0.97164  1.0000
  O   O5        1.0  0.11604  0.55669  0.60315  1.0000
  O   O6        1.0  0.38395  0.94332  0.10315  1.0000
  O   O7        1.0  0.88395  0.44330  0.39686  1.0000
  O   O8        1.0  0.61603  0.05669  0.89685  1.0000
  O   O9        1.0  0.57452  0.14727  0.41673  1.0000
  O   O10       1.0  0.92546  0.35271  0.91673  1.0000
  O   O11       1.0  0.42545  0.85271  0.58327  1.0000
  O   O12       1.0  0.07453  0.64727  0.08327  1.0000
  O   O13       1.0  0.21796  0.02115  0.47363  1.0000
  O   O14       1.0  0.28203  0.47884  0.97364  1.0000
  O   O15       1.0  0.78202  0.97884  0.52636  1.0000
  O   O16       1.0  0.71797  0.52115  0.02637  1.0000
  O   O17       1.0  0.33597  0.39155  0.36400  1.0000
  O   O18       1.0  0.16404  0.10845  0.86400  1.0000
  O   O19       1.0  0.66404  0.60845  0.63600  1.0000
  O   O20       1.0  0.83597  0.89155  0.13600  1.0000
  O   O21       1.0  0.21472  0.07558  0.28157  1.0000
  O   O22       1.0  0.28528  0.42442  0.78157  1.0000
  O   O23       1.0  0.78528  0.92443  0.71843  1.0000
  O   O24       1.0  0.71472  0.57558  0.21843  1.0000
  O   O25       1.0  0.79998  0.88069  0.35177  1.0000
  O   O26       1.0  0.70002  0.61932  0.85177  1.0000
  O   O27       1.0  0.20002  0.11932  0.64823  1.0000
  O   O28       1.0  0.29998  0.38069  0.14823  1.0000
