data_image0
_chemical_formula_structural       Cu2H24C40N4O16
_chemical_formula_sum              "Cu2 H24 C40 N4 O16"
_cell_length_a       8.80949
_cell_length_b       8.8095
_cell_length_c       12.9299
_cell_angle_alpha    102.666
_cell_angle_beta     102.666
_cell_angle_gamma    110.659

_space_group_name_H-M_alt    "P 1"
_space_group_IT_number       1

loop_
  _space_group_symop_operation_xyz
  'x, y, z'

loop_
  _atom_site_type_symbol
  _atom_site_label
  _atom_site_symmetry_multiplicity
  _atom_site_fract_x
  _atom_site_fract_y
  _atom_site_fract_z
  _atom_site_occupancy
  Cu  Cu1       1.0  0.30829  0.69171  0.75000  1.0000
  Cu  Cu2       1.0  0.69171  0.30829  0.25000  1.0000
  H   H1        1.0  0.96480  0.55165  0.21887  1.0000
  H   H2        1.0  0.44835  0.03520  0.28113  1.0000
  H   H3        1.0  0.03520  0.44835  0.78113  1.0000
  H   H4        1.0  0.55165  0.96480  0.71887  1.0000
  H   H5        1.0  0.17434  0.51004  0.49696  1.0000
  H   H6        1.0  0.48995  0.82566  0.00304  1.0000
  H   H7        1.0  0.82566  0.48996  0.50304  1.0000
  H   H8        1.0  0.51004  0.17434  0.99696  1.0000
  H   H9        1.0  0.21734  0.28019  0.37236  1.0000
  H   H10       1.0  0.71981  0.78266  0.12764  1.0000
  H   H11       1.0  0.78266  0.71981  0.62764  1.0000
  H   H12       1.0  0.28019  0.21734  0.87236  1.0000
  H   H13       1.0  0.42582  0.16937  0.45828  1.0000
  H   H14       1.0  0.83063  0.57418  0.04171  1.0000
  H   H15       1.0  0.57417  0.83063  0.54171  1.0000
  H   H16       1.0  0.16937  0.42583  0.95829  1.0000
  H   H17       1.0  0.57732  0.29090  0.66254  1.0000
  H   H18       1.0  0.70910  0.42268  0.83746  1.0000
  H   H19       1.0  0.42268  0.70910  0.33745  1.0000
  H   H20       1.0  0.29090  0.57732  0.16255  1.0000
  H   H21       1.0  0.85706  0.88398  0.29483  1.0000
  H   H22       1.0  0.11603  0.14294  0.20517  1.0000
  H   H23       1.0  0.14294  0.11602  0.70517  1.0000
  H   H24       1.0  0.88398  0.85706  0.79483  1.0000
  C   C1        1.0  0.26125  0.45733  0.53045  1.0000
  C   C2        1.0  0.54267  0.73875  0.96955  1.0000
  C   C3        1.0  0.73874  0.54267  0.46955  1.0000
  C   C4        1.0  0.45733  0.26126  0.03045  1.0000
  C   C5        1.0  0.28734  0.32952  0.46166  1.0000
  C   C6        1.0  0.67048  0.71266  0.03834  1.0000
  C   C7        1.0  0.71265  0.67048  0.53834  1.0000
  C   C8        1.0  0.32952  0.28735  0.96166  1.0000
  C   C9        1.0  0.40197  0.26900  0.50917  1.0000
  C   C10       1.0  0.73101  0.59803  0.99083  1.0000
  C   C11       1.0  0.59803  0.73100  0.49082  1.0000
  C   C12       1.0  0.26900  0.40197  0.00918  1.0000
  C   C13       1.0  0.48757  0.33713  0.62448  1.0000
  C   C14       1.0  0.66287  0.51243  0.87552  1.0000
  C   C15       1.0  0.51243  0.66287  0.37552  1.0000
  C   C16       1.0  0.33712  0.48757  0.12448  1.0000
  C   C17       1.0  0.45581  0.46402  0.68895  1.0000
  C   C18       1.0  0.53598  0.54419  0.81105  1.0000
  C   C19       1.0  0.54419  0.53598  0.31105  1.0000
  C   C20       1.0  0.46402  0.45581  0.18895  1.0000
  C   C21       1.0  0.11335  0.93733  0.55092  1.0000
  C   C22       1.0  0.06267  0.88665  0.94908  1.0000
  C   C23       1.0  0.88665  0.06267  0.44909  1.0000
  C   C24       1.0  0.93733  0.11335  0.05092  1.0000
  C   C25       1.0  0.03094  0.87167  0.43421  1.0000
  C   C26       1.0  0.12833  0.96906  0.06579  1.0000
  C   C27       1.0  0.96906  0.12833  0.56579  1.0000
  C   C28       1.0  0.87168  0.03094  0.93421  1.0000
  C   C29       1.0  0.91919  0.93540  0.38522  1.0000
  C   C30       1.0  0.06460  0.08081  0.11479  1.0000
  C   C31       1.0  0.08081  0.06460  0.61479  1.0000
  C   C32       1.0  0.93540  0.91919  0.88521  1.0000
  C   C33       1.0  0.23394  0.87690  0.61364  1.0000
  C   C34       1.0  0.12310  0.76606  0.88636  1.0000
  C   C35       1.0  0.76606  0.12310  0.38636  1.0000
  C   C36       1.0  0.87691  0.23394  0.11364  1.0000
  C   C37       1.0  0.06257  0.73484  0.36381  1.0000
  C   C38       1.0  0.26516  0.93743  0.13619  1.0000
  C   C39       1.0  0.93743  0.26516  0.63619  1.0000
  C   C40       1.0  0.73484  0.06257  0.86381  1.0000
  N   N1        1.0  0.34392  0.52235  0.64100  1.0000
  N   N2        1.0  0.47765  0.65608  0.85900  1.0000
  N   N3        1.0  0.65608  0.47765  0.35900  1.0000
  N   N4        1.0  0.52236  0.34392  0.14100  1.0000
  O   O1        1.0  0.16036  0.73969  0.63622  1.0000
  O   O2        1.0  0.26031  0.83964  0.86378  1.0000
  O   O3        1.0  0.83964  0.26030  0.36378  1.0000
  O   O4        1.0  0.73970  0.16036  0.13622  1.0000
  O   O5        1.0  0.39207  0.97143  0.64642  1.0000
  O   O6        1.0  0.02857  0.60793  0.85358  1.0000
  O   O7        1.0  0.60794  0.02857  0.35358  1.0000
  O   O8        1.0  0.97143  0.39206  0.14642  1.0000
  O   O9        1.0  0.18180  0.69797  0.39927  1.0000
  O   O10       1.0  0.30203  0.81819  0.10073  1.0000
  O   O11       1.0  0.81820  0.30204  0.60074  1.0000
  O   O12       1.0  0.69796  0.18180  0.89926  1.0000
  O   O13       1.0  0.94854  0.65640  0.26046  1.0000
  O   O14       1.0  0.34361  0.05146  0.23954  1.0000
  O   O15       1.0  0.05146  0.34360  0.73954  1.0000
  O   O16       1.0  0.65640  0.94854  0.76046  1.0000
