data_image0
_chemical_formula_structural       Cd4H32C24S4N8Cl4O4
_chemical_formula_sum              "Cd4 H32 C24 S4 N8 Cl4 O4"
_cell_length_a       9.57378
_cell_length_b       10.4605
_cell_length_c       11.0368
_cell_angle_alpha    90.0003
_cell_angle_beta     89.9996
_cell_angle_gamma    113.34

_space_group_name_H-M_alt    "P 1"
_space_group_IT_number       1

loop_
  _space_group_symop_operation_xyz
  'x, y, z'

loop_
  _atom_site_type_symbol
  _atom_site_label
  _atom_site_symmetry_multiplicity
  _atom_site_fract_x
  _atom_site_fract_y
  _atom_site_fract_z
  _atom_site_occupancy
  Cd  Cd1       1.0  0.64482  0.63994  0.89901  1.0000
  Cd  Cd2       1.0  0.35518  0.86006  0.39902  1.0000
  Cd  Cd3       1.0  0.35517  0.36006  0.10098  1.0000
  Cd  Cd4       1.0  0.64483  0.13994  0.60098  1.0000
  H   H1        1.0  0.73285  0.39162  0.79171  1.0000
  H   H2        1.0  0.26715  0.10837  0.29171  1.0000
  H   H3        1.0  0.26715  0.60837  0.20829  1.0000
  H   H4        1.0  0.73284  0.89163  0.70829  1.0000
  H   H5        1.0  0.48883  0.70031  0.62706  1.0000
  H   H6        1.0  0.51117  0.79969  0.12706  1.0000
  H   H7        1.0  0.51117  0.29968  0.37293  1.0000
  H   H8        1.0  0.48883  0.20032  0.87293  1.0000
  H   H9        1.0  0.99196  0.65025  0.10969  1.0000
  H   H10       1.0  0.00804  0.84976  0.60969  1.0000
  H   H11       1.0  0.00803  0.34974  0.89031  1.0000
  H   H12       1.0  0.99197  0.15025  0.39032  1.0000
  H   H13       1.0  0.11360  0.82754  0.06941  1.0000
  H   H14       1.0  0.88640  0.67247  0.56941  1.0000
  H   H15       1.0  0.88639  0.17246  0.93059  1.0000
  H   H16       1.0  0.11361  0.32754  0.43059  1.0000
  H   H17       1.0  0.18494  0.69172  0.06190  1.0000
  H   H18       1.0  0.81506  0.80828  0.56190  1.0000
  H   H19       1.0  0.81505  0.30827  0.93810  1.0000
  H   H20       1.0  0.18495  0.19172  0.43811  1.0000
  H   H21       1.0  0.17654  0.78234  0.72669  1.0000
  H   H22       1.0  0.82346  0.71766  0.22669  1.0000
  H   H23       1.0  0.82346  0.21766  0.27331  1.0000
  H   H24       1.0  0.17655  0.28235  0.77332  1.0000
  H   H25       1.0  0.28295  0.75020  0.84874  1.0000
  H   H26       1.0  0.71705  0.74980  0.34874  1.0000
  H   H27       1.0  0.71704  0.24979  0.15127  1.0000
  H   H28       1.0  0.28296  0.25021  0.65127  1.0000
  H   H29       1.0  0.22824  0.89688  0.85555  1.0000
  H   H30       1.0  0.77176  0.60312  0.35555  1.0000
  H   H31       1.0  0.77176  0.10311  0.14445  1.0000
  H   H32       1.0  0.22824  0.39689  0.64445  1.0000
  C   C1        1.0  0.56574  0.41346  0.54413  1.0000
  C   C2        1.0  0.43426  0.08655  0.04414  1.0000
  C   C3        1.0  0.43425  0.58654  0.45586  1.0000
  C   C4        1.0  0.56575  0.91347  0.95586  1.0000
  C   C5        1.0  0.67332  0.41820  0.71857  1.0000
  C   C6        1.0  0.32667  0.08180  0.21858  1.0000
  C   C7        1.0  0.32667  0.58179  0.28143  1.0000
  C   C8        1.0  0.67333  0.91821  0.78142  1.0000
  C   C9        1.0  0.55959  0.52594  0.61573  1.0000
  C   C10       1.0  0.44042  0.97407  0.11573  1.0000
  C   C11       1.0  0.44042  0.47406  0.38427  1.0000
  C   C12       1.0  0.55960  0.02594  0.88427  1.0000
  C   C13       1.0  0.49368  0.61492  0.57303  1.0000
  C   C14       1.0  0.50632  0.88509  0.07304  1.0000
  C   C15       1.0  0.50631  0.38508  0.42696  1.0000
  C   C16       1.0  0.49369  0.11492  0.92697  1.0000
  C   C17       1.0  0.08480  0.71685  0.05139  1.0000
  C   C18       1.0  0.91520  0.78316  0.55139  1.0000
  C   C19       1.0  0.91518  0.28315  0.94861  1.0000
  C   C20       1.0  0.08481  0.21685  0.44862  1.0000
  C   C21       1.0  0.19561  0.78915  0.82476  1.0000
  C   C22       1.0  0.80439  0.71085  0.32476  1.0000
  C   C23       1.0  0.80439  0.21084  0.17524  1.0000
  C   C24       1.0  0.19562  0.28916  0.67525  1.0000
  S   S1        1.0  0.02116  0.68018  0.89702  1.0000
  S   S2        1.0  0.97884  0.81981  0.39703  1.0000
  S   S3        1.0  0.97883  0.31981  0.10297  1.0000
  S   S4        1.0  0.02117  0.18019  0.60298  1.0000
  N   N1        1.0  0.63856  0.34736  0.61331  1.0000
  N   N2        1.0  0.36145  0.15264  0.11331  1.0000
  N   N3        1.0  0.36145  0.65264  0.38669  1.0000
  N   N4        1.0  0.63856  0.84736  0.88669  1.0000
  N   N5        1.0  0.62902  0.52474  0.72599  1.0000
  N   N6        1.0  0.37099  0.97526  0.22599  1.0000
  N   N7        1.0  0.37097  0.47525  0.27401  1.0000
  N   N8        1.0  0.62902  0.02475  0.77400  1.0000
  Cl  Cl1       1.0  0.66867  0.48124  0.06214  1.0000
  Cl  Cl2       1.0  0.33132  0.01875  0.56216  1.0000
  Cl  Cl3       1.0  0.33132  0.51876  0.93784  1.0000
  Cl  Cl4       1.0  0.66868  0.98125  0.43784  1.0000
  O   O1        1.0  0.91416  0.75445  0.87637  1.0000
  O   O2        1.0  0.08584  0.74554  0.37638  1.0000
  O   O3        1.0  0.08584  0.24553  0.12362  1.0000
  O   O4        1.0  0.91417  0.25446  0.62364  1.0000
