data_image0
_chemical_formula_structural       Co2H28C28N8Cl4
_chemical_formula_sum              "Co2 H28 C28 N8 Cl4"
_cell_length_a       7.79409
_cell_length_b       8.88318
_cell_length_c       10.9907
_cell_angle_alpha    90
_cell_angle_beta     90.0001
_cell_angle_gamma    100.256

_space_group_name_H-M_alt    "P 1"
_space_group_IT_number       1

loop_
  _space_group_symop_operation_xyz
  'x, y, z'

loop_
  _atom_site_type_symbol
  _atom_site_label
  _atom_site_symmetry_multiplicity
  _atom_site_fract_x
  _atom_site_fract_y
  _atom_site_fract_z
  _atom_site_occupancy
  Co  Co1       1.0  0.70666  0.78628  0.48807  1.0000
  Co  Co2       1.0  0.29334  0.21372  0.98807  1.0000
  H   H1        1.0  0.31317  0.54421  0.37582  1.0000
  H   H2        1.0  0.68683  0.45579  0.87581  1.0000
  H   H3        1.0  0.38180  0.11916  0.54089  1.0000
  H   H4        1.0  0.61819  0.88084  0.04088  1.0000
  H   H5        1.0  0.10286  0.40067  0.22933  1.0000
  H   H6        1.0  0.89714  0.59933  0.72933  1.0000
  H   H7        1.0  0.17544  0.97536  0.39247  1.0000
  H   H8        1.0  0.82456  0.02463  0.89246  1.0000
  H   H9        1.0  0.88064  0.03316  0.25440  1.0000
  H   H10       1.0  0.11936  0.96684  0.75440  1.0000
  H   H11       1.0  0.96194  0.17148  0.14172  1.0000
  H   H12       1.0  0.03807  0.82852  0.64172  1.0000
  H   H13       1.0  0.94092  0.77622  0.23424  1.0000
  H   H14       1.0  0.05908  0.22378  0.73424  1.0000
  H   H15       1.0  0.13061  0.63164  0.07190  1.0000
  H   H16       1.0  0.86939  0.36836  0.57190  1.0000
  H   H17       1.0  0.32668  0.87457  0.94714  1.0000
  H   H18       1.0  0.67332  0.12544  0.44714  1.0000
  H   H19       1.0  0.47605  0.90114  0.68844  1.0000
  H   H20       1.0  0.52394  0.09886  0.18844  1.0000
  H   H21       1.0  0.21754  0.70632  0.81205  1.0000
  H   H22       1.0  0.78246  0.29367  0.31204  1.0000
  H   H23       1.0  0.24614  0.42235  0.72681  1.0000
  H   H24       1.0  0.75386  0.57765  0.22681  1.0000
  H   H25       1.0  0.54173  0.34594  0.61722  1.0000
  H   H26       1.0  0.45827  0.65407  0.11721  1.0000
  H   H27       1.0  0.61836  0.47714  0.49870  1.0000
  H   H28       1.0  0.38163  0.52286  0.99870  1.0000
  C   C1        1.0  0.36434  0.34047  0.46628  1.0000
  C   C2        1.0  0.63566  0.65953  0.96627  1.0000
  C   C3        1.0  0.28278  0.41954  0.37992  1.0000
  C   C4        1.0  0.71722  0.58046  0.87991  1.0000
  C   C5        1.0  0.32233  0.18066  0.47116  1.0000
  C   C6        1.0  0.67766  0.81934  0.97115  1.0000
  C   C7        1.0  0.16434  0.33912  0.29792  1.0000
  C   C8        1.0  0.83565  0.66088  0.79791  1.0000
  C   C9        1.0  0.20500  0.10010  0.38851  1.0000
  C   C10       1.0  0.79499  0.89989  0.88851  1.0000
  C   C11       1.0  0.12603  0.17901  0.30060  1.0000
  C   C12       1.0  0.87397  0.82099  0.80060  1.0000
  C   C13       1.0  0.99979  0.09303  0.20970  1.0000
  C   C14       1.0  0.00021  0.90697  0.70970  1.0000
  C   C15       1.0  0.03310  0.82212  0.16393  1.0000
  C   C16       1.0  0.96690  0.17788  0.66394  1.0000
  C   C17       1.0  0.13287  0.75314  0.08361  1.0000
  C   C18       1.0  0.86714  0.24686  0.58361  1.0000
  C   C19       1.0  0.23088  0.87447  0.01862  1.0000
  C   C20       1.0  0.76912  0.12554  0.51862  1.0000
  C   C21       1.0  0.43673  0.77803  0.68058  1.0000
  C   C22       1.0  0.56327  0.22197  0.18058  1.0000
  C   C23       1.0  0.30704  0.67905  0.74378  1.0000
  C   C24       1.0  0.69296  0.32095  0.24378  1.0000
  C   C25       1.0  0.31644  0.53388  0.70100  1.0000
  C   C26       1.0  0.68355  0.46612  0.20099  1.0000
  C   C27       1.0  0.50192  0.42474  0.55015  1.0000
  C   C28       1.0  0.49807  0.57526  0.05015  1.0000
  N   N1        1.0  0.52013  0.69790  0.60288  1.0000
  N   N2        1.0  0.47986  0.30210  0.10288  1.0000
  N   N3        1.0  0.44407  0.54862  0.61660  1.0000
  N   N4        1.0  0.55593  0.45138  0.11659  1.0000
  N   N5        1.0  0.19329  0.00944  0.05631  1.0000
  N   N6        1.0  0.80671  0.99056  0.55630  1.0000
  N   N7        1.0  0.07146  0.97481  0.14526  1.0000
  N   N8        1.0  0.92854  0.02519  0.64526  1.0000
  Cl  Cl1       1.0  0.58466  0.83408  0.31234  1.0000
  Cl  Cl2       1.0  0.41535  0.16592  0.81234  1.0000
  Cl  Cl3       1.0  0.91845  0.65172  0.45852  1.0000
  Cl  Cl4       1.0  0.08155  0.34828  0.95852  1.0000
