data_image0
_chemical_formula_structural       Ca4H32C20N8O28
_chemical_formula_sum              "Ca4 H32 C20 N8 O28"
_cell_length_a       6.31783
_cell_length_b       8.58548
_cell_length_c       16.9086
_cell_angle_alpha    90.0006
_cell_angle_beta     96.8363
_cell_angle_gamma    90

_space_group_name_H-M_alt    "P 1"
_space_group_IT_number       1

loop_
  _space_group_symop_operation_xyz
  'x, y, z'

loop_
  _atom_site_type_symbol
  _atom_site_label
  _atom_site_symmetry_multiplicity
  _atom_site_fract_x
  _atom_site_fract_y
  _atom_site_fract_z
  _atom_site_occupancy
  Ca  Ca1       1.0  0.28658  0.99837  0.28798  1.0000
  Ca  Ca2       1.0  0.21340  0.49838  0.21202  1.0000
  Ca  Ca3       1.0  0.71341  0.00163  0.71201  1.0000
  Ca  Ca4       1.0  0.78660  0.50163  0.78798  1.0000
  H   H1        1.0  0.34070  0.66258  0.00795  1.0000
  H   H2        1.0  0.15929  0.16256  0.49205  1.0000
  H   H3        1.0  0.65930  0.33744  0.99206  1.0000
  H   H4        1.0  0.84070  0.83742  0.50795  1.0000
  H   H5        1.0  0.19206  0.13786  0.96916  1.0000
  H   H6        1.0  0.30794  0.63784  0.53084  1.0000
  H   H7        1.0  0.80795  0.86217  0.03083  1.0000
  H   H8        1.0  0.69206  0.36214  0.46917  1.0000
  H   H9        1.0  0.70737  0.13757  0.36322  1.0000
  H   H10       1.0  0.79261  0.63757  0.13677  1.0000
  H   H11       1.0  0.29261  0.86243  0.63677  1.0000
  H   H12       1.0  0.20738  0.36243  0.86322  1.0000
  H   H13       1.0  0.55245  0.27263  0.33260  1.0000
  H   H14       1.0  0.94753  0.77264  0.16740  1.0000
  H   H15       1.0  0.44754  0.72737  0.66740  1.0000
  H   H16       1.0  0.05246  0.22737  0.83260  1.0000
  H   H17       1.0  0.82042  0.92359  0.24351  1.0000
  H   H18       1.0  0.67956  0.42359  0.25650  1.0000
  H   H19       1.0  0.17957  0.07640  0.75649  1.0000
  H   H20       1.0  0.32044  0.57641  0.74351  1.0000
  H   H21       1.0  0.87757  0.02120  0.16743  1.0000
  H   H22       1.0  0.62240  0.52119  0.33257  1.0000
  H   H23       1.0  0.12241  0.97880  0.83257  1.0000
  H   H24       1.0  0.37759  0.47880  0.66743  1.0000
  H   H25       1.0  0.56548  0.77666  0.24385  1.0000
  H   H26       1.0  0.93451  0.27667  0.25615  1.0000
  H   H27       1.0  0.43451  0.22333  0.75615  1.0000
  H   H28       1.0  0.06550  0.72333  0.74385  1.0000
  H   H29       1.0  0.66756  0.78740  0.33478  1.0000
  H   H30       1.0  0.83241  0.28740  0.16522  1.0000
  H   H31       1.0  0.33242  0.21260  0.66522  1.0000
  H   H32       1.0  0.16758  0.71260  0.83478  1.0000
  C   C1        1.0  0.28323  0.21724  0.12680  1.0000
  C   C2        1.0  0.21678  0.71724  0.37321  1.0000
  C   C3        1.0  0.71680  0.78277  0.87319  1.0000
  C   C4        1.0  0.78323  0.28275  0.62680  1.0000
  C   C5        1.0  0.29530  0.05841  0.08816  1.0000
  C   C6        1.0  0.20472  0.55839  0.41185  1.0000
  C   C7        1.0  0.70471  0.94162  0.91183  1.0000
  C   C8        1.0  0.79530  0.44159  0.58816  1.0000
  C   C9        1.0  0.24285  0.03955  0.00731  1.0000
  C   C10       1.0  0.25718  0.53953  0.49269  1.0000
  C   C11       1.0  0.75717  0.96047  0.99268  1.0000
  C   C12       1.0  0.74285  0.46044  0.50732  1.0000
  C   C13       1.0  0.25507  0.88768  0.97467  1.0000
  C   C14       1.0  0.24495  0.38767  0.52533  1.0000
  C   C15       1.0  0.74496  0.11234  0.02533  1.0000
  C   C16       1.0  0.75506  0.61232  0.47467  1.0000
  C   C17       1.0  0.38108  0.79813  0.10929  1.0000
  C   C18       1.0  0.11893  0.29810  0.39071  1.0000
  C   C19       1.0  0.61895  0.20190  0.89071  1.0000
  C   C20       1.0  0.88109  0.70187  0.60929  1.0000
  N   N1        1.0  0.32459  0.77285  0.02878  1.0000
  N   N2        1.0  0.17543  0.27283  0.47123  1.0000
  N   N3        1.0  0.67543  0.22717  0.97123  1.0000
  N   N4        1.0  0.82459  0.72715  0.52878  1.0000
  N   N5        1.0  0.35881  0.94116  0.13934  1.0000
  N   N6        1.0  0.14118  0.44114  0.36066  1.0000
  N   N7        1.0  0.64119  0.05887  0.86066  1.0000
  N   N8        1.0  0.85883  0.55884  0.63934  1.0000
  O   O1        1.0  0.26597  0.33946  0.08526  1.0000
  O   O2        1.0  0.23404  0.83945  0.41475  1.0000
  O   O3        1.0  0.73409  0.66056  0.91474  1.0000
  O   O4        1.0  0.76596  0.16054  0.58525  1.0000
  O   O5        1.0  0.29032  0.21750  0.20305  1.0000
  O   O6        1.0  0.20961  0.71751  0.29695  1.0000
  O   O7        1.0  0.70964  0.78251  0.79694  1.0000
  O   O8        1.0  0.79036  0.28249  0.70305  1.0000
  O   O9        1.0  0.45392  0.68345  0.15273  1.0000
  O   O10       1.0  0.04608  0.18343  0.34728  1.0000
  O   O11       1.0  0.54608  0.31657  0.84728  1.0000
  O   O12       1.0  0.95393  0.81653  0.65273  1.0000
  O   O13       1.0  0.21098  0.85236  0.90185  1.0000
  O   O14       1.0  0.28902  0.35234  0.59815  1.0000
  O   O15       1.0  0.78901  0.14765  0.09814  1.0000
  O   O16       1.0  0.71097  0.64764  0.40186  1.0000
  O   O17       1.0  0.55718  0.16762  0.35889  1.0000
  O   O18       1.0  0.94279  0.66762  0.14111  1.0000
  O   O19       1.0  0.44280  0.83238  0.64111  1.0000
  O   O20       1.0  0.05719  0.33238  0.85889  1.0000
  O   O21       1.0  0.93918  0.94995  0.21119  1.0000
  O   O22       1.0  0.56080  0.44995  0.28881  1.0000
  O   O23       1.0  0.06081  0.05005  0.78881  1.0000
  O   O24       1.0  0.43920  0.55004  0.71119  1.0000
  O   O25       1.0  0.62271  0.85128  0.28646  1.0000
  O   O26       1.0  0.87724  0.35129  0.21354  1.0000
  O   O27       1.0  0.37726  0.14871  0.71354  1.0000
  O   O28       1.0  0.12275  0.64871  0.78646  1.0000
