data_image0
_chemical_formula_structural       Ag6H36C24N18
_chemical_formula_sum              "Ag6 H36 C24 N18"
_cell_length_a       7.37012
_cell_length_b       11.9408
_cell_length_c       11.9407
_cell_angle_alpha    63.5693
_cell_angle_beta     71.9854
_cell_angle_gamma    71.9855

_space_group_name_H-M_alt    "P 1"
_space_group_IT_number       1

loop_
  _space_group_symop_operation_xyz
  'x, y, z'

loop_
  _atom_site_type_symbol
  _atom_site_label
  _atom_site_symmetry_multiplicity
  _atom_site_fract_x
  _atom_site_fract_y
  _atom_site_fract_z
  _atom_site_occupancy
  Ag  Ag1       1.0  0.87813  0.84145  0.99791  1.0000
  Ag  Ag2       1.0  0.28237  0.99782  0.84137  1.0000
  Ag  Ag3       1.0  0.37813  0.49791  0.34145  1.0000
  Ag  Ag4       1.0  0.78237  0.34137  0.49782  1.0000
  Ag  Ag5       1.0  0.91875  0.08166  0.08117  1.0000
  Ag  Ag6       1.0  0.41875  0.58116  0.58167  1.0000
  H   H1        1.0  0.86019  0.64158  0.86940  1.0000
  H   H2        1.0  0.62906  0.86929  0.64157  1.0000
  H   H3        1.0  0.36020  0.36940  0.14157  1.0000
  H   H4        1.0  0.12906  0.14158  0.36929  1.0000
  H   H5        1.0  0.05647  0.51019  0.90946  1.0000
  H   H6        1.0  0.52413  0.90953  0.51021  1.0000
  H   H7        1.0  0.55647  0.40946  0.01019  1.0000
  H   H8        1.0  0.02414  0.01021  0.40953  1.0000
  H   H9        1.0  0.01219  0.57953  0.75263  1.0000
  H   H10       1.0  0.65585  0.75261  0.57949  1.0000
  H   H11       1.0  0.51218  0.25264  0.07953  1.0000
  H   H12       1.0  0.15585  0.07949  0.25261  1.0000
  H   H13       1.0  0.86278  0.37016  0.85635  1.0000
  H   H14       1.0  0.91026  0.85677  0.36981  1.0000
  H   H15       1.0  0.36278  0.35635  0.87016  1.0000
  H   H16       1.0  0.41027  0.86981  0.35676  1.0000
  H   H17       1.0  0.69491  0.44143  0.75073  1.0000
  H   H18       1.0  0.11224  0.75104  0.44130  1.0000
  H   H19       1.0  0.19491  0.25073  0.94143  1.0000
  H   H20       1.0  0.61225  0.94130  0.25104  1.0000
  H   H21       1.0  0.94868  0.41181  0.68842  1.0000
  H   H22       1.0  0.95044  0.68881  0.41167  1.0000
  H   H23       1.0  0.44867  0.18841  0.91182  1.0000
  H   H24       1.0  0.45044  0.91167  0.18880  1.0000
  H   H25       1.0  0.92946  0.97130  0.64077  1.0000
  H   H26       1.0  0.45896  0.64054  0.97138  1.0000
  H   H27       1.0  0.42946  0.14077  0.47130  1.0000
  H   H28       1.0  0.95896  0.47138  0.14054  1.0000
  H   H29       1.0  0.70356  0.07622  0.60551  1.0000
  H   H30       1.0  0.61488  0.60540  0.07633  1.0000
  H   H31       1.0  0.20356  0.10551  0.57622  1.0000
  H   H32       1.0  0.11488  0.57633  0.10540  1.0000
  H   H33       1.0  0.70900  0.93796  0.75140  1.0000
  H   H34       1.0  0.60207  0.75117  0.93798  1.0000
  H   H35       1.0  0.20900  0.25140  0.43797  1.0000
  H   H36       1.0  0.10206  0.43798  0.25117  1.0000
  C   C1        1.0  0.14034  0.69176  0.79242  1.0000
  C   C2        1.0  0.37553  0.79242  0.69181  1.0000
  C   C3        1.0  0.64034  0.29242  0.19175  1.0000
  C   C4        1.0  0.87553  0.19181  0.29242  1.0000
  C   C5        1.0  0.00986  0.60127  0.83324  1.0000
  C   C6        1.0  0.55581  0.83324  0.60128  1.0000
  C   C7        1.0  0.50986  0.33324  0.10126  1.0000
  C   C8        1.0  0.05581  0.10128  0.33324  1.0000
  C   C9        1.0  0.83352  0.37403  0.76995  1.0000
  C   C10       1.0  0.02200  0.77022  0.37388  1.0000
  C   C11       1.0  0.33351  0.26994  0.87403  1.0000
  C   C12       1.0  0.52201  0.87388  0.27022  1.0000
  C   C13       1.0  0.78514  0.01528  0.68198  1.0000
  C   C14       1.0  0.51787  0.68184  0.01529  1.0000
  C   C15       1.0  0.28514  0.18198  0.51528  1.0000
  C   C16       1.0  0.01787  0.51529  0.18184  1.0000
  C   C17       1.0  0.80234  0.09109  0.74708  1.0000
  C   C18       1.0  0.35951  0.74705  0.09104  1.0000
  C   C19       1.0  0.30234  0.24708  0.59109  1.0000
  C   C20       1.0  0.85950  0.59104  0.24705  1.0000
  C   C21       1.0  0.82536  0.24505  0.78593  1.0000
  C   C22       1.0  0.14343  0.78601  0.24502  1.0000
  C   C23       1.0  0.32537  0.28593  0.74506  1.0000
  C   C24       1.0  0.64344  0.74502  0.28601  1.0000
  N   N1        1.0  0.30225  0.69786  0.69765  1.0000
  N   N2        1.0  0.80225  0.19765  0.19786  1.0000
  N   N3        1.0  0.11492  0.77712  0.84258  1.0000
  N   N4        1.0  0.26555  0.84222  0.77751  1.0000
  N   N5        1.0  0.61492  0.34258  0.27712  1.0000
  N   N6        1.0  0.76555  0.27751  0.34222  1.0000
  N   N7        1.0  0.80547  0.21767  0.69170  1.0000
  N   N8        1.0  0.28491  0.69166  0.21762  1.0000
  N   N9        1.0  0.30547  0.19170  0.71768  1.0000
  N   N10       1.0  0.78491  0.71762  0.19166  1.0000
  N   N11       1.0  0.81890  0.04248  0.86877  1.0000
  N   N12       1.0  0.27006  0.86881  0.04246  1.0000
  N   N13       1.0  0.31890  0.36877  0.54248  1.0000
  N   N14       1.0  0.77005  0.54246  0.36880  1.0000
  N   N15       1.0  0.83419  0.14086  0.89420  1.0000
  N   N16       1.0  0.13081  0.89430  0.14085  1.0000
  N   N17       1.0  0.33420  0.39420  0.64086  1.0000
  N   N18       1.0  0.63081  0.64085  0.39430  1.0000
