data_image0
_chemical_formula_structural       Ag4H24C16N12
_chemical_formula_sum              "Ag4 H24 C16 N12"
_cell_length_a       4.78178
_cell_length_b       11.022
_cell_length_c       11.022
_cell_angle_alpha    87.2781
_cell_angle_beta     77.4412
_cell_angle_gamma    77.4409

_space_group_name_H-M_alt    "P 1"
_space_group_IT_number       1

loop_
  _space_group_symop_operation_xyz
  'x, y, z'

loop_
  _atom_site_type_symbol
  _atom_site_label
  _atom_site_symmetry_multiplicity
  _atom_site_fract_x
  _atom_site_fract_y
  _atom_site_fract_z
  _atom_site_occupancy
  Ag  Ag1       1.0  0.87500  0.91987  0.58013  1.0000
  Ag  Ag2       1.0  0.37500  0.08018  0.41981  1.0000
  Ag  Ag3       1.0  0.20484  0.41975  0.91984  1.0000
  Ag  Ag4       1.0  0.54516  0.58016  0.08025  1.0000
  H   H1        1.0  0.69668  0.19104  0.92846  1.0000
  H   H2        1.0  0.81492  0.80983  0.07081  1.0000
  H   H3        1.0  0.11364  0.07121  0.19099  1.0000
  H   H4        1.0  0.37504  0.92908  0.80956  1.0000
  H   H5        1.0  0.05332  0.57154  0.30896  1.0000
  H   H6        1.0  0.93508  0.42919  0.69017  1.0000
  H   H7        1.0  0.63636  0.30901  0.42880  1.0000
  H   H8        1.0  0.37496  0.69044  0.57092  1.0000
  H   H9        1.0  0.98825  0.11221  0.81135  1.0000
  H   H10       1.0  0.91223  0.88774  0.18791  1.0000
  H   H11       1.0  0.89974  0.18808  0.11250  1.0000
  H   H12       1.0  0.20020  0.81193  0.88783  1.0000
  H   H13       1.0  0.76175  0.68865  0.38779  1.0000
  H   H14       1.0  0.83777  0.31209  0.61226  1.0000
  H   H15       1.0  0.85026  0.38750  0.31192  1.0000
  H   H16       1.0  0.54980  0.61217  0.68807  1.0000
  H   H17       1.0  0.72818  0.03069  0.89554  1.0000
  H   H18       1.0  0.65315  0.97000  0.10489  1.0000
  H   H19       1.0  0.24190  0.10455  0.03067  1.0000
  H   H20       1.0  0.37654  0.89536  0.96977  1.0000
  H   H21       1.0  0.02182  0.60446  0.46930  1.0000
  H   H22       1.0  0.09685  0.39511  0.52999  1.0000
  H   H23       1.0  0.50810  0.46933  0.39546  1.0000
  H   H24       1.0  0.37345  0.53022  0.60464  1.0000
  C   C1        1.0  0.75525  0.12133  0.85453  1.0000
  C   C2        1.0  0.73062  0.87908  0.14520  1.0000
  C   C3        1.0  0.12395  0.14528  0.12138  1.0000
  C   C4        1.0  0.39029  0.85483  0.87896  1.0000
  C   C5        1.0  0.99475  0.64547  0.37867  1.0000
  C   C6        1.0  0.01938  0.35480  0.62092  1.0000
  C   C7        1.0  0.62606  0.37862  0.35472  1.0000
  C   C8        1.0  0.35971  0.62103  0.64517  1.0000
  C   C9        1.0  0.57068  0.15931  0.76099  1.0000
  C   C10       1.0  0.49166  0.84063  0.23908  1.0000
  C   C11       1.0  0.26953  0.23906  0.15945  1.0000
  C   C12       1.0  0.66807  0.76107  0.84067  1.0000
  C   C13       1.0  0.17932  0.73901  0.34068  1.0000
  C   C14       1.0  0.25834  0.26092  0.65937  1.0000
  C   C15       1.0  0.48048  0.34056  0.26094  1.0000
  C   C16       1.0  0.08193  0.65933  0.73892  1.0000
  N   N1        1.0  0.36063  0.26540  0.76474  1.0000
  N   N2        1.0  0.38937  0.73526  0.23460  1.0000
  N   N3        1.0  0.37500  0.23487  0.26513  1.0000
  N   N4        1.0  0.87500  0.76514  0.73486  1.0000
  N   N5        1.0  0.59702  0.09265  0.65907  1.0000
  N   N6        1.0  0.35272  0.90612  0.34214  1.0000
  N   N7        1.0  0.30766  0.34155  0.09332  1.0000
  N   N8        1.0  0.74259  0.65855  0.90675  1.0000
  N   N9        1.0  0.15298  0.84093  0.40735  1.0000
  N   N10       1.0  0.39727  0.15786  0.59388  1.0000
  N   N11       1.0  0.44235  0.40668  0.15845  1.0000
  N   N12       1.0  0.00741  0.59325  0.84145  1.0000
