data_image0
_chemical_formula_structural       CuH28C20S4N4O4
_chemical_formula_sum              "Cu1 H28 C20 S4 N4 O4"
_cell_length_a       7.35917
_cell_length_b       10.4218
_cell_length_c       10.7384
_cell_angle_alpha    96.1821
_cell_angle_beta     92.3752
_cell_angle_gamma    104.372

_space_group_name_H-M_alt    "P 1"
_space_group_IT_number       1

loop_
  _space_group_symop_operation_xyz
  'x, y, z'

loop_
  _atom_site_type_symbol
  _atom_site_label
  _atom_site_symmetry_multiplicity
  _atom_site_fract_x
  _atom_site_fract_y
  _atom_site_fract_z
  _atom_site_occupancy
  Cu  Cu1       1.0  0.50000  0.50001  0.50000  1.0000
  H   H1        1.0  0.71400  0.35996  0.97331  1.0000
  H   H2        1.0  0.28601  0.64003  0.02670  1.0000
  H   H3        1.0  0.55788  0.46188  0.76912  1.0000
  H   H4        1.0  0.44212  0.53813  0.23088  1.0000
  H   H5        1.0  0.35807  0.42466  0.95145  1.0000
  H   H6        1.0  0.64193  0.57533  0.04855  1.0000
  H   H7        1.0  0.89456  0.47131  0.71423  1.0000
  H   H8        1.0  0.10544  0.52868  0.28577  1.0000
  H   H9        1.0  0.11716  0.50905  0.54475  1.0000
  H   H10       1.0  0.88284  0.49096  0.45526  1.0000
  H   H11       1.0  0.91544  0.29787  0.10427  1.0000
  H   H12       1.0  0.08457  0.70211  0.89573  1.0000
  H   H13       1.0  0.15831  0.35435  0.08871  1.0000
  H   H14       1.0  0.84171  0.64563  0.91129  1.0000
  H   H15       1.0  0.01611  0.23041  0.97284  1.0000
  H   H16       1.0  0.98389  0.76956  0.02715  1.0000
  H   H17       1.0  0.42928  0.19144  0.73845  1.0000
  H   H18       1.0  0.57072  0.80857  0.26155  1.0000
  H   H19       1.0  0.34703  0.03306  0.64027  1.0000
  H   H20       1.0  0.65296  0.96694  0.35973  1.0000
  H   H21       1.0  0.27528  0.17625  0.59911  1.0000
  H   H22       1.0  0.72472  0.82376  0.40090  1.0000
  H   H23       1.0  0.88148  0.14090  0.59388  1.0000
  H   H24       1.0  0.11851  0.85910  0.40612  1.0000
  H   H25       1.0  0.69508  0.01691  0.64555  1.0000
  H   H26       1.0  0.30490  0.98309  0.35444  1.0000
  H   H27       1.0  0.77091  0.18107  0.73571  1.0000
  H   H28       1.0  0.22908  0.81893  0.26429  1.0000
  C   C1        1.0  0.41072  0.46464  0.76263  1.0000
  C   C2        1.0  0.58928  0.53537  0.23737  1.0000
  C   C3        1.0  0.29812  0.44466  0.86339  1.0000
  C   C4        1.0  0.70188  0.55534  0.13660  1.0000
  C   C5        1.0  0.10833  0.44661  0.84941  1.0000
  C   C6        1.0  0.89168  0.55337  0.15060  1.0000
  C   C7        1.0  0.04051  0.47031  0.73276  1.0000
  C   C8        1.0  0.95949  0.52968  0.26724  1.0000
  C   C9        1.0  0.16159  0.48908  0.63675  1.0000
  C   C10       1.0  0.83842  0.51092  0.36325  1.0000
  C   C11       1.0  0.98328  0.42867  0.95809  1.0000
  C   C12       1.0  0.01672  0.57131  0.04192  1.0000
  C   C13       1.0  0.02124  0.32194  0.03536  1.0000
  C   C14       1.0  0.97876  0.67805  0.96463  1.0000
  C   C15       1.0  0.17217  0.27186  0.37157  1.0000
  C   C16       1.0  0.82785  0.72816  0.62843  1.0000
  C   C17       1.0  0.38949  0.14199  0.64231  1.0000
  C   C18       1.0  0.61050  0.85803  0.35770  1.0000
  C   C19       1.0  0.75046  0.12426  0.64181  1.0000
  C   C20       1.0  0.24954  0.87575  0.35818  1.0000
  S   S1        1.0  0.99974  0.14147  0.33329  1.0000
  S   S2        1.0  0.00028  0.85855  0.66672  1.0000
  S   S3        1.0  0.58842  0.18461  0.54794  1.0000
  S   S4        1.0  0.41157  0.81540  0.45206  1.0000
  N   N1        1.0  0.34200  0.48506  0.65084  1.0000
  N   N2        1.0  0.65799  0.51496  0.34916  1.0000
  N   N3        1.0  0.29818  0.36921  0.39717  1.0000
  N   N4        1.0  0.70183  0.63083  0.60283  1.0000
  O   O1        1.0  0.79184  0.38811  0.90496  1.0000
  O   O2        1.0  0.20815  0.61186  0.09504  1.0000
  O   O3        1.0  0.65869  0.33500  0.56709  1.0000
  O   O4        1.0  0.34130  0.66501  0.43291  1.0000
