data_image0
_chemical_formula_structural       Cd3H32C38S6N10O10
_chemical_formula_sum              "Cd3 H32 C38 S6 N10 O10"
_cell_length_a       10.5965
_cell_length_b       11.3699
_cell_length_c       11.3699
_cell_angle_alpha    98.7873
_cell_angle_beta     107.995
_cell_angle_gamma    107.995

_space_group_name_H-M_alt    "P 1"
_space_group_IT_number       1

loop_
  _space_group_symop_operation_xyz
  'x, y, z'

loop_
  _atom_site_type_symbol
  _atom_site_label
  _atom_site_symmetry_multiplicity
  _atom_site_fract_x
  _atom_site_fract_y
  _atom_site_fract_z
  _atom_site_occupancy
  Cd  Cd1       1.0  0.00000  1.00000  0.00000  1.0000
  Cd  Cd2       1.0  0.03487  0.39282  0.39282  1.0000
  Cd  Cd3       1.0  0.96513  0.60718  0.60718  1.0000
  H   H1        1.0  0.75223  0.89831  0.62227  1.0000
  H   H2        1.0  0.24777  0.37773  0.10169  1.0000
  H   H3        1.0  0.24777  0.10169  0.37774  1.0000
  H   H4        1.0  0.75223  0.62226  0.89831  1.0000
  H   H5        1.0  0.75531  0.10511  0.35276  1.0000
  H   H6        1.0  0.24469  0.64724  0.89489  1.0000
  H   H7        1.0  0.24468  0.89488  0.64724  1.0000
  H   H8        1.0  0.75531  0.35276  0.10512  1.0000
  H   H9        1.0  0.49221  0.76293  0.50692  1.0000
  H   H10       1.0  0.50779  0.49308  0.23707  1.0000
  H   H11       1.0  0.50779  0.23707  0.49309  1.0000
  H   H12       1.0  0.49221  0.50691  0.76293  1.0000
  H   H13       1.0  0.49006  0.98027  0.22339  1.0000
  H   H14       1.0  0.50994  0.77661  0.01973  1.0000
  H   H15       1.0  0.50994  0.01972  0.77661  1.0000
  H   H16       1.0  0.49006  0.22339  0.98028  1.0000
  H   H17       1.0  0.27036  0.80925  0.18851  1.0000
  H   H18       1.0  0.72964  0.81149  0.19075  1.0000
  H   H19       1.0  0.72964  0.19075  0.81149  1.0000
  H   H20       1.0  0.27036  0.18851  0.80925  1.0000
  H   H21       1.0  0.27244  0.65476  0.39020  1.0000
  H   H22       1.0  0.72757  0.60980  0.34525  1.0000
  H   H23       1.0  0.72756  0.34525  0.60981  1.0000
  H   H24       1.0  0.27244  0.39019  0.65475  1.0000
  H   H25       1.0  0.87103  0.05438  0.54362  1.0000
  H   H26       1.0  0.12897  0.45638  0.94562  1.0000
  H   H27       1.0  0.12897  0.94563  0.45638  1.0000
  H   H28       1.0  0.87103  0.54362  0.05437  1.0000
  H   H29       1.0  0.01958  0.78689  0.12164  1.0000
  H   H30       1.0  0.98042  0.87836  0.21311  1.0000
  H   H31       1.0  0.98042  0.21311  0.87836  1.0000
  H   H32       1.0  0.01958  0.12164  0.78689  1.0000
  C   C1        1.0  0.68782  0.90985  0.53279  1.0000
  C   C2        1.0  0.31218  0.46721  0.09015  1.0000
  C   C3        1.0  0.31217  0.09015  0.46722  1.0000
  C   C4        1.0  0.68782  0.53278  0.90985  1.0000
  C   C5        1.0  0.68947  0.02812  0.37992  1.0000
  C   C6        1.0  0.31053  0.62008  0.97188  1.0000
  C   C7        1.0  0.31053  0.97188  0.62008  1.0000
  C   C8        1.0  0.68947  0.37992  0.02812  1.0000
  C   C9        1.0  0.54371  0.83641  0.46714  1.0000
  C   C10       1.0  0.45629  0.53286  0.16359  1.0000
  C   C11       1.0  0.45629  0.16359  0.53286  1.0000
  C   C12       1.0  0.54371  0.46714  0.83641  1.0000
  C   C13       1.0  0.54441  0.95810  0.31055  1.0000
  C   C14       1.0  0.45559  0.68945  0.04190  1.0000
  C   C15       1.0  0.45559  0.04190  0.68945  1.0000
  C   C16       1.0  0.54441  0.31055  0.95810  1.0000
  C   C17       1.0  0.46828  0.85921  0.35276  1.0000
  C   C18       1.0  0.53172  0.64724  0.14079  1.0000
  C   C19       1.0  0.53172  0.14079  0.64724  1.0000
  C   C20       1.0  0.46828  0.35276  0.85921  1.0000
  C   C21       1.0  0.31690  0.78354  0.27620  1.0000
  C   C22       1.0  0.68310  0.72380  0.21646  1.0000
  C   C23       1.0  0.68310  0.21646  0.72380  1.0000
  C   C24       1.0  0.31690  0.27620  0.78354  1.0000
  C   C25       1.0  0.23299  0.68483  0.30404  1.0000
  C   C26       1.0  0.76701  0.69596  0.31517  1.0000
  C   C27       1.0  0.76701  0.31517  0.69596  1.0000
  C   C28       1.0  0.23299  0.30404  0.68483  1.0000
  C   C29       1.0  0.08110  0.60794  0.21766  1.0000
  C   C30       1.0  0.91890  0.78234  0.39206  1.0000
  C   C31       1.0  0.91891  0.39206  0.78234  1.0000
  C   C32       1.0  0.08110  0.21766  0.60794  1.0000
  C   C33       1.0  0.28858  0.63724  0.63724  1.0000
  C   C34       1.0  0.71141  0.36276  0.36276  1.0000
  C   C35       1.0  0.81783  0.13276  0.13276  1.0000
  C   C36       1.0  0.18218  0.86724  0.86724  1.0000
  C   C37       1.0  0.20587  0.26558  0.26558  1.0000
  C   C38       1.0  0.79413  0.73442  0.73443  1.0000
  S   S1        1.0  0.45315  0.72465  0.72465  1.0000
  S   S2        1.0  0.54684  0.27535  0.27535  1.0000
  S   S3        1.0  0.28739  0.39093  0.39093  1.0000
  S   S4        1.0  0.71261  0.60907  0.60907  1.0000
  S   S5        1.0  0.74347  0.00772  0.00772  1.0000
  S   S6        1.0  0.25653  0.99228  0.99228  1.0000
  N   N1        1.0  0.16555  0.57218  0.57218  1.0000
  N   N2        1.0  0.83444  0.42782  0.42782  1.0000
  N   N3        1.0  0.14849  0.17485  0.17485  1.0000
  N   N4        1.0  0.85151  0.82515  0.82515  1.0000
  N   N5        1.0  0.87046  0.22331  0.22331  1.0000
  N   N6        1.0  0.12954  0.77670  0.77669  1.0000
  N   N7        1.0  0.75695  0.00203  0.48800  1.0000
  N   N8        1.0  0.24305  0.51200  0.99797  1.0000
  N   N9        1.0  0.24305  0.99797  0.51200  1.0000
  N   N10       1.0  0.75695  0.48800  0.00203  1.0000
  O   O1        1.0  0.02761  0.64019  0.11561  1.0000
  O   O2        1.0  0.97239  0.88439  0.35980  1.0000
  O   O3        1.0  0.97240  0.35980  0.88439  1.0000
  O   O4        1.0  0.02761  0.11561  0.64019  1.0000
  O   O5        1.0  0.00867  0.51225  0.24509  1.0000
  O   O6        1.0  0.99133  0.75491  0.48775  1.0000
  O   O7        1.0  0.99133  0.48775  0.75491  1.0000
  O   O8        1.0  0.00867  0.24509  0.51225  1.0000
  O   O9        1.0  0.00000  0.86706  0.13294  1.0000
  O   O10       1.0  1.00000  0.13294  0.86706  1.0000
