data_image0
_chemical_formula_structural       CdH14C18S2N4O4
_chemical_formula_sum              "Cd1 H14 C18 S2 N4 O4"
_cell_length_a       5.85409
_cell_length_b       5.84485
_cell_length_c       16.9093
_cell_angle_alpha    74.7623
_cell_angle_beta     103.089
_cell_angle_gamma    69.27

_space_group_name_H-M_alt    "P 1"
_space_group_IT_number       1

loop_
  _space_group_symop_operation_xyz
  'x, y, z'

loop_
  _atom_site_type_symbol
  _atom_site_label
  _atom_site_symmetry_multiplicity
  _atom_site_fract_x
  _atom_site_fract_y
  _atom_site_fract_z
  _atom_site_occupancy
  Cd  Cd1       1.0  0.36160  0.63851  0.49935  1.0000
  H   H1        1.0  0.36688  0.11040  0.61852  1.0000
  H   H2        1.0  0.62864  0.89381  0.38134  1.0000
  H   H3        1.0  0.46646  0.86249  0.77774  1.0000
  H   H4        1.0  0.56115  0.10946  0.22270  1.0000
  H   H5        1.0  0.86595  0.44250  0.67836  1.0000
  H   H6        1.0  0.18262  0.50868  0.32244  1.0000
  H   H7        1.0  0.76577  0.93243  0.89071  1.0000
  H   H8        1.0  0.27019  0.03150  0.10990  1.0000
  H   H9        1.0  0.03399  0.14400  0.92700  1.0000
  H   H10       1.0  0.99430  0.82797  0.07329  1.0000
  H   H11       1.0  0.12143  0.49920  0.77700  1.0000
  H   H12       1.0  0.91042  0.46879  0.22332  1.0000
  H   H13       1.0  0.42959  0.36492  0.03685  1.0000
  H   H14       1.0  0.57116  0.63433  0.96247  1.0000
  C   C1        1.0  0.50451  0.12454  0.67025  1.0000
  C   C2        1.0  0.51255  0.85815  0.32999  1.0000
  C   C3        1.0  0.55869  0.98981  0.75850  1.0000
  C   C4        1.0  0.47272  0.97838  0.24203  1.0000
  C   C5        1.0  0.78140  0.31329  0.70346  1.0000
  C   C6        1.0  0.25990  0.64508  0.29720  1.0000
  C   C7        1.0  0.72597  0.02797  0.82105  1.0000
  C   C8        1.0  0.31188  0.93384  0.17959  1.0000
  C   C9        1.0  0.84232  0.19293  0.79415  1.0000
  C   C10       1.0  0.19961  0.76474  0.20652  1.0000
  C   C11       1.0  0.01032  0.24080  0.85888  1.0000
  C   C12       1.0  0.02385  0.72490  0.14155  1.0000
  C   C13       1.0  0.13373  0.39473  0.84281  1.0000
  C   C14       1.0  0.89346  0.57808  0.15739  1.0000
  C   C15       1.0  0.29392  0.43725  0.91199  1.0000
  C   C16       1.0  0.71957  0.54937  0.08782  1.0000
  C   C17       1.0  0.83571  0.81241  0.56507  1.0000
  C   C18       1.0  0.04657  0.30616  0.43374  1.0000
  S   S1        1.0  0.11086  0.79976  0.61785  1.0000
  S   S2        1.0  0.94547  0.14548  0.38085  1.0000
  N   N1        1.0  0.61329  0.28464  0.64329  1.0000
  N   N2        1.0  0.40771  0.69412  0.35698  1.0000
  N   N3        1.0  0.63370  0.82062  0.52776  1.0000
  N   N4        1.0  0.11863  0.42727  0.47111  1.0000
  O   O1        1.0  0.40988  0.57709  0.89364  1.0000
  O   O2        1.0  0.60601  0.40708  0.10637  1.0000
  O   O3        1.0  0.30811  0.32430  0.99307  1.0000
  O   O4        1.0  0.68946  0.67827  0.00611  1.0000
