data_image0
_chemical_formula_structural       H8Pb2C8O10
_chemical_formula_sum              "H8 Pb2 C8 O10"
_cell_length_a       7.09701
_cell_length_b       7.73536
_cell_length_c       7.82664
_cell_angle_alpha    79.6587
_cell_angle_beta     54.8475
_cell_angle_gamma    70.9711

_space_group_name_H-M_alt    "P 1"
_space_group_IT_number       1

loop_
  _space_group_symop_operation_xyz
  'x, y, z'

loop_
  _atom_site_type_symbol
  _atom_site_label
  _atom_site_symmetry_multiplicity
  _atom_site_fract_x
  _atom_site_fract_y
  _atom_site_fract_z
  _atom_site_occupancy
  H   H1        1.0  0.54670  0.47407  0.02859  1.0000
  H   H2        1.0  0.21298  0.64639  0.03498  1.0000
  H   H3        1.0  0.71249  0.50323  0.09171  1.0000
  H   H4        1.0  0.31834  0.46000  0.91273  1.0000
  H   H5        1.0  0.37534  0.17239  0.12061  1.0000
  H   H6        1.0  0.66621  0.80660  0.87806  1.0000
  H   H7        1.0  0.90834  0.01256  0.35271  1.0000
  H   H8        1.0  0.09698  0.99448  0.62875  1.0000
  Pb  Pb1       1.0  0.36597  0.31463  0.46149  1.0000
  Pb  Pb2       1.0  0.63748  0.68448  0.53943  1.0000
  C   C1        1.0  0.36518  0.12716  0.85682  1.0000
  C   C2        1.0  0.66982  0.85415  0.14450  1.0000
  C   C3        1.0  0.44247  0.07031  0.00468  1.0000
  C   C4        1.0  0.59553  0.90919  0.99484  1.0000
  C   C5        1.0  0.85650  0.26181  0.49087  1.0000
  C   C6        1.0  0.14833  0.74586  0.48833  1.0000
  C   C7        1.0  0.94475  0.06201  0.45023  1.0000
  C   C8        1.0  0.06154  0.94566  0.53015  1.0000
  O   O1        1.0  0.27890  0.29934  0.84492  1.0000
  O   O2        1.0  0.78635  0.68641  0.13871  1.0000
  O   O3        1.0  0.39215  0.00976  0.74472  1.0000
  O   O4        1.0  0.60724  0.96820  0.27921  1.0000
  O   O5        1.0  0.91847  0.33522  0.57611  1.0000
  O   O6        1.0  0.08811  0.67633  0.39788  1.0000
  O   O7        1.0  0.71496  0.35729  0.43419  1.0000
  O   O8        1.0  0.28433  0.64750  0.54948  1.0000
  O   O9        1.0  0.64045  0.41312  0.09100  1.0000
  O   O10       1.0  0.36405  0.56188  0.93429  1.0000
