data_image0
_chemical_formula_structural       Cu2H22C32I2N10
_chemical_formula_sum              "Cu2 H22 C32 I2 N10"
_cell_length_a       9.03408
_cell_length_b       9.42699
_cell_length_c       10.2291
_cell_angle_alpha    71.949
_cell_angle_beta     71.5406
_cell_angle_gamma    67.6504

_space_group_name_H-M_alt    "P 1"
_space_group_IT_number       1

loop_
  _space_group_symop_operation_xyz
  'x, y, z'

loop_
  _atom_site_type_symbol
  _atom_site_label
  _atom_site_symmetry_multiplicity
  _atom_site_fract_x
  _atom_site_fract_y
  _atom_site_fract_z
  _atom_site_occupancy
  Cu  Cu1       1.0  0.52082  0.96540  0.88206  1.0000
  Cu  Cu2       1.0  0.47918  0.03460  0.11795  1.0000
  H   H1        1.0  0.16341  0.60605  0.00228  1.0000
  H   H2        1.0  0.83658  0.39395  0.99773  1.0000
  H   H3        1.0  0.12359  0.66624  0.75761  1.0000
  H   H4        1.0  0.87641  0.33376  0.24239  1.0000
  H   H5        1.0  0.42658  0.96867  0.63313  1.0000
  H   H6        1.0  0.57342  0.03133  0.36688  1.0000
  H   H7        1.0  0.13477  0.96139  0.12613  1.0000
  H   H8        1.0  0.86524  0.03861  0.87388  1.0000
  H   H9        1.0  0.34159  0.72694  0.04869  1.0000
  H   H10       1.0  0.65840  0.27306  0.95132  1.0000
  H   H11       1.0  0.91794  0.82620  0.23845  1.0000
  H   H12       1.0  0.08206  0.17380  0.76155  1.0000
  H   H13       1.0  0.81220  0.65419  0.32861  1.0000
  H   H14       1.0  0.18780  0.34582  0.67138  1.0000
  H   H15       1.0  0.83653  0.69074  0.73234  1.0000
  H   H16       1.0  0.16346  0.30926  0.26766  1.0000
  H   H17       1.0  0.54028  0.43536  0.71345  1.0000
  H   H18       1.0  0.45972  0.56464  0.28653  1.0000
  H   H19       1.0  0.64596  0.53679  0.85200  1.0000
  H   H20       1.0  0.35403  0.46320  0.14800  1.0000
  H   H21       1.0  0.62478  0.50035  0.44850  1.0000
  H   H22       1.0  0.37522  0.49966  0.55149  1.0000
  C   C1        1.0  0.22001  0.68591  0.91772  1.0000
  C   C2        1.0  0.77999  0.31409  0.08228  1.0000
  C   C3        1.0  0.19790  0.71864  0.78129  1.0000
  C   C4        1.0  0.80210  0.28136  0.21871  1.0000
  C   C5        1.0  0.27527  0.82017  0.67533  1.0000
  C   C6        1.0  0.72473  0.17983  0.32467  1.0000
  C   C7        1.0  0.36679  0.88750  0.71250  1.0000
  C   C8        1.0  0.63321  0.11250  0.28750  1.0000
  C   C9        1.0  0.11037  0.90549  0.23779  1.0000
  C   C10       1.0  0.88964  0.09451  0.76222  1.0000
  C   C11       1.0  0.20244  0.90903  0.32402  1.0000
  C   C12       1.0  0.79757  0.09096  0.67598  1.0000
  C   C13       1.0  0.84147  0.68166  0.52165  1.0000
  C   C14       1.0  0.15853  0.31834  0.47835  1.0000
  C   C15       1.0  0.26871  0.86323  0.52760  1.0000
  C   C16       1.0  0.73129  0.13677  0.47240  1.0000
  C   C17       1.0  0.31698  0.75356  0.94452  1.0000
  C   C18       1.0  0.68302  0.24644  0.05548  1.0000
  C   C19       1.0  0.99239  0.83204  0.30098  1.0000
  C   C20       1.0  0.00762  0.16796  0.69902  1.0000
  C   C21       1.0  0.96316  0.76612  0.45019  1.0000
  C   C22       1.0  0.03684  0.23388  0.54981  1.0000
  C   C23       1.0  0.77778  0.62915  0.44355  1.0000
  C   C24       1.0  0.22222  0.37085  0.55645  1.0000
  C   C25       1.0  0.79275  0.64656  0.66997  1.0000
  C   C26       1.0  0.20725  0.35343  0.33003  1.0000
  C   C27       1.0  0.62452  0.50428  0.65908  1.0000
  C   C28       1.0  0.37548  0.49572  0.34091  1.0000
  C   C29       1.0  0.68553  0.55880  0.73736  1.0000
  C   C30       1.0  0.31447  0.44119  0.26263  1.0000
  C   C31       1.0  0.67066  0.54098  0.51198  1.0000
  C   C32       1.0  0.32935  0.45902  0.48801  1.0000
  I   I1        1.0  0.70081  0.76317  0.05784  1.0000
  I   I2        1.0  0.29919  0.23683  0.94217  1.0000
  N   N1        1.0  0.38788  0.85543  0.84379  1.0000
  N   N2        1.0  0.61212  0.14457  0.15622  1.0000
  N   N3        1.0  0.16204  0.84459  0.46792  1.0000
  N   N4        1.0  0.83796  0.15541  0.53209  1.0000
  N   N5        1.0  0.32897  0.96234  0.29954  1.0000
  N   N6        1.0  0.67103  0.03766  0.70046  1.0000
  N   N7        1.0  0.04524  0.77459  0.53327  1.0000
  N   N8        1.0  0.95476  0.22541  0.46673  1.0000
  N   N9        1.0  0.36851  0.93376  0.42504  1.0000
  N   N10       1.0  0.63149  0.06624  0.57497  1.0000
