data_image0
_chemical_formula_structural       Ag2H32C32N6O14
_chemical_formula_sum              "Ag2 H32 C32 N6 O14"
_cell_length_a       7.90665
_cell_length_b       9.73724
_cell_length_c       11.6849
_cell_angle_alpha    105.165
_cell_angle_beta     97.6098
_cell_angle_gamma    91.6439

_space_group_name_H-M_alt    "P 1"
_space_group_IT_number       1

loop_
  _space_group_symop_operation_xyz
  'x, y, z'

loop_
  _atom_site_type_symbol
  _atom_site_label
  _atom_site_symmetry_multiplicity
  _atom_site_fract_x
  _atom_site_fract_y
  _atom_site_fract_z
  _atom_site_occupancy
  Ag  Ag1       1.0  0.75693  0.07265  0.06482  1.0000
  Ag  Ag2       1.0  0.24307  0.92735  0.93518  1.0000
  H   H1        1.0  0.12235  0.58593  0.80443  1.0000
  H   H2        1.0  0.87765  0.41407  0.19557  1.0000
  H   H3        1.0  0.09984  0.44298  0.67053  1.0000
  H   H4        1.0  0.90016  0.55702  0.32947  1.0000
  H   H5        1.0  0.29087  0.73572  0.71637  1.0000
  H   H6        1.0  0.70913  0.26428  0.28363  1.0000
  H   H7        1.0  0.08508  0.68508  0.63227  1.0000
  H   H8        1.0  0.91491  0.31493  0.36773  1.0000
  H   H9        1.0  0.21865  0.49347  0.48187  1.0000
  H   H10       1.0  0.78134  0.50653  0.51813  1.0000
  H   H11       1.0  0.42005  0.54835  0.57180  1.0000
  H   H12       1.0  0.57994  0.45164  0.42820  1.0000
  H   H13       1.0  0.40646  0.79001  0.53920  1.0000
  H   H14       1.0  0.59355  0.20999  0.46080  1.0000
  H   H15       1.0  0.39051  0.65518  0.40046  1.0000
  H   H16       1.0  0.60949  0.34482  0.59954  1.0000
  H   H17       1.0  0.45628  0.22735  0.96837  1.0000
  H   H18       1.0  0.54372  0.77265  0.03163  1.0000
  H   H19       1.0  0.98126  0.26961  0.97309  1.0000
  H   H20       1.0  0.01875  0.73039  0.02691  1.0000
  H   H21       1.0  0.95300  0.45147  0.85898  1.0000
  H   H22       1.0  0.04700  0.54853  0.14102  1.0000
  H   H23       1.0  0.65904  0.52420  0.79474  1.0000
  H   H24       1.0  0.34096  0.47580  0.20526  1.0000
  H   H25       1.0  0.05212  0.96893  0.20526  1.0000
  H   H26       1.0  0.94788  0.03107  0.79474  1.0000
  H   H27       1.0  0.54088  0.99829  0.24844  1.0000
  H   H28       1.0  0.45912  0.00171  0.75156  1.0000
  H   H29       1.0  0.57848  0.88548  0.41697  1.0000
  H   H30       1.0  0.42152  0.11452  0.58303  1.0000
  H   H31       1.0  0.87045  0.80804  0.48124  1.0000
  H   H32       1.0  0.12955  0.19196  0.51876  1.0000
  C   C1        1.0  0.35608  0.41088  0.84035  1.0000
  C   C2        1.0  0.64391  0.58911  0.15965  1.0000
  C   C3        1.0  0.18090  0.53733  0.72464  1.0000
  C   C4        1.0  0.81910  0.46267  0.27536  1.0000
  C   C5        1.0  0.21009  0.64492  0.65567  1.0000
  C   C6        1.0  0.78991  0.35508  0.34433  1.0000
  C   C7        1.0  0.29507  0.58571  0.54449  1.0000
  C   C8        1.0  0.70493  0.41429  0.45551  1.0000
  C   C9        1.0  0.32781  0.69725  0.47973  1.0000
  C   C10       1.0  0.67219  0.30275  0.52027  1.0000
  C   C11       1.0  0.16030  0.84276  0.37782  1.0000
  C   C12       1.0  0.83971  0.15724  0.62218  1.0000
  C   C13       1.0  0.53514  0.37777  0.87449  1.0000
  C   C14       1.0  0.46486  0.62223  0.12550  1.0000
  C   C15       1.0  0.56283  0.27769  0.94052  1.0000
  C   C16       1.0  0.43717  0.72231  0.05948  1.0000
  C   C17       1.0  0.85579  0.30236  0.94343  1.0000
  C   C18       1.0  0.14421  0.69764  0.05657  1.0000
  C   C19       1.0  0.83830  0.40434  0.87933  1.0000
  C   C20       1.0  0.16170  0.59566  0.12067  1.0000
  C   C21       1.0  0.67594  0.44313  0.84366  1.0000
  C   C22       1.0  0.32407  0.55687  0.15634  1.0000
  C   C23       1.0  0.98306  0.88208  0.34687  1.0000
  C   C24       1.0  0.01694  0.11792  0.65313  1.0000
  C   C25       1.0  0.95035  0.94716  0.25370  1.0000
  C   C26       1.0  0.04966  0.05285  0.74630  1.0000
  C   C27       1.0  0.66495  0.96308  0.27808  1.0000
  C   C28       1.0  0.33505  0.03692  0.72192  1.0000
  C   C29       1.0  0.68772  0.89992  0.37270  1.0000
  C   C30       1.0  0.31228  0.10008  0.62730  1.0000
  C   C31       1.0  0.84855  0.85737  0.40739  1.0000
  C   C32       1.0  0.15146  0.14263  0.59261  1.0000
  N   N1        1.0  0.72007  0.23966  0.97375  1.0000
  N   N2        1.0  0.27993  0.76034  0.02625  1.0000
  N   N3        1.0  0.79410  0.98556  0.21886  1.0000
  N   N4        1.0  0.20590  0.01444  0.78114  1.0000
  N   N5        1.0  0.74386  0.81609  0.83412  1.0000
  N   N6        1.0  0.25614  0.18391  0.16588  1.0000
  O   O1        1.0  0.23188  0.36987  0.87816  1.0000
  O   O2        1.0  0.76813  0.63012  0.12183  1.0000
  O   O3        1.0  0.34801  0.49145  0.76232  1.0000
  O   O4        1.0  0.65199  0.50854  0.23768  1.0000
  O   O5        1.0  0.16207  0.74479  0.44084  1.0000
  O   O6        1.0  0.83793  0.25522  0.55916  1.0000
  O   O7        1.0  0.28760  0.89238  0.34934  1.0000
  O   O8        1.0  0.71240  0.10762  0.65066  1.0000
  O   O9        1.0  0.87807  0.87081  0.90874  1.0000
  O   O10       1.0  0.12193  0.12919  0.09127  1.0000
  O   O11       1.0  0.59894  0.85929  0.85857  1.0000
  O   O12       1.0  0.40106  0.14071  0.14143  1.0000
  O   O13       1.0  0.75635  0.72192  0.73911  1.0000
  O   O14       1.0  0.24364  0.27809  0.26089  1.0000
