data_image0
_chemical_formula_structural       Co4H12C28N4O16
_chemical_formula_sum              "Co4 H12 C28 N4 O16"
_cell_length_a       6.66836
_cell_length_b       8.34789
_cell_length_c       12.8132
_cell_angle_alpha    90.0001
_cell_angle_beta     90.0009
_cell_angle_gamma    89.9999

_space_group_name_H-M_alt    "P 1"
_space_group_IT_number       1

loop_
  _space_group_symop_operation_xyz
  'x, y, z'

loop_
  _atom_site_type_symbol
  _atom_site_label
  _atom_site_symmetry_multiplicity
  _atom_site_fract_x
  _atom_site_fract_y
  _atom_site_fract_z
  _atom_site_occupancy
  Co  Co1       1.0  0.94412  0.68010  0.48003  1.0000
  Co  Co2       1.0  0.05588  0.31990  0.98003  1.0000
  Co  Co3       1.0  0.55588  0.18011  0.48002  1.0000
  Co  Co4       1.0  0.44411  0.81989  0.98003  1.0000
  H   H1        1.0  0.14413  0.72482  0.27676  1.0000
  H   H2        1.0  0.85587  0.27518  0.77675  1.0000
  H   H3        1.0  0.35589  0.22484  0.27675  1.0000
  H   H4        1.0  0.64412  0.77517  0.77675  1.0000
  H   H5        1.0  0.47497  0.52274  0.18573  1.0000
  H   H6        1.0  0.52504  0.47727  0.68574  1.0000
  H   H7        1.0  0.02503  0.02273  0.18573  1.0000
  H   H8        1.0  0.97497  0.97726  0.68573  1.0000
  H   H9        1.0  0.57672  0.57700  0.36983  1.0000
  H   H10       1.0  0.42328  0.42299  0.86983  1.0000
  H   H11       1.0  0.92328  0.07700  0.36983  1.0000
  H   H12       1.0  0.07672  0.92300  0.86982  1.0000
  C   C1        1.0  0.99809  0.67786  0.25371  1.0000
  C   C2        1.0  0.00191  0.32214  0.75371  1.0000
  C   C3        1.0  0.50192  0.17787  0.25370  1.0000
  C   C4        1.0  0.49809  0.82213  0.75371  1.0000
  C   C5        1.0  0.95722  0.64518  0.14899  1.0000
  C   C6        1.0  0.04278  0.35482  0.64898  1.0000
  C   C7        1.0  0.54279  0.14518  0.14898  1.0000
  C   C8        1.0  0.45721  0.85482  0.64898  1.0000
  C   C9        1.0  0.76608  0.58540  0.12314  1.0000
  C   C10       1.0  0.23392  0.41461  0.62314  1.0000
  C   C11       1.0  0.73393  0.08540  0.12313  1.0000
  C   C12       1.0  0.26608  0.91459  0.62314  1.0000
  C   C13       1.0  0.62497  0.56720  0.20310  1.0000
  C   C14       1.0  0.37502  0.43281  0.70309  1.0000
  C   C15       1.0  0.87504  0.06719  0.20309  1.0000
  C   C16       1.0  0.12497  0.93280  0.70309  1.0000
  C   C17       1.0  0.67978  0.59877  0.30553  1.0000
  C   C18       1.0  0.32021  0.40123  0.80554  1.0000
  C   C19       1.0  0.82022  0.09877  0.30553  1.0000
  C   C20       1.0  0.17979  0.90122  0.80553  1.0000
  C   C21       1.0  0.11505  0.67773  0.06841  1.0000
  C   C22       1.0  0.88496  0.32228  0.56841  1.0000
  C   C23       1.0  0.38496  0.17773  0.06841  1.0000
  C   C24       1.0  0.61504  0.82227  0.56841  1.0000
  C   C25       1.0  0.70465  0.53096  0.01594  1.0000
  C   C26       1.0  0.29535  0.46905  0.51594  1.0000
  C   C27       1.0  0.79535  0.03095  0.01594  1.0000
  C   C28       1.0  0.20465  0.96903  0.51594  1.0000
  N   N1        1.0  0.86491  0.65109  0.33060  1.0000
  N   N2        1.0  0.13508  0.34890  0.83060  1.0000
  N   N3        1.0  0.63509  0.15110  0.33060  1.0000
  N   N4        1.0  0.36491  0.84890  0.83059  1.0000
  O   O1        1.0  0.12714  0.59236  0.98769  1.0000
  O   O2        1.0  0.87286  0.40766  0.48768  1.0000
  O   O3        1.0  0.37285  0.09235  0.98768  1.0000
  O   O4        1.0  0.62715  0.90764  0.48769  1.0000
  O   O5        1.0  0.23196  0.79798  0.08716  1.0000
  O   O6        1.0  0.76805  0.20202  0.58715  1.0000
  O   O7        1.0  0.26804  0.29798  0.08715  1.0000
  O   O8        1.0  0.73196  0.70202  0.58715  1.0000
  O   O9        1.0  0.78225  0.40171  0.98192  1.0000
  O   O10       1.0  0.21775  0.59830  0.48192  1.0000
  O   O11       1.0  0.71775  0.90171  0.98191  1.0000
  O   O12       1.0  0.28225  0.09829  0.48191  1.0000
  O   O13       1.0  0.56555  0.60082  0.96705  1.0000
  O   O14       1.0  0.43444  0.39918  0.46705  1.0000
  O   O15       1.0  0.93445  0.10082  0.96705  1.0000
  O   O16       1.0  0.06554  0.89919  0.46705  1.0000
