data_image0
_chemical_formula_structural       Ag4H24C32N4O16
_chemical_formula_sum              "Ag4 H24 C32 N4 O16"
_cell_length_a       4.96038
_cell_length_b       12.3611
_cell_length_c       13.9176
_cell_angle_alpha    95.0602
_cell_angle_beta     89.9999
_cell_angle_gamma    90

_space_group_name_H-M_alt    "P 1"
_space_group_IT_number       1

loop_
  _space_group_symop_operation_xyz
  'x, y, z'

loop_
  _atom_site_type_symbol
  _atom_site_label
  _atom_site_symmetry_multiplicity
  _atom_site_fract_x
  _atom_site_fract_y
  _atom_site_fract_z
  _atom_site_occupancy
  Ag  Ag1       1.0  0.00010  0.93267  0.72678  1.0000
  Ag  Ag2       1.0  0.50009  0.06734  0.77321  1.0000
  Ag  Ag3       1.0  0.99990  0.06734  0.27321  1.0000
  Ag  Ag4       1.0  0.49990  0.93266  0.22679  1.0000
  H   H1        1.0  0.74291  0.86150  0.89618  1.0000
  H   H2        1.0  0.24291  0.13850  0.60382  1.0000
  H   H3        1.0  0.25709  0.13850  0.10382  1.0000
  H   H4        1.0  0.75709  0.86150  0.39618  1.0000
  H   H5        1.0  0.23455  0.62591  0.99896  1.0000
  H   H6        1.0  0.73455  0.37409  0.50104  1.0000
  H   H7        1.0  0.76545  0.37409  0.00104  1.0000
  H   H8        1.0  0.26544  0.62591  0.49896  1.0000
  H   H9        1.0  0.00504  0.47636  0.88844  1.0000
  H   H10       1.0  0.50504  0.52364  0.61156  1.0000
  H   H11       1.0  0.99497  0.52364  0.11156  1.0000
  H   H12       1.0  0.49495  0.47636  0.38844  1.0000
  H   H13       1.0  0.64034  0.52809  0.78086  1.0000
  H   H14       1.0  0.14035  0.47191  0.71914  1.0000
  H   H15       1.0  0.35966  0.47191  0.21914  1.0000
  H   H16       1.0  0.85965  0.52808  0.28086  1.0000
  H   H17       1.0  0.22841  0.88687  0.95627  1.0000
  H   H18       1.0  0.72840  0.11313  0.54373  1.0000
  H   H19       1.0  0.77159  0.11313  0.04373  1.0000
  H   H20       1.0  0.27159  0.88687  0.45627  1.0000
  H   H21       1.0  0.30971  0.79505  0.04386  1.0000
  H   H22       1.0  0.80971  0.20494  0.45614  1.0000
  H   H23       1.0  0.69030  0.20495  0.95614  1.0000
  H   H24       1.0  0.19029  0.79505  0.54386  1.0000
  C   C1        1.0  0.43231  0.73715  0.76655  1.0000
  C   C2        1.0  0.93231  0.26285  0.73345  1.0000
  C   C3        1.0  0.56769  0.26285  0.23345  1.0000
  C   C4        1.0  0.06770  0.73714  0.26655  1.0000
  C   C5        1.0  0.65889  0.69887  0.82975  1.0000
  C   C6        1.0  0.15889  0.30114  0.67026  1.0000
  C   C7        1.0  0.34112  0.30113  0.17025  1.0000
  C   C8        1.0  0.84111  0.69886  0.32974  1.0000
  C   C9        1.0  0.79319  0.77551  0.89146  1.0000
  C   C10       1.0  0.29319  0.22449  0.60854  1.0000
  C   C11       1.0  0.20681  0.22449  0.10854  1.0000
  C   C12       1.0  0.70682  0.77551  0.39146  1.0000
  C   C13       1.0  0.07254  0.64114  0.94926  1.0000
  C   C14       1.0  0.57255  0.35886  0.55074  1.0000
  C   C15       1.0  0.92746  0.35886  0.05074  1.0000
  C   C16       1.0  0.42744  0.64114  0.44926  1.0000
  C   C17       1.0  0.94433  0.56127  0.89001  1.0000
  C   C18       1.0  0.44434  0.43872  0.61000  1.0000
  C   C19       1.0  0.05566  0.43872  0.10999  1.0000
  C   C20       1.0  0.55565  0.56127  0.39000  1.0000
  C   C21       1.0  0.73851  0.59042  0.82884  1.0000
  C   C22       1.0  0.23852  0.40958  0.67117  1.0000
  C   C23       1.0  0.26149  0.40958  0.17117  1.0000
  C   C24       1.0  0.76148  0.59042  0.32883  1.0000
  C   C25       1.0  0.14381  0.83204  0.00621  1.0000
  C   C26       1.0  0.64380  0.16797  0.49379  1.0000
  C   C27       1.0  0.85620  0.16796  0.99379  1.0000
  C   C28       1.0  0.35620  0.83203  0.50621  1.0000
  C   C29       1.0  0.96879  0.89578  0.08191  1.0000
  C   C30       1.0  0.46879  0.10423  0.41809  1.0000
  C   C31       1.0  0.03121  0.10423  0.91809  1.0000
  C   C32       1.0  0.53121  0.89578  0.58191  1.0000
  N   N1        1.0  0.99728  0.74625  0.94807  1.0000
  N   N2        1.0  0.49728  0.25375  0.55193  1.0000
  N   N3        1.0  0.00273  0.25374  0.05193  1.0000
  N   N4        1.0  0.50272  0.74625  0.44807  1.0000
  O   O1        1.0  0.34999  0.83299  0.79336  1.0000
  O   O2        1.0  0.84999  0.16702  0.70664  1.0000
  O   O3        1.0  0.65001  0.16702  0.20664  1.0000
  O   O4        1.0  0.15002  0.83298  0.29336  1.0000
  O   O5        1.0  0.34907  0.67298  0.69811  1.0000
  O   O6        1.0  0.84908  0.32702  0.80190  1.0000
  O   O7        1.0  0.65093  0.32702  0.30190  1.0000
  O   O8        1.0  0.15092  0.67298  0.19810  1.0000
  O   O9        1.0  0.08561  0.97973  0.12118  1.0000
  O   O10       1.0  0.58559  0.02027  0.37882  1.0000
  O   O11       1.0  0.91439  0.02028  0.87881  1.0000
  O   O12       1.0  0.41440  0.97973  0.62118  1.0000
  O   O13       1.0  0.73720  0.86007  0.09915  1.0000
  O   O14       1.0  0.23719  0.13994  0.40085  1.0000
  O   O15       1.0  0.26281  0.13993  0.90085  1.0000
  O   O16       1.0  0.76281  0.86007  0.59915  1.0000
