data_image0
_chemical_formula_structural       K6Cd2H36C28N6O20
_chemical_formula_sum              "K6 Cd2 H36 C28 N6 O20"
_cell_length_a       8.75841
_cell_length_b       9.06021
_cell_length_c       15.2838
_cell_angle_alpha    97.6474
_cell_angle_beta     96.2202
_cell_angle_gamma    104.519

_space_group_name_H-M_alt    "P 1"
_space_group_IT_number       1

loop_
  _space_group_symop_operation_xyz
  'x, y, z'

loop_
  _atom_site_type_symbol
  _atom_site_label
  _atom_site_symmetry_multiplicity
  _atom_site_fract_x
  _atom_site_fract_y
  _atom_site_fract_z
  _atom_site_occupancy
  K   K1        1.0  0.83463  0.33009  0.53889  1.0000
  K   K2        1.0  0.16536  0.66990  0.46111  1.0000
  K   K3        1.0  0.36894  0.28916  0.52448  1.0000
  K   K4        1.0  0.63106  0.71084  0.47552  1.0000
  K   K5        1.0  0.70188  0.62004  0.09847  1.0000
  K   K6        1.0  0.29812  0.37996  0.90152  1.0000
  Cd  Cd1       1.0  0.77554  0.95159  0.74189  1.0000
  Cd  Cd2       1.0  0.22446  0.04840  0.25811  1.0000
  H   H1        1.0  0.46892  0.06610  0.91867  1.0000
  H   H2        1.0  0.53108  0.93390  0.08132  1.0000
  H   H3        1.0  0.63499  0.99365  0.94733  1.0000
  H   H4        1.0  0.36501  0.00635  0.05267  1.0000
  H   H5        1.0  0.38566  0.78833  0.87953  1.0000
  H   H6        1.0  0.61434  0.21167  0.12047  1.0000
  H   H7        1.0  0.38197  0.87048  0.78073  1.0000
  H   H8        1.0  0.61803  0.12952  0.21927  1.0000
  H   H9        1.0  0.57150  0.59664  0.88532  1.0000
  H   H10       1.0  0.42850  0.40336  0.11469  1.0000
  H   H11       1.0  0.69397  0.78505  0.92356  1.0000
  H   H12       1.0  0.30602  0.21495  0.07644  1.0000
  H   H13       1.0  0.84217  0.58923  0.87717  1.0000
  H   H14       1.0  0.15783  0.41078  0.12283  1.0000
  H   H15       1.0  0.74358  0.56075  0.76633  1.0000
  H   H16       1.0  0.25643  0.43925  0.23368  1.0000
  H   H17       1.0  0.52850  0.27138  0.80583  1.0000
  H   H18       1.0  0.47150  0.72862  0.19417  1.0000
  H   H19       1.0  0.45583  0.08145  0.74235  1.0000
  H   H20       1.0  0.54417  0.91855  0.25765  1.0000
  H   H21       1.0  0.85316  0.30584  0.85850  1.0000
  H   H22       1.0  0.14683  0.69416  0.14150  1.0000
  H   H23       1.0  0.86146  0.17607  0.93383  1.0000
  H   H24       1.0  0.13854  0.82393  0.06617  1.0000
  H   H25       1.0  0.34587  0.59119  0.73934  1.0000
  H   H26       1.0  0.65413  0.40880  0.26066  1.0000
  H   H27       1.0  0.52266  0.54471  0.71511  1.0000
  H   H28       1.0  0.47734  0.45530  0.28489  1.0000
  H   H29       1.0  0.02632  0.61749  0.75121  1.0000
  H   H30       1.0  0.97368  0.38251  0.24880  1.0000
  H   H31       1.0  0.11946  0.81500  0.75246  1.0000
  H   H32       1.0  0.88055  0.18501  0.24755  1.0000
  H   H33       1.0  0.09304  0.80832  0.91545  1.0000
  H   H34       1.0  0.90696  0.19169  0.08456  1.0000
  H   H35       1.0  0.93223  0.88404  0.94081  1.0000
  H   H36       1.0  0.06776  0.11597  0.05919  1.0000
  C   C1        1.0  0.55489  0.00953  0.89084  1.0000
  C   C2        1.0  0.44511  0.99048  0.10916  1.0000
  C   C3        1.0  0.46207  0.85343  0.83672  1.0000
  C   C4        1.0  0.53793  0.14657  0.16328  1.0000
  C   C5        1.0  0.64920  0.69674  0.86359  1.0000
  C   C6        1.0  0.35080  0.30326  0.13641  1.0000
  C   C7        1.0  0.78714  0.64628  0.82777  1.0000
  C   C8        1.0  0.21286  0.35372  0.17223  1.0000
  C   C9        1.0  0.56420  0.17238  0.77322  1.0000
  C   C10       1.0  0.43580  0.82762  0.22678  1.0000
  C   C11       1.0  0.65159  0.22202  0.69595  1.0000
  C   C12       1.0  0.34840  0.77798  0.30405  1.0000
  C   C13       1.0  0.78141  0.23216  0.89916  1.0000
  C   C14       1.0  0.21859  0.76784  0.10084  1.0000
  C   C15       1.0  0.72718  0.33754  0.97060  1.0000
  C   C16       1.0  0.27282  0.66245  0.02940  1.0000
  C   C17       1.0  0.46751  0.64105  0.72437  1.0000
  C   C18       1.0  0.53249  0.35895  0.27563  1.0000
  C   C19       1.0  0.44965  0.69368  0.63354  1.0000
  C   C20       1.0  0.55036  0.30633  0.36646  1.0000
  C   C21       1.0  0.00281  0.72887  0.74198  1.0000
  C   C22       1.0  0.99719  0.27113  0.25803  1.0000
  C   C23       1.0  0.93592  0.72047  0.64374  1.0000
  C   C24       1.0  0.06409  0.27953  0.35626  1.0000
  C   C25       1.0  0.00863  0.86969  0.88932  1.0000
  C   C26       1.0  0.99136  0.13031  0.11068  1.0000
  C   C27       1.0  0.09772  0.03204  0.87839  1.0000
  C   C28       1.0  0.90228  0.96796  0.12161  1.0000
  N   N1        1.0  0.65574  0.11016  0.83852  1.0000
  N   N2        1.0  0.34426  0.88984  0.16148  1.0000
  N   N3        1.0  0.56219  0.76130  0.79728  1.0000
  N   N4        1.0  0.43781  0.23870  0.20271  1.0000
  N   N5        1.0  0.90732  0.77821  0.80739  1.0000
  N   N6        1.0  0.09268  0.22179  0.19261  1.0000
  O   O1        1.0  0.76533  0.16518  0.67558  1.0000
  O   O2        1.0  0.23467  0.83482  0.32442  1.0000
  O   O3        1.0  0.60249  0.31744  0.65455  1.0000
  O   O4        1.0  0.39751  0.68255  0.34545  1.0000
  O   O5        1.0  0.82018  0.38410  0.04421  1.0000
  O   O6        1.0  0.17980  0.61589  0.95578  1.0000
  O   O7        1.0  0.59769  0.37421  0.95163  1.0000
  O   O8        1.0  0.40230  0.62578  0.04836  1.0000
  O   O9        1.0  0.50763  0.83416  0.62699  1.0000
  O   O10       1.0  0.49237  0.16584  0.37301  1.0000
  O   O11       1.0  0.37899  0.58639  0.56838  1.0000
  O   O12       1.0  0.62101  0.41361  0.43161  1.0000
  O   O13       1.0  0.84717  0.80730  0.62402  1.0000
  O   O14       1.0  0.15283  0.19269  0.37598  1.0000
  O   O15       1.0  0.97957  0.63148  0.58679  1.0000
  O   O16       1.0  0.02044  0.36852  0.41322  1.0000
  O   O17       1.0  0.04955  0.09151  0.81288  1.0000
  O   O18       1.0  0.95045  0.90848  0.18711  1.0000
  O   O19       1.0  0.21432  0.10002  0.93886  1.0000
  O   O20       1.0  0.78568  0.89999  0.06114  1.0000
