data_image0
_chemical_formula_structural       Cu2H18C22N6O6F6
_chemical_formula_sum              "Cu2 H18 C22 N6 O6 F6"
_cell_length_a       8.73442
_cell_length_b       9.10625
_cell_length_c       9.13449
_cell_angle_alpha    68.1241
_cell_angle_beta     85.7493
_cell_angle_gamma    70.0747

_space_group_name_H-M_alt    "P 1"
_space_group_IT_number       1

loop_
  _space_group_symop_operation_xyz
  'x, y, z'

loop_
  _atom_site_type_symbol
  _atom_site_label
  _atom_site_symmetry_multiplicity
  _atom_site_fract_x
  _atom_site_fract_y
  _atom_site_fract_z
  _atom_site_occupancy
  Cu  Cu1       1.0  0.16956  0.49321  0.39094  1.0000
  Cu  Cu2       1.0  0.83044  0.50680  0.60905  1.0000
  H   H1        1.0  0.51017  0.88881  0.17196  1.0000
  H   H2        1.0  0.48983  0.11119  0.82804  1.0000
  H   H3        1.0  0.76476  0.96268  0.14477  1.0000
  H   H4        1.0  0.23524  0.03732  0.85524  1.0000
  H   H5        1.0  0.78597  0.17831  0.23587  1.0000
  H   H6        1.0  0.21403  0.82168  0.76415  1.0000
  H   H7        1.0  0.54699  0.34299  0.34722  1.0000
  H   H8        1.0  0.45301  0.65701  0.65279  1.0000
  H   H9        1.0  0.33306  0.75194  0.37678  1.0000
  H   H10       1.0  0.66694  0.24807  0.62322  1.0000
  H   H11       1.0  0.15023  0.80861  0.48040  1.0000
  H   H12       1.0  0.84977  0.19138  0.51961  1.0000
  H   H13       1.0  0.98494  0.78930  0.27886  1.0000
  H   H14       1.0  0.01507  0.21070  0.72114  1.0000
  H   H15       1.0  0.32710  0.63791  0.16598  1.0000
  H   H16       1.0  0.67290  0.36209  0.83402  1.0000
  H   H17       1.0  0.12726  0.65169  0.09367  1.0000
  H   H18       1.0  0.87273  0.34831  0.90632  1.0000
  C   C1        1.0  0.25946  0.43641  0.69405  1.0000
  C   C2        1.0  0.74053  0.56360  0.30594  1.0000
  C   C3        1.0  0.23257  0.41571  0.87000  1.0000
  C   C4        1.0  0.76743  0.58430  0.12999  1.0000
  C   C5        1.0  0.39129  0.07322  0.27856  1.0000
  C   C6        1.0  0.60871  0.92677  0.72144  1.0000
  C   C7        1.0  0.52077  0.98375  0.21179  1.0000
  C   C8        1.0  0.47923  0.01625  0.78822  1.0000
  C   C9        1.0  0.66079  0.02622  0.19832  1.0000
  C   C10       1.0  0.33921  0.97378  0.80168  1.0000
  C   C11       1.0  0.67199  0.15171  0.24929  1.0000
  C   C12       1.0  0.32801  0.84829  0.75072  1.0000
  C   C13       1.0  0.54175  0.24236  0.31239  1.0000
  C   C14       1.0  0.45825  0.75763  0.68761  1.0000
  C   C15       1.0  0.39911  0.20134  0.32572  1.0000
  C   C16       1.0  0.60089  0.79866  0.67428  1.0000
  C   C17       1.0  0.19981  0.81168  0.36564  1.0000
  C   C18       1.0  0.80019  0.18832  0.63436  1.0000
  C   C19       1.0  0.11812  0.74162  0.28376  1.0000
  C   C20       1.0  0.88188  0.25838  0.71624  1.0000
  C   C21       1.0  0.19676  0.66130  0.18186  1.0000
  C   C22       1.0  0.80324  0.33869  0.81814  1.0000
  N   N1        1.0  0.23482  0.07472  0.30718  1.0000
  N   N2        1.0  0.76517  0.92528  0.69281  1.0000
  N   N3        1.0  0.14876  0.19323  0.36321  1.0000
  N   N4        1.0  0.85124  0.80678  0.63679  1.0000
  N   N5        1.0  0.24722  0.27173  0.37396  1.0000
  N   N6        1.0  0.75277  0.72827  0.62603  1.0000
  O   O1        1.0  0.13188  0.45511  0.61876  1.0000
  O   O2        1.0  0.86812  0.54489  0.38124  1.0000
  O   O3        1.0  0.39616  0.43337  0.64434  1.0000
  O   O4        1.0  0.60384  0.56663  0.35564  1.0000
  O   O5        1.0  0.15644  0.99245  0.25931  1.0000
  O   O6        1.0  0.84356  0.00756  0.74069  1.0000
  F   F1        1.0  0.11681  0.55482  0.88271  1.0000
  F   F2        1.0  0.88319  0.44518  0.11729  1.0000
  F   F3        1.0  0.18137  0.28151  0.94929  1.0000
  F   F4        1.0  0.81864  0.71849  0.05071  1.0000
  F   F5        1.0  0.37101  0.38965  0.94890  1.0000
  F   F6        1.0  0.62900  0.61036  0.05110  1.0000
