data_image0
_chemical_formula_structural       Mg2H24C40N4O8
_chemical_formula_sum              "Mg2 H24 C40 N4 O8"
_cell_length_a       9.27071
_cell_length_b       10.0149
_cell_length_c       10.0149
_cell_angle_alpha    61.2608
_cell_angle_beta     85.0176
_cell_angle_gamma    85.0177

_space_group_name_H-M_alt    "P 1"
_space_group_IT_number       1

loop_
  _space_group_symop_operation_xyz
  'x, y, z'

loop_
  _atom_site_type_symbol
  _atom_site_label
  _atom_site_symmetry_multiplicity
  _atom_site_fract_x
  _atom_site_fract_y
  _atom_site_fract_z
  _atom_site_occupancy
  Mg  Mg1       1.0  0.25000  0.05233  0.94767  1.0000
  Mg  Mg2       1.0  0.75000  0.94767  0.05233  1.0000
  H   H1        1.0  0.98891  0.27261  0.99676  1.0000
  H   H2        1.0  0.51109  0.00324  0.72739  1.0000
  H   H3        1.0  0.01109  0.72739  0.00324  1.0000
  H   H4        1.0  0.48891  0.99676  0.27261  1.0000
  H   H5        1.0  0.89715  0.54607  0.86184  1.0000
  H   H6        1.0  0.60285  0.13815  0.45393  1.0000
  H   H7        1.0  0.10285  0.45394  0.13815  1.0000
  H   H8        1.0  0.39715  0.86184  0.54607  1.0000
  H   H9        1.0  0.99698  0.71613  0.59806  1.0000
  H   H10       1.0  0.50302  0.40194  0.28387  1.0000
  H   H11       1.0  0.00302  0.28387  0.40194  1.0000
  H   H12       1.0  0.49698  0.59806  0.71613  1.0000
  H   H13       1.0  0.16108  0.74287  0.37179  1.0000
  H   H14       1.0  0.33892  0.62821  0.25713  1.0000
  H   H15       1.0  0.83892  0.25713  0.62821  1.0000
  H   H16       1.0  0.66108  0.37179  0.74287  1.0000
  H   H17       1.0  0.76697  0.96853  0.65304  1.0000
  H   H18       1.0  0.73303  0.34696  0.03147  1.0000
  H   H19       1.0  0.23303  0.03147  0.34696  1.0000
  H   H20       1.0  0.26697  0.65304  0.96853  1.0000
  H   H21       1.0  0.22368  0.02435  0.60455  1.0000
  H   H22       1.0  0.27632  0.39545  0.97565  1.0000
  H   H23       1.0  0.77632  0.97565  0.39545  1.0000
  H   H24       1.0  0.72368  0.60455  0.02435  1.0000
  C   C1        1.0  0.19330  0.38271  0.68131  1.0000
  C   C2        1.0  0.30670  0.31869  0.61729  1.0000
  C   C3        1.0  0.80670  0.61729  0.31869  1.0000
  C   C4        1.0  0.69330  0.68131  0.38271  1.0000
  C   C5        1.0  0.03395  0.35058  0.88382  1.0000
  C   C6        1.0  0.46605  0.11618  0.64942  1.0000
  C   C7        1.0  0.96605  0.64942  0.11617  1.0000
  C   C8        1.0  0.53396  0.88382  0.35058  1.0000
  C   C9        1.0  0.98156  0.50370  0.80708  1.0000
  C   C10       1.0  0.51845  0.19292  0.49630  1.0000
  C   C11       1.0  0.01844  0.49630  0.19292  1.0000
  C   C12       1.0  0.48156  0.80708  0.50370  1.0000
  C   C13       1.0  0.03646  0.59745  0.66137  1.0000
  C   C14       1.0  0.46354  0.33863  0.40254  1.0000
  C   C15       1.0  0.96354  0.40254  0.33863  1.0000
  C   C16       1.0  0.53646  0.66137  0.59745  1.0000
  C   C17       1.0  0.14325  0.53738  0.59254  1.0000
  C   C18       1.0  0.35675  0.40746  0.46261  1.0000
  C   C19       1.0  0.85675  0.46261  0.40746  1.0000
  C   C20       1.0  0.64325  0.59254  0.53739  1.0000
  C   C21       1.0  0.19982  0.62456  0.43905  1.0000
  C   C22       1.0  0.30018  0.56095  0.37544  1.0000
  C   C23       1.0  0.80018  0.37544  0.56095  1.0000
  C   C24       1.0  0.69982  0.43905  0.62456  1.0000
  C   C25       1.0  0.99484  0.99655  0.64196  1.0000
  C   C26       1.0  0.50516  0.35804  0.00345  1.0000
  C   C27       1.0  0.00516  0.00345  0.35804  1.0000
  C   C28       1.0  0.49483  0.64196  0.99655  1.0000
  C   C29       1.0  0.86785  0.98280  0.58410  1.0000
  C   C30       1.0  0.63215  0.41590  0.01720  1.0000
  C   C31       1.0  0.13215  0.01720  0.41590  1.0000
  C   C32       1.0  0.36784  0.58410  0.98280  1.0000
  C   C33       1.0  0.98950  0.99553  0.79348  1.0000
  C   C34       1.0  0.51050  0.20652  0.00447  1.0000
  C   C35       1.0  0.01051  0.00447  0.20652  1.0000
  C   C36       1.0  0.48949  0.79348  0.99554  1.0000
  C   C37       1.0  0.12684  0.01327  0.55716  1.0000
  C   C38       1.0  0.37316  0.44284  0.98673  1.0000
  C   C39       1.0  0.87316  0.98673  0.44284  1.0000
  C   C40       1.0  0.62684  0.55716  0.01328  1.0000
  N   N1        1.0  0.13836  0.29160  0.82466  1.0000
  N   N2        1.0  0.36164  0.17533  0.70840  1.0000
  N   N3        1.0  0.86164  0.70840  0.17534  1.0000
  N   N4        1.0  0.63836  0.82466  0.29160  1.0000
  O   O1        1.0  0.10971  0.98352  0.85003  1.0000
  O   O2        1.0  0.39029  0.14997  0.01648  1.0000
  O   O3        1.0  0.89028  0.01648  0.14997  1.0000
  O   O4        1.0  0.60971  0.85003  0.98353  1.0000
  O   O5        1.0  0.86452  0.00518  0.85182  1.0000
  O   O6        1.0  0.63548  0.14818  0.99482  1.0000
  O   O7        1.0  0.13548  0.99482  0.14818  1.0000
  O   O8        1.0  0.36452  0.85181  0.00519  1.0000
