data_image0
_chemical_formula_structural       Cd6H28C24N20Cl12O4
_chemical_formula_sum              "Cd6 H28 C24 N20 Cl12 O4"
_cell_length_a       10.4642
_cell_length_b       10.7856
_cell_length_c       14.4338
_cell_angle_alpha    100.611
_cell_angle_beta     89.9992
_cell_angle_gamma    119.034

_space_group_name_H-M_alt    "P 1"
_space_group_IT_number       1

loop_
  _space_group_symop_operation_xyz
  'x, y, z'

loop_
  _atom_site_type_symbol
  _atom_site_label
  _atom_site_symmetry_multiplicity
  _atom_site_fract_x
  _atom_site_fract_y
  _atom_site_fract_z
  _atom_site_occupancy
  Cd  Cd1       1.0  0.13138  0.42907  0.98867  1.0000
  Cd  Cd2       1.0  0.70230  0.57092  0.51133  1.0000
  Cd  Cd3       1.0  0.86862  0.57093  0.01133  1.0000
  Cd  Cd4       1.0  0.29770  0.42908  0.48867  1.0000
  Cd  Cd5       1.0  0.50000  0.50000  1.00000  1.0000
  Cd  Cd6       1.0  1.00000  0.50000  0.50000  1.0000
  H   H1        1.0  0.94937  0.15516  0.87705  1.0000
  H   H2        1.0  0.79422  0.84489  0.62291  1.0000
  H   H3        1.0  0.05063  0.84484  0.12295  1.0000
  H   H4        1.0  0.20578  0.15511  0.37709  1.0000
  H   H5        1.0  0.83693  0.19144  0.93373  1.0000
  H   H6        1.0  0.64547  0.80857  0.56623  1.0000
  H   H7        1.0  0.16307  0.80856  0.06626  1.0000
  H   H8        1.0  0.35453  0.19144  0.43377  1.0000
  H   H9        1.0  0.75257  0.08350  0.17457  1.0000
  H   H10       1.0  0.66909  0.91655  0.32538  1.0000
  H   H11       1.0  0.24743  0.91650  0.82543  1.0000
  H   H12       1.0  0.33091  0.08345  0.67462  1.0000
  H   H13       1.0  0.34115  0.07275  0.11355  1.0000
  H   H14       1.0  0.26843  0.92729  0.38649  1.0000
  H   H15       1.0  0.65885  0.92725  0.88645  1.0000
  H   H16       1.0  0.73157  0.07271  0.61351  1.0000
  H   H17       1.0  0.45801  0.33069  0.20507  1.0000
  H   H18       1.0  0.12721  0.66937  0.29497  1.0000
  H   H19       1.0  0.54199  0.66931  0.79493  1.0000
  H   H20       1.0  0.87279  0.33063  0.70503  1.0000
  H   H21       1.0  0.85177  0.34120  0.26550  1.0000
  H   H22       1.0  0.51044  0.65883  0.23446  1.0000
  H   H23       1.0  0.14823  0.65880  0.73450  1.0000
  H   H24       1.0  0.48957  0.34118  0.76554  1.0000
  H   H25       1.0  0.70162  0.44376  0.27478  1.0000
  H   H26       1.0  0.25764  0.55630  0.22521  1.0000
  H   H27       1.0  0.29838  0.55624  0.72522  1.0000
  H   H28       1.0  0.74236  0.44370  0.77478  1.0000
  C   C1        1.0  0.47713  0.90523  0.09193  1.0000
  C   C2        1.0  0.57202  0.09483  0.40802  1.0000
  C   C3        1.0  0.52286  0.09477  0.90807  1.0000
  C   C4        1.0  0.42798  0.90517  0.59198  1.0000
  C   C5        1.0  0.53771  0.05661  0.13940  1.0000
  C   C6        1.0  0.48115  0.94344  0.36057  1.0000
  C   C7        1.0  0.46229  0.94339  0.86060  1.0000
  C   C8        1.0  0.51885  0.05656  0.63943  1.0000
  C   C9        1.0  0.68420  0.13429  0.18053  1.0000
  C   C10       1.0  0.54990  0.86575  0.31939  1.0000
  C   C11       1.0  0.31580  0.86571  0.81947  1.0000
  C   C12       1.0  0.45010  0.13425  0.68061  1.0000
  C   C13       1.0  0.45330  0.12673  0.14730  1.0000
  C   C14       1.0  0.32659  0.87335  0.35269  1.0000
  C   C15       1.0  0.54670  0.87327  0.85270  1.0000
  C   C16       1.0  0.67341  0.12665  0.64731  1.0000
  C   C17       1.0  0.51558  0.26881  0.19663  1.0000
  C   C18       1.0  0.24670  0.73126  0.30338  1.0000
  C   C19       1.0  0.48442  0.73119  0.80337  1.0000
  C   C20       1.0  0.75330  0.26875  0.69662  1.0000
  C   C21       1.0  0.74078  0.27567  0.22994  1.0000
  C   C22       1.0  0.46501  0.72436  0.27002  1.0000
  C   C23       1.0  0.25922  0.72433  0.77006  1.0000
  C   C24       1.0  0.53499  0.27564  0.72998  1.0000
  N   N1        1.0  0.56105  0.84209  0.07241  1.0000
  N   N2        1.0  0.71910  0.15803  0.42755  1.0000
  N   N3        1.0  0.43895  0.15791  0.92759  1.0000
  N   N4        1.0  0.28090  0.84197  0.57245  1.0000
  N   N5        1.0  0.33283  0.80811  0.06594  1.0000
  N   N6        1.0  0.52481  0.19190  0.43404  1.0000
  N   N7        1.0  0.66717  0.19189  0.93406  1.0000
  N   N8        1.0  0.47519  0.80810  0.56596  1.0000
  N   N9        1.0  0.32935  0.68376  0.03020  1.0000
  N   N10       1.0  0.64571  0.31627  0.46980  1.0000
  N   N11       1.0  0.67064  0.31624  0.96980  1.0000
  N   N12       1.0  0.35429  0.68373  0.53020  1.0000
  N   N13       1.0  0.46592  0.70507  0.03415  1.0000
  N   N14       1.0  0.76100  0.29502  0.46584  1.0000
  N   N15       1.0  0.53408  0.29493  0.96585  1.0000
  N   N16       1.0  0.23900  0.70498  0.53416  1.0000
  N   N17       1.0  0.65545  0.33787  0.23704  1.0000
  N   N18       1.0  0.31745  0.66219  0.26294  1.0000
  N   N19       1.0  0.34455  0.66213  0.76296  1.0000
  N   N20       1.0  0.68255  0.33781  0.73706  1.0000
  Cl  Cl1       1.0  0.28501  0.37921  0.85971  1.0000
  Cl  Cl2       1.0  0.90576  0.62078  0.64029  1.0000
  Cl  Cl3       1.0  0.71499  0.62079  0.14029  1.0000
  Cl  Cl4       1.0  0.09424  0.37922  0.35971  1.0000
  Cl  Cl5       1.0  0.00566  0.51335  0.87560  1.0000
  Cl  Cl6       1.0  0.49228  0.48662  0.62441  1.0000
  Cl  Cl7       1.0  0.99434  0.48665  0.12440  1.0000
  Cl  Cl8       1.0  0.50772  0.51338  0.37559  1.0000
  Cl  Cl9       1.0  0.28502  0.38444  0.11123  1.0000
  Cl  Cl10      1.0  0.90063  0.61561  0.38878  1.0000
  Cl  Cl11      1.0  0.71498  0.61556  0.88877  1.0000
  Cl  Cl12      1.0  0.09937  0.38439  0.61122  1.0000
  O   O1        1.0  0.93157  0.18945  0.94028  1.0000
  O   O2        1.0  0.74209  0.81055  0.55968  1.0000
  O   O3        1.0  0.06843  0.81055  0.05972  1.0000
  O   O4        1.0  0.25791  0.18946  0.44032  1.0000
