data_image0
_chemical_formula_structural       Cd4H28C28N4O28
_chemical_formula_sum              "Cd4 H28 C28 N4 O28"
_cell_length_a       6.28495
_cell_length_b       10.7507
_cell_length_c       15.9302
_cell_angle_alpha    92.4456
_cell_angle_beta     102.75
_cell_angle_gamma    101.547

_space_group_name_H-M_alt    "P 1"
_space_group_IT_number       1

loop_
  _space_group_symop_operation_xyz
  'x, y, z'

loop_
  _atom_site_type_symbol
  _atom_site_label
  _atom_site_symmetry_multiplicity
  _atom_site_fract_x
  _atom_site_fract_y
  _atom_site_fract_z
  _atom_site_occupancy
  Cd  Cd1       1.0  0.18849  0.40461  0.56684  1.0000
  Cd  Cd2       1.0  0.81151  0.59539  0.43316  1.0000
  Cd  Cd3       1.0  0.45518  0.47006  0.87289  1.0000
  Cd  Cd4       1.0  0.54482  0.52994  0.12711  1.0000
  H   H1        1.0  0.81435  0.16127  0.25474  1.0000
  H   H2        1.0  0.18565  0.83874  0.74526  1.0000
  H   H3        1.0  0.66191  0.95186  0.46827  1.0000
  H   H4        1.0  0.33809  0.04814  0.53173  1.0000
  H   H5        1.0  0.65117  0.83641  0.66571  1.0000
  H   H6        1.0  0.34883  0.16359  0.33429  1.0000
  H   H7        1.0  0.93584  0.95084  0.93729  1.0000
  H   H8        1.0  0.06415  0.04916  0.06271  1.0000
  H   H9        1.0  0.54424  0.87273  0.32188  1.0000
  H   H10       1.0  0.45576  0.12727  0.67811  1.0000
  H   H11       1.0  0.84811  0.04143  0.71808  1.0000
  H   H12       1.0  0.15189  0.95856  0.28192  1.0000
  H   H13       1.0  0.65078  0.39563  0.57926  1.0000
  H   H14       1.0  0.34921  0.60437  0.42074  1.0000
  H   H15       1.0  0.51332  0.33001  0.49030  1.0000
  H   H16       1.0  0.48668  0.66999  0.50970  1.0000
  H   H17       1.0  0.16002  0.60363  0.93929  1.0000
  H   H18       1.0  0.83998  0.39637  0.06071  1.0000
  H   H19       1.0  0.06407  0.58736  0.83384  1.0000
  H   H20       1.0  0.93593  0.41264  0.16616  1.0000
  H   H21       1.0  0.17250  0.25955  0.75393  1.0000
  H   H22       1.0  0.82750  0.74045  0.24607  1.0000
  H   H23       1.0  0.17857  0.23353  0.85387  1.0000
  H   H24       1.0  0.82143  0.76646  0.14613  1.0000
  H   H25       1.0  0.78829  0.29208  0.91081  1.0000
  H   H26       1.0  0.21171  0.70792  0.08920  1.0000
  H   H27       1.0  0.91200  0.43407  0.91146  1.0000
  H   H28       1.0  0.08800  0.56593  0.08854  1.0000
  C   C1        1.0  0.03156  0.38527  0.35495  1.0000
  C   C2        1.0  0.96845  0.61473  0.64506  1.0000
  C   C3        1.0  0.94199  0.25595  0.38325  1.0000
  C   C4        1.0  0.05801  0.74404  0.61675  1.0000
  C   C5        1.0  0.82889  0.15338  0.32346  1.0000
  C   C6        1.0  0.17111  0.84663  0.67654  1.0000
  C   C7        1.0  0.72705  0.04081  0.35333  1.0000
  C   C8        1.0  0.27295  0.95919  0.64667  1.0000
  C   C9        1.0  0.74328  0.03569  0.44229  1.0000
  C   C10       1.0  0.25673  0.96431  0.55771  1.0000
  C   C11       1.0  0.86698  0.14143  0.49764  1.0000
  C   C12       1.0  0.13302  0.85857  0.50236  1.0000
  C   C13       1.0  0.89706  0.14290  0.59469  1.0000
  C   C14       1.0  0.10294  0.85710  0.40531  1.0000
  C   C15       1.0  0.47042  0.59177  0.68830  1.0000
  C   C16       1.0  0.52958  0.40823  0.31171  1.0000
  C   C17       1.0  0.59946  0.69686  0.75583  1.0000
  C   C18       1.0  0.40054  0.30315  0.24417  1.0000
  C   C19       1.0  0.68113  0.81722  0.73325  1.0000
  C   C20       1.0  0.31887  0.18278  0.26676  1.0000
  C   C21       1.0  0.80525  0.91295  0.79895  1.0000
  C   C22       1.0  0.19475  0.08705  0.20105  1.0000
  C   C23       1.0  0.83986  0.88010  0.88478  1.0000
  C   C24       1.0  0.16013  0.11990  0.11522  1.0000
  C   C25       1.0  0.74609  0.75799  0.90119  1.0000
  C   C26       1.0  0.25392  0.24202  0.09882  1.0000
  C   C27       1.0  0.76587  0.72216  0.99288  1.0000
  C   C28       1.0  0.23413  0.27784  0.00712  1.0000
  N   N1        1.0  0.96484  0.24806  0.46859  1.0000
  N   N2        1.0  0.03516  0.75195  0.53142  1.0000
  N   N3        1.0  0.62718  0.66705  0.83809  1.0000
  N   N4        1.0  0.37282  0.33295  0.16191  1.0000
  O   O1        1.0  0.02105  0.39521  0.27658  1.0000
  O   O2        1.0  0.97896  0.60480  0.72343  1.0000
  O   O3        1.0  0.10699  0.47860  0.41568  1.0000
  O   O4        1.0  0.89301  0.52140  0.58432  1.0000
  O   O5        1.0  0.61418  0.94399  0.29406  1.0000
  O   O6        1.0  0.38582  0.05601  0.70594  1.0000
  O   O7        1.0  0.78123  0.05006  0.62208  1.0000
  O   O8        1.0  0.21877  0.94994  0.37792  1.0000
  O   O9        1.0  0.03595  0.23595  0.64160  1.0000
  O   O10       1.0  0.96405  0.76405  0.35839  1.0000
  O   O11       1.0  0.43220  0.61371  0.60882  1.0000
  O   O12       1.0  0.56779  0.38630  0.39118  1.0000
  O   O13       1.0  0.39476  0.48350  0.71202  1.0000
  O   O14       1.0  0.60524  0.51651  0.28798  1.0000
  O   O15       1.0  0.89091  0.03011  0.78339  1.0000
  O   O16       1.0  0.10909  0.96988  0.21661  1.0000
  O   O17       1.0  0.90136  0.79705  0.05272  1.0000
  O   O18       1.0  0.09864  0.20296  0.94728  1.0000
  O   O19       1.0  0.63757  0.61708  0.00157  1.0000
  O   O20       1.0  0.36243  0.38292  0.99843  1.0000
  O   O21       1.0  0.51310  0.33041  0.55235  1.0000
  O   O22       1.0  0.48690  0.66959  0.44765  1.0000
  O   O23       1.0  0.11711  0.54510  0.88618  1.0000
  O   O24       1.0  0.88290  0.45490  0.11382  1.0000
  O   O25       1.0  0.26716  0.27455  0.81345  1.0000
  O   O26       1.0  0.73284  0.72545  0.18655  1.0000
  O   O27       1.0  0.78314  0.37926  0.92904  1.0000
  O   O28       1.0  0.21686  0.62074  0.07096  1.0000
