data_image0
_chemical_formula_structural       Zn2H18C30S4N4O8
_chemical_formula_sum              "Zn2 H18 C30 S4 N4 O8"
_cell_length_a       7.7956
_cell_length_b       8.64755
_cell_length_c       15.9411
_cell_angle_alpha    91.2805
_cell_angle_beta     94.1579
_cell_angle_gamma    125.479

_space_group_name_H-M_alt    "P 1"
_space_group_IT_number       1

loop_
  _space_group_symop_operation_xyz
  'x, y, z'

loop_
  _atom_site_type_symbol
  _atom_site_label
  _atom_site_symmetry_multiplicity
  _atom_site_fract_x
  _atom_site_fract_y
  _atom_site_fract_z
  _atom_site_occupancy
  Zn  Zn1       1.0  0.78878  0.75344  0.30212  1.0000
  Zn  Zn2       1.0  0.21114  0.24642  0.69790  1.0000
  H   H1        1.0  0.68765  0.33486  0.00722  1.0000
  H   H2        1.0  0.31247  0.66573  0.99271  1.0000
  H   H3        1.0  0.33864  0.02722  0.00834  1.0000
  H   H4        1.0  0.66139  0.97344  0.99144  1.0000
  H   H5        1.0  0.31592  0.11951  0.26227  1.0000
  H   H6        1.0  0.68409  0.88025  0.73761  1.0000
  H   H7        1.0  0.67853  0.42218  0.27528  1.0000
  H   H8        1.0  0.32157  0.57751  0.72474  1.0000
  H   H9        1.0  0.92054  0.10994  0.30553  1.0000
  H   H10       1.0  0.07936  0.88986  0.69449  1.0000
  H   H11       1.0  0.02705  0.44108  0.29389  1.0000
  H   H12       1.0  0.97294  0.55875  0.70619  1.0000
  H   H13       1.0  0.07962  0.41183  0.03665  1.0000
  H   H14       1.0  0.92049  0.58819  0.96343  1.0000
  H   H15       1.0  0.98972  0.08771  0.03846  1.0000
  H   H16       1.0  0.01013  0.91219  0.96157  1.0000
  H   H17       1.0  0.24545  0.07571  0.52033  1.0000
  H   H18       1.0  0.75453  0.92428  0.47970  1.0000
  C   C1        1.0  0.71128  0.40767  0.14141  1.0000
  C   C2        1.0  0.28886  0.59246  0.85858  1.0000
  C   C3        1.0  0.61160  0.29542  0.06535  1.0000
  C   C4        1.0  0.38850  0.70501  0.93458  1.0000
  C   C5        1.0  0.41444  0.12181  0.06608  1.0000
  C   C6        1.0  0.58560  0.87864  0.93376  1.0000
  C   C7        1.0  0.40293  0.17155  0.20682  1.0000
  C   C8        1.0  0.59713  0.82839  0.79308  1.0000
  C   C9        1.0  0.60336  0.34520  0.21348  1.0000
  C   C10       1.0  0.39673  0.65470  0.78650  1.0000
  C   C11       1.0  0.92005  0.05773  0.17010  1.0000
  C   C12       1.0  0.07987  0.94215  0.82992  1.0000
  C   C13       1.0  0.95186  0.16903  0.24441  1.0000
  C   C14       1.0  0.04806  0.83081  0.75563  1.0000
  C   C15       1.0  0.01452  0.35338  0.24023  1.0000
  C   C16       1.0  0.98544  0.64647  0.75983  1.0000
  C   C17       1.0  0.04693  0.33943  0.09455  1.0000
  C   C18       1.0  0.95308  0.66052  0.90551  1.0000
  C   C19       1.0  0.99012  0.15714  0.09614  1.0000
  C   C20       1.0  0.00979  0.84277  0.90389  1.0000
  C   C21       1.0  0.11944  0.84890  0.38521  1.0000
  C   C22       1.0  0.88050  0.15102  0.61483  1.0000
  C   C23       1.0  0.31959  0.92252  0.44074  1.0000
  C   C24       1.0  0.68036  0.07743  0.55930  1.0000
  C   C25       1.0  0.35785  0.04227  0.51103  1.0000
  C   C26       1.0  0.64213  0.95771  0.48900  1.0000
  C   C27       1.0  0.46631  0.88059  0.42895  1.0000
  C   C28       1.0  0.53365  0.11938  0.57109  1.0000
  C   C29       1.0  0.46339  0.77894  0.35008  1.0000
  C   C30       1.0  0.53658  0.22104  0.64996  1.0000
  S   S1        1.0  0.98872  0.60113  0.15113  1.0000
  S   S2        1.0  0.01146  0.39889  0.84895  1.0000
  S   S3        1.0  0.79149  0.81544  0.16282  1.0000
  S   S4        1.0  0.20848  0.18444  0.83720  1.0000
  N   N1        1.0  0.31108  0.05915  0.13479  1.0000
  N   N2        1.0  0.68895  0.94105  0.86503  1.0000
  N   N3        1.0  0.04950  0.43331  0.16484  1.0000
  N   N4        1.0  0.95053  0.56660  0.83524  1.0000
  O   O1        1.0  0.08083  0.97072  0.36684  1.0000
  O   O2        1.0  0.91916  0.02921  0.63315  1.0000
  O   O3        1.0  0.98238  0.67282  0.36097  1.0000
  O   O4        1.0  0.01752  0.32708  0.63911  1.0000
  O   O5        1.0  0.55693  0.69336  0.36278  1.0000
  O   O6        1.0  0.44304  0.30661  0.63725  1.0000
  O   O7        1.0  0.38792  0.78978  0.28110  1.0000
  O   O8        1.0  0.61206  0.21020  0.71893  1.0000
