data_image0
_chemical_formula_structural       Sr4H8C8O16
_chemical_formula_sum              "Sr4 H8 C8 O16"
_cell_length_a       7.20938
_cell_length_b       7.20933
_cell_length_c       9.3118
_cell_angle_alpha    90.0002
_cell_angle_beta     89.9992
_cell_angle_gamma    90.0449

_space_group_name_H-M_alt    "P 1"
_space_group_IT_number       1

loop_
  _space_group_symop_operation_xyz
  'x, y, z'

loop_
  _atom_site_type_symbol
  _atom_site_label
  _atom_site_symmetry_multiplicity
  _atom_site_fract_x
  _atom_site_fract_y
  _atom_site_fract_z
  _atom_site_occupancy
  Sr  Sr1       1.0  0.28730  0.28731  0.50001  1.0000
  Sr  Sr2       1.0  0.21227  0.78774  0.74999  1.0000
  Sr  Sr3       1.0  0.71270  0.71269  1.00000  1.0000
  Sr  Sr4       1.0  0.78773  0.21226  0.25000  1.0000
  H   H1        1.0  0.31103  0.11136  0.06951  1.0000
  H   H2        1.0  0.38845  0.81134  0.31902  1.0000
  H   H3        1.0  0.68897  0.88865  0.56950  1.0000
  H   H4        1.0  0.61157  0.18865  0.81902  1.0000
  H   H5        1.0  0.11135  0.31102  0.93051  1.0000
  H   H6        1.0  0.81132  0.38844  0.68098  1.0000
  H   H7        1.0  0.88863  0.68898  0.43050  1.0000
  H   H8        1.0  0.18866  0.61159  0.18098  1.0000
  C   C1        1.0  0.29428  0.18074  0.17509  1.0000
  C   C2        1.0  0.31897  0.79389  0.42447  1.0000
  C   C3        1.0  0.70573  0.81926  0.67506  1.0000
  C   C4        1.0  0.68105  0.20610  0.92447  1.0000
  C   C5        1.0  0.18073  0.29428  0.82495  1.0000
  C   C6        1.0  0.79388  0.31895  0.57551  1.0000
  C   C7        1.0  0.81926  0.70573  0.32495  1.0000
  C   C8        1.0  0.20610  0.68106  0.07551  1.0000
  O   O1        1.0  0.43962  0.21842  0.24630  1.0000
  O   O2        1.0  0.28088  0.93891  0.49602  1.0000
  O   O3        1.0  0.56039  0.78157  0.74629  1.0000
  O   O4        1.0  0.71915  0.06109  0.99601  1.0000
  O   O5        1.0  0.21841  0.43961  0.75373  1.0000
  O   O6        1.0  0.93890  0.28089  0.50396  1.0000
  O   O7        1.0  0.78157  0.56038  0.25371  1.0000
  O   O8        1.0  0.06111  0.71913  0.00397  1.0000
  O   O9        1.0  0.13189  0.21674  0.21874  1.0000
  O   O10       1.0  0.28326  0.63125  0.46770  1.0000
  O   O11       1.0  0.86812  0.78324  0.71870  1.0000
  O   O12       1.0  0.71676  0.36874  0.96769  1.0000
  O   O13       1.0  0.21675  0.13189  0.78129  1.0000
  O   O14       1.0  0.63123  0.28324  0.53230  1.0000
  O   O15       1.0  0.78324  0.86811  0.28129  1.0000
  O   O16       1.0  0.36876  0.71676  0.03229  1.0000
