data_image0
_chemical_formula_structural       Sr4H8C8O16
_chemical_formula_sum              "Sr4 H8 C8 O16"
_cell_length_a       6.79858
_cell_length_b       7.27584
_cell_length_c       8.90371
_cell_angle_alpha    89.9999
_cell_angle_beta     89.9998
_cell_angle_gamma    89.9995

_space_group_name_H-M_alt    "P 1"
_space_group_IT_number       1

loop_
  _space_group_symop_operation_xyz
  'x, y, z'

loop_
  _atom_site_type_symbol
  _atom_site_label
  _atom_site_symmetry_multiplicity
  _atom_site_fract_x
  _atom_site_fract_y
  _atom_site_fract_z
  _atom_site_occupancy
  Sr  Sr1       1.0  0.99712  0.74162  0.83581  1.0000
  Sr  Sr2       1.0  0.50288  0.25838  0.33581  1.0000
  Sr  Sr3       1.0  0.00288  0.24162  0.66419  1.0000
  Sr  Sr4       1.0  0.49712  0.75838  0.16419  1.0000
  H   H1        1.0  0.95902  0.49483  0.21654  1.0000
  H   H2        1.0  0.54096  0.50515  0.71654  1.0000
  H   H3        1.0  0.04097  0.99482  0.28347  1.0000
  H   H4        1.0  0.45903  0.00517  0.78348  1.0000
  H   H5        1.0  0.29099  0.69780  0.50894  1.0000
  H   H6        1.0  0.20902  0.30220  0.00896  1.0000
  H   H7        1.0  0.70903  0.19781  0.99105  1.0000
  H   H8        1.0  0.79098  0.80220  0.49104  1.0000
  C   C1        1.0  0.10586  0.55605  0.19763  1.0000
  C   C2        1.0  0.39413  0.44394  0.69764  1.0000
  C   C3        1.0  0.89414  0.05605  0.30236  1.0000
  C   C4        1.0  0.60586  0.94395  0.80237  1.0000
  C   C5        1.0  0.27316  0.84927  0.50858  1.0000
  C   C6        1.0  0.22683  0.15073  0.00858  1.0000
  C   C7        1.0  0.72684  0.34928  0.99141  1.0000
  C   C8        1.0  0.77317  0.65074  0.49141  1.0000
  O   O1        1.0  0.16173  0.91812  0.60773  1.0000
  O   O2        1.0  0.33828  0.08187  0.10772  1.0000
  O   O3        1.0  0.83827  0.41814  0.89227  1.0000
  O   O4        1.0  0.66172  0.58187  0.39227  1.0000
  O   O5        1.0  0.36446  0.93636  0.40638  1.0000
  O   O6        1.0  0.13556  0.06366  0.90639  1.0000
  O   O7        1.0  0.63554  0.43635  0.09362  1.0000
  O   O8        1.0  0.86443  0.56365  0.59361  1.0000
  O   O9        1.0  0.12239  0.68262  0.09977  1.0000
  O   O10       1.0  0.37762  0.31737  0.59976  1.0000
  O   O11       1.0  0.87762  0.18262  0.40023  1.0000
  O   O12       1.0  0.62239  0.81738  0.90024  1.0000
  O   O13       1.0  0.24877  0.49869  0.27651  1.0000
  O   O14       1.0  0.25123  0.50130  0.77650  1.0000
  O   O15       1.0  0.75124  0.99870  0.22350  1.0000
  O   O16       1.0  0.74877  0.00131  0.72350  1.0000
