data_image0
_chemical_formula_structural       Sr4H8C8O16
_chemical_formula_sum              "Sr4 H8 C8 O16"
_cell_length_a       7.2212
_cell_length_b       7.22074
_cell_length_c       9.26055
_cell_angle_alpha    90.0075
_cell_angle_beta     89.9901
_cell_angle_gamma    90.1179

_space_group_name_H-M_alt    "P 1"
_space_group_IT_number       1

loop_
  _space_group_symop_operation_xyz
  'x, y, z'

loop_
  _atom_site_type_symbol
  _atom_site_label
  _atom_site_symmetry_multiplicity
  _atom_site_fract_x
  _atom_site_fract_y
  _atom_site_fract_z
  _atom_site_occupancy
  Sr  Sr1       1.0  0.21504  0.21494  0.50007  1.0000
  Sr  Sr2       1.0  0.28474  0.71513  0.74998  1.0000
  Sr  Sr3       1.0  0.78503  0.78509  0.00006  1.0000
  Sr  Sr4       1.0  0.71525  0.28480  0.24995  1.0000
  H   H1        1.0  0.19883  0.39759  0.07097  1.0000
  H   H2        1.0  0.10250  0.69789  0.32129  1.0000
  H   H3        1.0  0.80122  0.60242  0.57092  1.0000
  H   H4        1.0  0.89754  0.30202  0.82130  1.0000
  H   H5        1.0  0.39776  0.19890  0.92912  1.0000
  H   H6        1.0  0.69782  0.10270  0.67868  1.0000
  H   H7        1.0  0.60219  0.80102  0.42912  1.0000
  H   H8        1.0  0.30207  0.89731  0.17870  1.0000
  C   C1        1.0  0.21083  0.32258  0.17515  1.0000
  C   C2        1.0  0.17785  0.71022  0.42527  1.0000
  C   C3        1.0  0.78921  0.67750  0.67512  1.0000
  C   C4        1.0  0.82208  0.28980  0.92530  1.0000
  C   C5        1.0  0.32270  0.21069  0.82500  1.0000
  C   C6        1.0  0.71022  0.17790  0.57457  1.0000
  C   C7        1.0  0.67731  0.78921  0.32501  1.0000
  C   C8        1.0  0.28979  0.82211  0.07459  1.0000
  O   O1        1.0  0.37092  0.28171  0.22109  1.0000
  O   O2        1.0  0.21794  0.87045  0.47173  1.0000
  O   O3        1.0  0.62911  0.71826  0.72108  1.0000
  O   O4        1.0  0.78188  0.12961  0.97172  1.0000
  O   O5        1.0  0.28179  0.37069  0.77894  1.0000
  O   O6        1.0  0.87049  0.21788  0.52820  1.0000
  O   O7        1.0  0.71826  0.62920  0.27892  1.0000
  O   O8        1.0  0.12958  0.78212  0.02812  1.0000
  O   O9        1.0  0.06292  0.28389  0.24279  1.0000
  O   O10       1.0  0.21765  0.56244  0.49239  1.0000
  O   O11       1.0  0.93706  0.71636  0.74274  1.0000
  O   O12       1.0  0.78234  0.43761  0.99241  1.0000
  O   O13       1.0  0.28391  0.06273  0.75744  1.0000
  O   O14       1.0  0.56244  0.21754  0.50734  1.0000
  O   O15       1.0  0.71611  0.93718  0.25749  1.0000
  O   O16       1.0  0.43763  0.78249  0.00746  1.0000
