data_image0
_chemical_formula_structural       Zn2H36C46N4O12
_chemical_formula_sum              "Zn2 H36 C46 N4 O12"
_cell_length_a       8.11158
_cell_length_b       8.69901
_cell_length_c       15.776
_cell_angle_alpha    102.721
_cell_angle_beta     92.5162
_cell_angle_gamma    108.954

_space_group_name_H-M_alt    "P 1"
_space_group_IT_number       1

loop_
  _space_group_symop_operation_xyz
  'x, y, z'

loop_
  _atom_site_type_symbol
  _atom_site_label
  _atom_site_symmetry_multiplicity
  _atom_site_fract_x
  _atom_site_fract_y
  _atom_site_fract_z
  _atom_site_occupancy
  Zn  Zn1       1.0  0.71732  0.41990  0.47352  1.0000
  Zn  Zn2       1.0  0.28268  0.58010  0.52648  1.0000
  H   H1        1.0  0.30504  0.96260  0.50749  1.0000
  H   H2        1.0  0.69496  0.03740  0.49251  1.0000
  H   H3        1.0  0.24845  0.38716  0.68614  1.0000
  H   H4        1.0  0.75155  0.61284  0.31386  1.0000
  H   H5        1.0  0.84711  0.89808  0.64161  1.0000
  H   H6        1.0  0.15289  0.10192  0.35839  1.0000
  H   H7        1.0  0.15493  0.36972  0.83217  1.0000
  H   H8        1.0  0.84507  0.63028  0.16783  1.0000
  H   H9        1.0  0.98150  0.48984  0.93533  1.0000
  H   H10       1.0  0.01850  0.51016  0.06467  1.0000
  H   H11       1.0  0.99998  0.44047  0.34810  1.0000
  H   H12       1.0  0.00002  0.55953  0.65190  1.0000
  H   H13       1.0  0.85246  0.82800  0.05501  1.0000
  H   H14       1.0  0.14754  0.17200  0.94499  1.0000
  H   H15       1.0  0.95746  0.99095  0.15089  1.0000
  H   H16       1.0  0.04254  0.00905  0.84912  1.0000
  H   H17       1.0  0.68887  0.10852  0.64600  1.0000
  H   H18       1.0  0.31113  0.89148  0.35400  1.0000
  H   H19       1.0  0.51543  0.23119  0.74872  1.0000
  H   H20       1.0  0.48457  0.76881  0.25128  1.0000
  H   H21       1.0  0.00797  0.30177  0.19164  1.0000
  H   H22       1.0  0.99204  0.69824  0.80836  1.0000
  H   H23       1.0  0.22222  0.09191  0.08017  1.0000
  H   H24       1.0  0.77778  0.90809  0.91983  1.0000
  H   H25       1.0  0.16769  0.87292  0.07498  1.0000
  H   H26       1.0  0.83231  0.12708  0.92502  1.0000
  H   H27       1.0  0.61581  0.95531  0.05797  1.0000
  H   H28       1.0  0.38420  0.04469  0.94204  1.0000
  H   H29       1.0  0.67224  0.15616  0.03589  1.0000
  H   H30       1.0  0.32777  0.84384  0.96411  1.0000
  H   H31       1.0  0.46409  0.19633  0.32953  1.0000
  H   H32       1.0  0.53591  0.80367  0.67047  1.0000
  H   H33       1.0  0.44918  0.04790  0.17310  1.0000
  H   H34       1.0  0.55082  0.95210  0.82690  1.0000
  H   H35       1.0  0.40993  0.45545  0.93635  1.0000
  H   H36       1.0  0.59006  0.54453  0.06365  1.0000
  C   C1        1.0  0.03707  0.15134  0.67392  1.0000
  C   C2        1.0  0.96293  0.84866  0.32608  1.0000
  C   C3        1.0  0.99682  0.73085  0.52461  1.0000
  C   C4        1.0  0.00318  0.26915  0.47539  1.0000
  C   C5        1.0  0.23145  0.01535  0.55457  1.0000
  C   C6        1.0  0.76855  0.98465  0.44543  1.0000
  C   C7        1.0  0.29228  0.18754  0.59433  1.0000
  C   C8        1.0  0.70772  0.81246  0.40567  1.0000
  C   C9        1.0  0.07174  0.91209  0.57274  1.0000
  C   C10       1.0  0.92826  0.08791  0.42726  1.0000
  C   C11       1.0  0.19852  0.25289  0.65616  1.0000
  C   C12       1.0  0.80149  0.74711  0.34384  1.0000
  C   C13       1.0  0.93295  0.22601  0.73354  1.0000
  C   C14       1.0  0.06704  0.77399  0.26646  1.0000
  C   C15       1.0  0.97375  0.98064  0.63095  1.0000
  C   C16       1.0  0.02625  0.01936  0.36905  1.0000
  C   C17       1.0  0.44274  0.30854  0.56428  1.0000
  C   C18       1.0  0.55726  0.69146  0.43572  1.0000
  C   C19       1.0  0.01460  0.33844  0.81434  1.0000
  C   C20       1.0  0.98540  0.66157  0.18566  1.0000
  C   C21       1.0  0.91741  0.40529  0.87235  1.0000
  C   C22       1.0  0.08259  0.59472  0.12765  1.0000
  C   C23       1.0  0.63394  0.42707  0.91525  1.0000
  C   C24       1.0  0.36606  0.57293  0.08474  1.0000
  C   C25       1.0  0.73619  0.36434  0.84983  1.0000
  C   C26       1.0  0.26381  0.63566  0.15017  1.0000
  C   C27       1.0  0.88178  0.35104  0.30676  1.0000
  C   C28       1.0  0.11822  0.64897  0.69324  1.0000
  C   C29       1.0  0.72868  0.16345  0.16917  1.0000
  C   C30       1.0  0.27132  0.83655  0.83083  1.0000
  C   C31       1.0  0.94664  0.95828  0.07899  1.0000
  C   C32       1.0  0.05336  0.04172  0.92101  1.0000
  C   C33       1.0  0.75221  0.18919  0.71020  1.0000
  C   C34       1.0  0.24778  0.81080  0.28980  1.0000
  C   C35       1.0  0.65493  0.25901  0.76729  1.0000
  C   C36       1.0  0.34507  0.74099  0.23271  1.0000
  C   C37       1.0  0.88484  0.27419  0.21992  1.0000
  C   C38       1.0  0.11517  0.72581  0.78008  1.0000
  C   C39       1.0  0.12486  0.96447  0.05050  1.0000
  C   C40       1.0  0.87514  0.03553  0.94950  1.0000
  C   C41       1.0  0.71931  0.08207  0.07341  1.0000
  C   C42       1.0  0.28069  0.91793  0.92659  1.0000
  C   C43       1.0  0.58112  0.21496  0.29614  1.0000
  C   C44       1.0  0.41888  0.78504  0.70386  1.0000
  C   C45       1.0  0.57449  0.13425  0.20922  1.0000
  C   C46       1.0  0.42551  0.86575  0.79078  1.0000
  N   N1        1.0  0.88528  0.07647  0.04497  1.0000
  N   N2        1.0  0.11472  0.92353  0.95503  1.0000
  N   N3        1.0  0.73245  0.32152  0.34451  1.0000
  N   N4        1.0  0.26755  0.67848  0.65549  1.0000
  O   O1        1.0  0.08623  0.66485  0.47433  1.0000
  O   O2        1.0  0.91377  0.33515  0.52567  1.0000
  O   O3        1.0  0.83955  0.65303  0.53752  1.0000
  O   O4        1.0  0.16044  0.34697  0.46248  1.0000
  O   O5        1.0  0.52526  0.24374  0.50640  1.0000
  O   O6        1.0  0.47474  0.75626  0.49360  1.0000
  O   O7        1.0  0.47764  0.46398  0.59348  1.0000
  O   O8        1.0  0.52236  0.53602  0.40652  1.0000
  O   O9        1.0  0.69633  0.48662  0.99448  1.0000
  O   O10       1.0  0.30367  0.51338  0.00551  1.0000
  O   O11       1.0  0.47341  0.41285  0.88528  1.0000
  O   O12       1.0  0.52658  0.58714  0.11472  1.0000
