data_image0
_chemical_formula_structural       H20Pb6C24O24
_chemical_formula_sum              "H20 Pb6 C24 O24"
_cell_length_a       8.24525
_cell_length_b       9.90484
_cell_length_c       10.6992
_cell_angle_alpha    93.1455
_cell_angle_beta     112.684
_cell_angle_gamma    90.0496

_space_group_name_H-M_alt    "P 1"
_space_group_IT_number       1

loop_
  _space_group_symop_operation_xyz
  'x, y, z'

loop_
  _atom_site_type_symbol
  _atom_site_label
  _atom_site_symmetry_multiplicity
  _atom_site_fract_x
  _atom_site_fract_y
  _atom_site_fract_z
  _atom_site_occupancy
  H   H1        1.0  0.21825  0.06206  0.65797  1.0000
  H   H2        1.0  0.56056  0.43814  0.34186  1.0000
  H   H3        1.0  0.78183  0.93798  0.34211  1.0000
  H   H4        1.0  0.43955  0.56185  0.65821  1.0000
  H   H5        1.0  0.35753  0.17106  0.95471  1.0000
  H   H6        1.0  0.40284  0.32925  0.04512  1.0000
  H   H7        1.0  0.64263  0.82902  0.04537  1.0000
  H   H8        1.0  0.59743  0.67076  0.95495  1.0000
  H   H9        1.0  0.44436  0.03550  0.89210  1.0000
  H   H10       1.0  0.55238  0.46502  0.10785  1.0000
  H   H11       1.0  0.55570  0.96456  0.10794  1.0000
  H   H12       1.0  0.44773  0.53509  0.89229  1.0000
  H   H13       1.0  0.34597  0.29541  0.63381  1.0000
  H   H14       1.0  0.71196  0.20489  0.36619  1.0000
  H   H15       1.0  0.65418  0.70466  0.36632  1.0000
  H   H16       1.0  0.28798  0.79510  0.63396  1.0000
  H   H17       1.0  0.46196  0.30100  0.81206  1.0000
  H   H18       1.0  0.64989  0.19916  0.18799  1.0000
  H   H19       1.0  0.53815  0.69898  0.18809  1.0000
  H   H20       1.0  0.35011  0.80069  0.81218  1.0000
  Pb  Pb1       1.0  0.04368  0.75010  0.99982  1.0000
  Pb  Pb2       1.0  0.95614  0.24995  0.99945  1.0000
  Pb  Pb3       1.0  0.78144  0.95754  0.62952  1.0000
  Pb  Pb4       1.0  0.15217  0.54236  0.37000  1.0000
  Pb  Pb5       1.0  0.21791  0.04243  0.36987  1.0000
  Pb  Pb6       1.0  0.84762  0.45744  0.62980  1.0000
  C   C1        1.0  0.09196  0.23212  0.70380  1.0000
  C   C2        1.0  0.38809  0.26800  0.29594  1.0000
  C   C3        1.0  0.90812  0.76791  0.29625  1.0000
  C   C4        1.0  0.61184  0.73209  0.70410  1.0000
  C   C5        1.0  0.25382  0.14579  0.73611  1.0000
  C   C6        1.0  0.51771  0.35442  0.26368  1.0000
  C   C7        1.0  0.74625  0.85425  0.26395  1.0000
  C   C8        1.0  0.48231  0.64557  0.73637  1.0000
  C   C9        1.0  0.32170  0.08803  0.87560  1.0000
  C   C10       1.0  0.44618  0.41229  0.12423  1.0000
  C   C11       1.0  0.67839  0.91205  0.12447  1.0000
  C   C12       1.0  0.55392  0.58774  0.87584  1.0000
  C   C13       1.0  0.19615  0.99646  0.90527  1.0000
  C   C14       1.0  0.29082  0.50357  0.09451  1.0000
  C   C15       1.0  0.80394  0.00357  0.09475  1.0000
  C   C16       1.0  0.70911  0.49631  0.90540  1.0000
  C   C17       1.0  0.40065  0.23258  0.72181  1.0000
  C   C18       1.0  0.67883  0.26767  0.27817  1.0000
  C   C19       1.0  0.59944  0.76746  0.27830  1.0000
  C   C20       1.0  0.32114  0.73225  0.72194  1.0000
  C   C21       1.0  0.54141  0.14992  0.69750  1.0000
  C   C22       1.0  0.84407  0.35046  0.30269  1.0000
  C   C23       1.0  0.45862  0.85012  0.30254  1.0000
  C   C24       1.0  0.15587  0.64948  0.69740  1.0000
  O   O1        1.0  0.97342  0.21894  0.58416  1.0000
  O   O2        1.0  0.38942  0.28114  0.41562  1.0000
  O   O3        1.0  0.02675  0.78120  0.41585  1.0000
  O   O4        1.0  0.61044  0.71901  0.58438  1.0000
  O   O5        1.0  0.08523  0.32155  0.79296  1.0000
  O   O6        1.0  0.29208  0.17845  0.20687  1.0000
  O   O7        1.0  0.91473  0.67840  0.20712  1.0000
  O   O8        1.0  0.70784  0.82165  0.79314  1.0000
  O   O9        1.0  0.69970  0.19404  0.73969  1.0000
  O   O10       1.0  0.96018  0.30652  0.26058  1.0000
  O   O11       1.0  0.30031  0.80607  0.26019  1.0000
  O   O12       1.0  0.03971  0.69354  0.73943  1.0000
  O   O13       1.0  0.49390  0.03642  0.62835  1.0000
  O   O14       1.0  0.86584  0.46393  0.37190  1.0000
  O   O15       1.0  0.50610  0.96360  0.37175  1.0000
  O   O16       1.0  0.13409  0.53599  0.62827  1.0000
  O   O17       1.0  0.03111  0.01983  0.85634  1.0000
  O   O18       1.0  0.17468  0.47970  0.14329  1.0000
  O   O19       1.0  0.96895  0.97998  0.14353  1.0000
  O   O20       1.0  0.82521  0.52005  0.85654  1.0000
  O   O21       1.0  0.26261  0.90127  0.98264  1.0000
  O   O22       1.0  0.27985  0.59891  0.01729  1.0000
  O   O23       1.0  0.73758  0.09881  0.01747  1.0000
  O   O24       1.0  0.71998  0.40091  0.98253  1.0000
