data_image0
_chemical_formula_structural       Zn3H22C30O16
_chemical_formula_sum              "Zn3 H22 C30 O16"
_cell_length_a       7.76602
_cell_length_b       10.2627
_cell_length_c       10.7914
_cell_angle_alpha    65.3784
_cell_angle_beta     74.828
_cell_angle_gamma    70.2735

_space_group_name_H-M_alt    "P 1"
_space_group_IT_number       1

loop_
  _space_group_symop_operation_xyz
  'x, y, z'

loop_
  _atom_site_type_symbol
  _atom_site_label
  _atom_site_symmetry_multiplicity
  _atom_site_fract_x
  _atom_site_fract_y
  _atom_site_fract_z
  _atom_site_occupancy
  Zn  Zn1       1.0  0.50000  1.00000  1.00000  1.0000
  Zn  Zn2       1.0  0.67589  0.62849  0.99196  1.0000
  Zn  Zn3       1.0  0.32412  0.37150  0.00804  1.0000
  H   H1        1.0  0.75417  0.40292  0.93161  1.0000
  H   H2        1.0  0.24583  0.59707  0.06839  1.0000
  H   H3        1.0  0.95480  0.42888  0.91282  1.0000
  H   H4        1.0  0.04520  0.57112  0.08718  1.0000
  H   H5        1.0  0.59809  0.12697  0.15546  1.0000
  H   H6        1.0  0.40191  0.87302  0.84454  1.0000
  H   H7        1.0  0.73072  0.96684  0.18403  1.0000
  H   H8        1.0  0.26929  0.03315  0.81596  1.0000
  H   H9        1.0  0.16209  0.70619  0.73776  1.0000
  H   H10       1.0  0.83792  0.29381  0.26225  1.0000
  H   H11       1.0  0.41990  0.86243  0.31960  1.0000
  H   H12       1.0  0.58009  0.13758  0.68040  1.0000
  H   H13       1.0  0.77446  0.43030  0.66676  1.0000
  H   H14       1.0  0.22555  0.56970  0.33324  1.0000
  H   H15       1.0  0.38369  0.05717  0.41480  1.0000
  H   H16       1.0  0.61631  0.94283  0.58520  1.0000
  H   H17       1.0  0.85941  0.46228  0.41757  1.0000
  H   H18       1.0  0.14057  0.53772  0.58242  1.0000
  H   H19       1.0  0.88386  0.16072  0.68532  1.0000
  H   H20       1.0  0.11613  0.83929  0.31467  1.0000
  H   H21       1.0  0.12767  0.24335  0.48744  1.0000
  H   H22       1.0  0.87232  0.75666  0.51255  1.0000
  C   C1        1.0  0.52779  0.60354  0.78373  1.0000
  C   C2        1.0  0.47222  0.39645  0.21628  1.0000
  C   C3        1.0  0.68571  0.67122  0.20937  1.0000
  C   C4        1.0  0.31428  0.32879  0.79063  1.0000
  C   C5        1.0  0.55555  0.63238  0.63242  1.0000
  C   C6        1.0  0.44446  0.36762  0.36758  1.0000
  C   C7        1.0  0.00966  0.92896  0.72107  1.0000
  C   C8        1.0  0.99034  0.07104  0.27893  1.0000
  C   C9        1.0  0.85242  0.88094  0.82634  1.0000
  C   C10       1.0  0.14758  0.11906  0.17366  1.0000
  C   C11       1.0  0.15897  0.82336  0.68382  1.0000
  C   C12       1.0  0.84103  0.17665  0.31618  1.0000
  C   C13       1.0  0.50213  0.77132  0.39578  1.0000
  C   C14       1.0  0.49787  0.22868  0.60423  1.0000
  C   C15       1.0  0.45506  0.75715  0.53470  1.0000
  C   C16       1.0  0.54494  0.24285  0.46531  1.0000
  C   C17       1.0  0.70023  0.52679  0.58942  1.0000
  C   C18       1.0  0.29977  0.47321  0.41058  1.0000
  C   C19       1.0  0.29737  0.86831  0.57552  1.0000
  C   C20       1.0  0.70263  0.13169  0.42449  1.0000
  C   C21       1.0  0.28094  0.02066  0.50274  1.0000
  C   C22       1.0  0.71905  0.97934  0.49726  1.0000
  C   C23       1.0  0.74858  0.54438  0.45140  1.0000
  C   C24       1.0  0.25142  0.45562  0.54860  1.0000
  C   C25       1.0  0.00075  0.08057  0.65339  1.0000
  C   C26       1.0  0.99924  0.91943  0.34661  1.0000
  C   C27       1.0  0.13573  0.12579  0.54342  1.0000
  C   C28       1.0  0.86427  0.87421  0.45657  1.0000
  C   C29       1.0  0.64749  0.66653  0.35360  1.0000
  C   C30       1.0  0.35250  0.33348  0.64639  1.0000
  O   O1        1.0  0.81790  0.57117  0.17745  1.0000
  O   O2        1.0  0.18208  0.42884  0.82255  1.0000
  O   O3        1.0  0.53162  0.46998  0.86398  1.0000
  O   O4        1.0  0.46839  0.53001  0.13602  1.0000
  O   O5        1.0  0.57656  0.76639  0.12167  1.0000
  O   O6        1.0  0.42343  0.23362  0.87833  1.0000
  O   O7        1.0  0.84903  0.74739  0.86023  1.0000
  O   O8        1.0  0.15097  0.25261  0.13978  1.0000
  O   O9        1.0  0.52412  0.70544  0.82380  1.0000
  O   O10       1.0  0.47588  0.29455  0.17621  1.0000
  O   O11       1.0  0.83270  0.42893  0.97135  1.0000
  O   O12       1.0  0.16731  0.57106  0.02865  1.0000
  O   O13       1.0  0.73351  0.98012  0.86827  1.0000
  O   O14       1.0  0.26649  0.01988  0.13173  1.0000
  O   O15       1.0  0.65348  0.04662  0.11778  1.0000
  O   O16       1.0  0.34653  0.95337  0.88222  1.0000
