data_image0
_chemical_formula_structural       Cu2H10C16N14O4
_chemical_formula_sum              "Cu2 H10 C16 N14 O4"
_cell_length_a       6.78217
_cell_length_b       7.95284
_cell_length_c       11.1639
_cell_angle_alpha    97.2154
_cell_angle_beta     105.696
_cell_angle_gamma    112.262

_space_group_name_H-M_alt    "P 1"
_space_group_IT_number       1

loop_
  _space_group_symop_operation_xyz
  'x, y, z'

loop_
  _atom_site_type_symbol
  _atom_site_label
  _atom_site_symmetry_multiplicity
  _atom_site_fract_x
  _atom_site_fract_y
  _atom_site_fract_z
  _atom_site_occupancy
  Cu  Cu1       1.0  0.49999  0.50000  1.00000  1.0000
  Cu  Cu2       1.0  0.00000  0.50000  0.00000  1.0000
  H   H1        1.0  0.78732  0.60277  0.37780  1.0000
  H   H2        1.0  0.21268  0.39723  0.62219  1.0000
  H   H3        1.0  0.00991  0.79044  0.60767  1.0000
  H   H4        1.0  0.99009  0.20954  0.39232  1.0000
  H   H5        1.0  0.44130  0.90118  0.62379  1.0000
  H   H6        1.0  0.55871  0.09882  0.37621  1.0000
  H   H7        1.0  0.22092  0.70935  0.39733  1.0000
  H   H8        1.0  0.77908  0.29065  0.60267  1.0000
  H   H9        1.0  0.63044  0.99050  0.84204  1.0000
  H   H10       1.0  0.36956  0.00950  0.15796  1.0000
  C   C1        1.0  0.49341  0.64923  0.37333  1.0000
  C   C2        1.0  0.50659  0.35077  0.62668  1.0000
  C   C3        1.0  0.71435  0.66938  0.43291  1.0000
  C   C4        1.0  0.28565  0.33061  0.56709  1.0000
  C   C5        1.0  0.83882  0.77441  0.55966  1.0000
  C   C6        1.0  0.16117  0.22558  0.44033  1.0000
  C   C7        1.0  0.74022  0.86050  0.62626  1.0000
  C   C8        1.0  0.25978  0.13950  0.37373  1.0000
  C   C9        1.0  0.51617  0.83425  0.57062  1.0000
  C   C10       1.0  0.48384  0.16576  0.42938  1.0000
  C   C11       1.0  0.39349  0.72759  0.44430  1.0000
  C   C12       1.0  0.60652  0.27241  0.55570  1.0000
  C   C13       1.0  0.37161  0.55774  0.23222  1.0000
  C   C14       1.0  0.62838  0.44226  0.76778  1.0000
  C   C15       1.0  0.80528  0.04277  0.84557  1.0000
  C   C16       1.0  0.19472  0.95723  0.15443  1.0000
  N   N1        1.0  0.87219  0.98354  0.75117  1.0000
  N   N2        1.0  0.12781  0.01646  0.24883  1.0000
  N   N3        1.0  0.10264  0.07841  0.78912  1.0000
  N   N4        1.0  0.89736  0.92159  0.21088  1.0000
  N   N5        1.0  0.16716  0.18814  0.90220  1.0000
  N   N6        1.0  0.83284  0.81188  0.09780  1.0000
  N   N7        1.0  0.98715  0.17060  0.94050  1.0000
  N   N8        1.0  0.01285  0.82942  0.05949  1.0000
  N   N9        1.0  0.28491  0.61833  0.96104  1.0000
  N   N10       1.0  0.71509  0.38167  0.03896  1.0000
  N   N11       1.0  0.27776  0.69140  0.87193  1.0000
  N   N12       1.0  0.72224  0.30859  0.12808  1.0000
  N   N13       1.0  0.27490  0.76406  0.78818  1.0000
  N   N14       1.0  0.72509  0.23594  0.21182  1.0000
  O   O1        1.0  0.47089  0.48951  0.17281  1.0000
  O   O2        1.0  0.52911  0.51049  0.82719  1.0000
  O   O3        1.0  0.17974  0.56090  0.18367  1.0000
  O   O4        1.0  0.82025  0.43910  0.81634  1.0000
