data_image0
_chemical_formula_structural       Na4H24C16N20O16
_chemical_formula_sum              "Na4 H24 C16 N20 O16"
_cell_length_a       6.25774
_cell_length_b       8.30253
_cell_length_c       15.2461
_cell_angle_alpha    89.999
_cell_angle_beta     90.0059
_cell_angle_gamma    105.474

_space_group_name_H-M_alt    "P 1"
_space_group_IT_number       1

loop_
  _space_group_symop_operation_xyz
  'x, y, z'

loop_
  _atom_site_type_symbol
  _atom_site_label
  _atom_site_symmetry_multiplicity
  _atom_site_fract_x
  _atom_site_fract_y
  _atom_site_fract_z
  _atom_site_occupancy
  Na  Na1       1.0  0.21712  0.95227  0.05074  1.0000
  Na  Na2       1.0  0.28289  0.04772  0.55073  1.0000
  Na  Na3       1.0  0.78290  0.04772  0.94927  1.0000
  Na  Na4       1.0  0.71709  0.95229  0.44926  1.0000
  H   H1        1.0  0.82777  0.78964  0.23361  1.0000
  H   H2        1.0  0.67226  0.21035  0.73362  1.0000
  H   H3        1.0  0.17225  0.21035  0.76638  1.0000
  H   H4        1.0  0.32772  0.78966  0.26638  1.0000
  H   H5        1.0  0.82182  0.99654  0.14609  1.0000
  H   H6        1.0  0.67820  0.00343  0.64611  1.0000
  H   H7        1.0  0.17821  0.00346  0.85390  1.0000
  H   H8        1.0  0.32180  0.99658  0.35389  1.0000
  H   H9        1.0  0.01570  0.05874  0.21535  1.0000
  H   H10       1.0  0.48433  0.94124  0.71536  1.0000
  H   H11       1.0  0.98431  0.94126  0.78466  1.0000
  H   H12       1.0  0.51566  0.05876  0.28465  1.0000
  H   H13       1.0  0.19438  0.29099  0.96827  1.0000
  H   H14       1.0  0.30560  0.70901  0.46827  1.0000
  H   H15       1.0  0.80564  0.70901  0.03173  1.0000
  H   H16       1.0  0.69438  0.29098  0.53173  1.0000
  H   H17       1.0  0.14573  0.28446  0.06858  1.0000
  H   H18       1.0  0.35429  0.71553  0.56857  1.0000
  H   H19       1.0  0.85426  0.71553  0.93142  1.0000
  H   H20       1.0  0.64572  0.28446  0.43142  1.0000
  H   H21       1.0  0.69503  0.36069  0.01254  1.0000
  H   H22       1.0  0.80501  0.63931  0.51254  1.0000
  H   H23       1.0  0.30496  0.63929  0.98746  1.0000
  H   H24       1.0  0.19499  0.36071  0.48746  1.0000
  C   C1        1.0  0.72348  0.53172  0.19797  1.0000
  C   C2        1.0  0.77650  0.46827  0.69798  1.0000
  C   C3        1.0  0.27658  0.46828  0.80203  1.0000
  C   C4        1.0  0.22336  0.53173  0.30203  1.0000
  C   C5        1.0  0.67508  0.38361  0.25332  1.0000
  C   C6        1.0  0.82484  0.61638  0.75332  1.0000
  C   C7        1.0  0.32498  0.61639  0.74668  1.0000
  C   C8        1.0  0.17502  0.38361  0.24668  1.0000
  C   C9        1.0  0.64004  0.22420  0.12898  1.0000
  C   C10       1.0  0.85996  0.77580  0.62899  1.0000
  C   C11       1.0  0.35997  0.77581  0.87102  1.0000
  C   C12       1.0  0.14002  0.22419  0.37102  1.0000
  C   C13       1.0  0.74297  0.60134  0.33918  1.0000
  C   C14       1.0  0.75700  0.39865  0.83919  1.0000
  C   C15       1.0  0.25702  0.39866  0.66081  1.0000
  C   C16       1.0  0.24305  0.60135  0.16081  1.0000
  N   N1        1.0  0.76195  0.66494  0.25360  1.0000
  N   N2        1.0  0.73804  0.33506  0.75360  1.0000
  N   N3        1.0  0.23804  0.33507  0.74640  1.0000
  N   N4        1.0  0.26202  0.66494  0.24639  1.0000
  N   N5        1.0  0.72491  0.52701  0.11264  1.0000
  N   N6        1.0  0.77512  0.47300  0.61265  1.0000
  N   N7        1.0  0.27497  0.47299  0.88735  1.0000
  N   N8        1.0  0.22501  0.52701  0.38735  1.0000
  N   N9        1.0  0.68213  0.36942  0.08043  1.0000
  N   N10       1.0  0.81790  0.63058  0.58043  1.0000
  N   N11       1.0  0.31796  0.63058  0.91957  1.0000
  N   N12       1.0  0.18207  0.36942  0.41957  1.0000
  N   N13       1.0  0.63018  0.23164  0.21857  1.0000
  N   N14       1.0  0.86979  0.76835  0.71857  1.0000
  N   N15       1.0  0.36976  0.76835  0.78144  1.0000
  N   N16       1.0  0.13025  0.23165  0.28143  1.0000
  N   N17       1.0  0.68547  0.42724  0.33831  1.0000
  N   N18       1.0  0.81447  0.57275  0.83832  1.0000
  N   N19       1.0  0.31450  0.57276  0.66169  1.0000
  N   N20       1.0  0.18557  0.42724  0.16169  1.0000
  O   O1        1.0  0.94613  0.96357  0.17454  1.0000
  O   O2        1.0  0.55390  0.03641  0.67455  1.0000
  O   O3        1.0  0.05390  0.03645  0.82546  1.0000
  O   O4        1.0  0.44609  0.96358  0.32546  1.0000
  O   O5        1.0  0.13533  0.21071  0.01598  1.0000
  O   O6        1.0  0.36468  0.78929  0.51598  1.0000
  O   O7        1.0  0.86468  0.78929  0.98402  1.0000
  O   O8        1.0  0.63534  0.21071  0.48402  1.0000
  O   O9        1.0  0.61298  0.08573  0.08946  1.0000
  O   O10       1.0  0.88704  0.91428  0.58946  1.0000
  O   O11       1.0  0.38697  0.91427  0.91054  1.0000
  O   O12       1.0  0.11297  0.08573  0.41054  1.0000
  O   O13       1.0  0.77410  0.69218  0.40555  1.0000
  O   O14       1.0  0.72586  0.30781  0.90555  1.0000
  O   O15       1.0  0.22591  0.30781  0.59445  1.0000
  O   O16       1.0  0.27411  0.69219  0.09445  1.0000
