data_image0
_chemical_formula_structural       Mn2H26C38N2O12
_chemical_formula_sum              "Mn2 H26 C38 N2 O12"
_cell_length_a       7.66184
_cell_length_b       9.91514
_cell_length_c       12.1114
_cell_angle_alpha    107.274
_cell_angle_beta     96.4343
_cell_angle_gamma    108.423

_space_group_name_H-M_alt    "P 1"
_space_group_IT_number       1

loop_
  _space_group_symop_operation_xyz
  'x, y, z'

loop_
  _atom_site_type_symbol
  _atom_site_label
  _atom_site_symmetry_multiplicity
  _atom_site_fract_x
  _atom_site_fract_y
  _atom_site_fract_z
  _atom_site_occupancy
  Mn  Mn1       1.0  0.19602  0.40963  0.04625  1.0000
  Mn  Mn2       1.0  0.80400  0.59038  0.95375  1.0000
  H   H1        1.0  0.45561  0.59656  0.25177  1.0000
  H   H2        1.0  0.54439  0.40341  0.74823  1.0000
  H   H3        1.0  0.57434  0.60926  0.15599  1.0000
  H   H4        1.0  0.42567  0.39075  0.84402  1.0000
  H   H5        1.0  0.18321  0.94961  0.02390  1.0000
  H   H6        1.0  0.81679  0.05039  0.97611  1.0000
  H   H7        1.0  0.38855  0.63671  0.79754  1.0000
  H   H8        1.0  0.61146  0.36330  0.20246  1.0000
  H   H9        1.0  0.39174  0.04036  0.72799  1.0000
  H   H10       1.0  0.60821  0.95963  0.27200  1.0000
  H   H11       1.0  0.46877  0.69330  0.43210  1.0000
  H   H12       1.0  0.53122  0.30671  0.56789  1.0000
  H   H13       1.0  0.74508  0.80046  0.35238  1.0000
  H   H14       1.0  0.25493  0.19954  0.64763  1.0000
  H   H15       1.0  0.03191  0.12101  0.70661  1.0000
  H   H16       1.0  0.96809  0.87896  0.29340  1.0000
  H   H17       1.0  0.75618  0.02061  0.78067  1.0000
  H   H18       1.0  0.24378  0.97940  0.21932  1.0000
  H   H19       1.0  0.16594  0.26074  0.22932  1.0000
  H   H20       1.0  0.83412  0.73929  0.77069  1.0000
  H   H21       1.0  0.08596  0.28442  0.42403  1.0000
  H   H22       1.0  0.91411  0.71560  0.57598  1.0000
  H   H23       1.0  0.98524  0.69062  0.42156  1.0000
  H   H24       1.0  0.01472  0.30936  0.57842  1.0000
  H   H25       1.0  0.06660  0.64626  0.22474  1.0000
  H   H26       1.0  0.93335  0.35372  0.77524  1.0000
  C   C1        1.0  0.26318  0.16010  0.92306  1.0000
  C   C2        1.0  0.73681  0.83990  0.07696  1.0000
  C   C3        1.0  0.29345  0.01313  0.88385  1.0000
  C   C4        1.0  0.70655  0.98687  0.11615  1.0000
  C   C5        1.0  0.24714  0.91759  0.94947  1.0000
  C   C6        1.0  0.75286  0.08241  0.05053  1.0000
  C   C7        1.0  0.28034  0.78216  0.91854  1.0000
  C   C8        1.0  0.71965  0.21785  0.08146  1.0000
  C   C9        1.0  0.35936  0.74109  0.82081  1.0000
  C   C10       1.0  0.64063  0.25891  0.17919  1.0000
  C   C11       1.0  0.39448  0.83271  0.75180  1.0000
  C   C12       1.0  0.60550  0.16728  0.24819  1.0000
  C   C13       1.0  0.36412  0.96945  0.78248  1.0000
  C   C14       1.0  0.63586  0.03055  0.21752  1.0000
  C   C15       1.0  0.22084  0.67583  0.98443  1.0000
  C   C16       1.0  0.77917  0.32418  0.01557  1.0000
  C   C17       1.0  0.59472  0.84833  0.61009  1.0000
  C   C18       1.0  0.40526  0.15166  0.38990  1.0000
  C   C19       1.0  0.59433  0.78896  0.48964  1.0000
  C   C20       1.0  0.40567  0.21104  0.51036  1.0000
  C   C21       1.0  0.75080  0.84903  0.44674  1.0000
  C   C22       1.0  0.24921  0.15096  0.55327  1.0000
  C   C23       1.0  0.91498  0.96983  0.52247  1.0000
  C   C24       1.0  0.08503  0.03015  0.47754  1.0000
  C   C25       1.0  0.90954  0.02908  0.64272  1.0000
  C   C26       1.0  0.09046  0.97089  0.35728  1.0000
  C   C27       1.0  0.75266  0.97098  0.68678  1.0000
  C   C28       1.0  0.24733  0.02901  0.31322  1.0000
  C   C29       1.0  0.12453  0.35415  0.27558  1.0000
  C   C30       1.0  0.87552  0.64587  0.72442  1.0000
  C   C31       1.0  0.07902  0.36880  0.38505  1.0000
  C   C32       1.0  0.92104  0.63122  0.61495  1.0000
  C   C33       1.0  0.02558  0.49036  0.44190  1.0000
  C   C34       1.0  0.97444  0.50964  0.55809  1.0000
  C   C35       1.0  0.02292  0.59262  0.38322  1.0000
  C   C36       1.0  0.97707  0.40737  0.61678  1.0000
  C   C37       1.0  0.06913  0.56990  0.27330  1.0000
  C   C38       1.0  0.93085  0.43010  0.72669  1.0000
  N   N1        1.0  0.11891  0.45217  0.21961  1.0000
  N   N2        1.0  0.88110  0.54785  0.78039  1.0000
  O   O1        1.0  0.22337  0.20154  0.02479  1.0000
  O   O2        1.0  0.77662  0.79845  0.97523  1.0000
  O   O3        1.0  0.27527  0.23871  0.85614  1.0000
  O   O4        1.0  0.72470  0.76132  0.14389  1.0000
  O   O5        1.0  0.09611  0.68690  0.04532  1.0000
  O   O6        1.0  0.90389  0.31310  0.95468  1.0000
  O   O7        1.0  0.29258  0.57400  0.97308  1.0000
  O   O8        1.0  0.70743  0.42602  0.02693  1.0000
  O   O9        1.0  0.43915  0.77173  0.64428  1.0000
  O   O10       1.0  0.56082  0.22826  0.35571  1.0000
  O   O11       1.0  0.48054  0.53478  0.18108  1.0000
  O   O12       1.0  0.51946  0.46522  0.81891  1.0000
