data_image0
_chemical_formula_structural       La2H20C12O22
_chemical_formula_sum              "La2 H20 C12 O22"
_cell_length_a       6.23533
_cell_length_b       7.35094
_cell_length_c       12.3221
_cell_angle_alpha    73.843
_cell_angle_beta     88.1551
_cell_angle_gamma    89.4125

_space_group_name_H-M_alt    "P 1"
_space_group_IT_number       1

loop_
  _space_group_symop_operation_xyz
  'x, y, z'

loop_
  _atom_site_type_symbol
  _atom_site_label
  _atom_site_symmetry_multiplicity
  _atom_site_fract_x
  _atom_site_fract_y
  _atom_site_fract_z
  _atom_site_occupancy
  La  La1       1.0  0.59563  0.07597  0.55988  1.0000
  La  La2       1.0  0.75122  0.76392  0.13863  1.0000
  H   H1        1.0  0.14062  0.60310  0.40821  1.0000
  H   H2        1.0  0.02287  0.59936  0.59018  1.0000
  H   H3        1.0  0.22263  0.15640  0.29328  1.0000
  H   H4        1.0  0.32502  0.32947  0.10806  1.0000
  H   H5        1.0  0.32278  0.63430  0.92923  1.0000
  H   H6        1.0  0.04902  0.63136  0.77003  1.0000
  H   H7        1.0  0.86505  0.92503  0.33366  1.0000
  H   H8        1.0  0.68391  0.65281  0.61715  1.0000
  H   H9        1.0  0.49368  0.41217  0.36466  1.0000
  H   H10       1.0  0.68046  0.38605  0.09052  1.0000
  H   H11       1.0  0.55768  0.35438  0.93978  1.0000
  H   H12       1.0  0.15235  0.24354  0.86287  1.0000
  H   H13       1.0  0.23082  0.30060  0.68121  1.0000
  H   H14       1.0  0.15612  0.19197  0.59312  1.0000
  H   H15       1.0  0.62593  0.29937  0.74466  1.0000
  H   H16       1.0  0.84760  0.20724  0.75981  1.0000
  H   H17       1.0  0.43844  0.02448  0.97177  1.0000
  H   H18       1.0  0.62146  0.02400  0.88111  1.0000
  H   H19       1.0  0.00641  0.14060  0.04911  1.0000
  H   H20       1.0  0.16954  0.97102  0.11236  1.0000
  C   C1        1.0  0.80416  0.53042  0.41745  1.0000
  C   C2        1.0  0.98516  0.67315  0.41252  1.0000
  C   C3        1.0  0.96286  0.72409  0.52582  1.0000
  C   C4        1.0  0.09695  0.89409  0.53244  1.0000
  C   C5        1.0  0.56022  0.09741  0.28028  1.0000
  C   C6        1.0  0.37542  0.23317  0.28632  1.0000
  C   C7        1.0  0.38709  0.38909  0.17325  1.0000
  C   C8        1.0  0.25116  0.56274  0.17457  1.0000
  C   C9        1.0  0.46577  0.63528  0.76948  1.0000
  C   C10       1.0  0.32654  0.53881  0.87428  1.0000
  C   C11       1.0  0.09341  0.51097  0.84098  1.0000
  C   C12       1.0  0.93102  0.50945  0.93871  1.0000
  O   O1        1.0  0.79605  0.38227  0.49921  1.0000
  O   O2        1.0  0.66688  0.57414  0.33951  1.0000
  O   O3        1.0  0.97078  0.83117  0.31492  1.0000
  O   O4        1.0  0.74394  0.75756  0.55002  1.0000
  O   O5        1.0  0.99710  0.02241  0.56648  1.0000
  O   O6        1.0  0.29436  0.89463  0.50801  1.0000
  O   O7        1.0  0.69480  0.06602  0.35929  1.0000
  O   O8        1.0  0.57405  0.03097  0.19607  1.0000
  O   O9        1.0  0.38897  0.30138  0.38311  1.0000
  O   O10       1.0  0.60316  0.44906  0.14367  1.0000
  O   O11       1.0  0.34666  0.72055  0.15777  1.0000
  O   O12       1.0  0.05111  0.53598  0.18977  1.0000
  O   O13       1.0  0.45641  0.81324  0.73395  1.0000
  O   O14       1.0  0.58130  0.52806  0.72525  1.0000
  O   O15       1.0  0.40058  0.35365  0.93117  1.0000
  O   O16       1.0  0.08390  0.34277  0.80354  1.0000
  O   O17       1.0  0.90054  0.66510  0.96025  1.0000
  O   O18       1.0  0.83843  0.35163  0.98944  1.0000
  O   O19       1.0  0.28138  0.25389  0.61742  1.0000
  O   O20       1.0  0.69900  0.17509  0.74788  1.0000
  O   O21       1.0  0.57056  0.95973  0.95982  1.0000
  O   O22       1.0  0.05843  0.01050  0.05543  1.0000
