data_image0
_chemical_formula_structural       Cd2H26C32N6O12
_chemical_formula_sum              "Cd2 H26 C32 N6 O12"
_cell_length_a       8.84693
_cell_length_b       10.0131
_cell_length_c       10.7938
_cell_angle_alpha    103.574
_cell_angle_beta     95.5875
_cell_angle_gamma    116.604

_space_group_name_H-M_alt    "P 1"
_space_group_IT_number       1

loop_
  _space_group_symop_operation_xyz
  'x, y, z'

loop_
  _atom_site_type_symbol
  _atom_site_label
  _atom_site_symmetry_multiplicity
  _atom_site_fract_x
  _atom_site_fract_y
  _atom_site_fract_z
  _atom_site_occupancy
  Cd  Cd1       1.0  0.74515  0.56178  0.52810  1.0000
  Cd  Cd2       1.0  0.25485  0.43822  0.47189  1.0000
  H   H1        1.0  0.92895  0.98269  0.63885  1.0000
  H   H2        1.0  0.07105  0.01731  0.36115  1.0000
  H   H3        1.0  0.98467  0.79637  0.43615  1.0000
  H   H4        1.0  0.01533  0.20363  0.56385  1.0000
  H   H5        1.0  0.04053  0.66317  0.42342  1.0000
  H   H6        1.0  0.95947  0.33683  0.57658  1.0000
  H   H7        1.0  0.78762  0.23827  0.32414  1.0000
  H   H8        1.0  0.21238  0.76173  0.67586  1.0000
  H   H9        1.0  0.45714  0.41998  0.23668  1.0000
  H   H10       1.0  0.54286  0.58002  0.76332  1.0000
  H   H11       1.0  0.55591  0.39933  0.95451  1.0000
  H   H12       1.0  0.44409  0.60067  0.04549  1.0000
  H   H13       1.0  0.34618  0.32840  0.74611  1.0000
  H   H14       1.0  0.65382  0.67159  0.25389  1.0000
  H   H15       1.0  0.98883  0.90279  0.81531  1.0000
  H   H16       1.0  0.01117  0.09721  0.18469  1.0000
  H   H17       1.0  0.19833  0.97368  0.02155  1.0000
  H   H18       1.0  0.80167  0.02632  0.97845  1.0000
  H   H19       1.0  0.02327  0.34819  0.79140  1.0000
  H   H20       1.0  0.97672  0.65181  0.20860  1.0000
  H   H21       1.0  0.87749  0.67968  0.99645  1.0000
  H   H22       1.0  0.12251  0.32032  0.00355  1.0000
  H   H23       1.0  0.40602  0.76227  0.30983  1.0000
  H   H24       1.0  0.59398  0.23773  0.69017  1.0000
  H   H25       1.0  0.69877  0.04764  0.70439  1.0000
  H   H26       1.0  0.30123  0.95236  0.29562  1.0000
  C   C1        1.0  0.69347  0.25935  0.27167  1.0000
  C   C2        1.0  0.30654  0.74065  0.72833  1.0000
  C   C3        1.0  0.53075  0.35723  0.23067  1.0000
  C   C4        1.0  0.46925  0.64277  0.76933  1.0000
  C   C5        1.0  0.38720  0.19173  0.00070  1.0000
  C   C6        1.0  0.61280  0.80826  0.99931  1.0000
  C   C7        1.0  0.43066  0.29175  0.92370  1.0000
  C   C8        1.0  0.56934  0.70825  0.07630  1.0000
  C   C9        1.0  0.31387  0.25317  0.80835  1.0000
  C   C10       1.0  0.68613  0.74683  0.19165  1.0000
  C   C11       1.0  0.15344  0.11452  0.76966  1.0000
  C   C12       1.0  0.84656  0.88548  0.23034  1.0000
  C   C13       1.0  0.11208  0.01229  0.84586  1.0000
  C   C14       1.0  0.88792  0.98771  0.15414  1.0000
  C   C15       1.0  0.22958  0.05163  0.96140  1.0000
  C   C16       1.0  0.77042  0.94837  0.03860  1.0000
  C   C17       1.0  0.88149  0.53334  0.75535  1.0000
  C   C18       1.0  0.11851  0.46666  0.24465  1.0000
  C   C19       1.0  0.94430  0.51607  0.88104  1.0000
  C   C20       1.0  0.05570  0.48392  0.11896  1.0000
  C   C21       1.0  0.01331  0.41465  0.88282  1.0000
  C   C22       1.0  0.98669  0.58535  0.11718  1.0000
  C   C23       1.0  0.93152  0.60140  0.99907  1.0000
  C   C24       1.0  0.06848  0.39860  0.00093  1.0000
  C   C25       1.0  0.62043  0.77854  0.51660  1.0000
  C   C26       1.0  0.37957  0.22146  0.48340  1.0000
  C   C27       1.0  0.55842  0.89271  0.50772  1.0000
  C   C28       1.0  0.44158  0.10729  0.49228  1.0000
  C   C29       1.0  0.44558  0.86590  0.39298  1.0000
  C   C30       1.0  0.55442  0.13410  0.60702  1.0000
  C   C31       1.0  0.61249  0.02767  0.61474  1.0000
  C   C32       1.0  0.38751  0.97233  0.38526  1.0000
  N   N1        1.0  0.50283  0.24019  0.12428  1.0000
  N   N2        1.0  0.49717  0.75981  0.87572  1.0000
  N   N3        1.0  0.60600  0.17581  0.14867  1.0000
  N   N4        1.0  0.39400  0.82419  0.85133  1.0000
  N   N5        1.0  0.65192  0.37334  0.32607  1.0000
  N   N6        1.0  0.34808  0.62666  0.67393  1.0000
  O   O1        1.0  0.04198  0.08484  0.65787  1.0000
  O   O2        1.0  0.95802  0.91516  0.34213  1.0000
  O   O3        1.0  0.80933  0.61883  0.75822  1.0000
  O   O4        1.0  0.19067  0.38118  0.24178  1.0000
  O   O5        1.0  0.89827  0.46184  0.64682  1.0000
  O   O6        1.0  0.10173  0.53816  0.35318  1.0000
  O   O7        1.0  0.75772  0.82273  0.60195  1.0000
  O   O8        1.0  0.24228  0.17727  0.39805  1.0000
  O   O9        1.0  0.53557  0.63657  0.43938  1.0000
  O   O10       1.0  0.46443  0.36342  0.56063  1.0000
  O   O11       1.0  0.00130  0.72814  0.48259  1.0000
  O   O12       1.0  0.99870  0.27186  0.51741  1.0000
