data_image0
_chemical_formula_structural       K4H32Pt2C12I4N4O12
_chemical_formula_sum              "K4 H32 Pt2 C12 I4 N4 O12"
_cell_length_a       5.00551
_cell_length_b       6.97009
_cell_length_c       24.2345
_cell_angle_alpha    89.9998
_cell_angle_beta     90
_cell_angle_gamma    94.3676

_space_group_name_H-M_alt    "P 1"
_space_group_IT_number       1

loop_
  _space_group_symop_operation_xyz
  'x, y, z'

loop_
  _atom_site_type_symbol
  _atom_site_label
  _atom_site_symmetry_multiplicity
  _atom_site_fract_x
  _atom_site_fract_y
  _atom_site_fract_z
  _atom_site_occupancy
  K   K1        1.0  0.49976  0.18242  0.30106  1.0000
  K   K2        1.0  0.50022  0.31757  0.80106  1.0000
  K   K3        1.0  0.50024  0.81757  0.69894  1.0000
  K   K4        1.0  0.49977  0.68243  0.19895  1.0000
  H   H1        1.0  0.44702  0.49684  0.60925  1.0000
  H   H2        1.0  0.55298  0.00316  0.10925  1.0000
  H   H3        1.0  0.55299  0.50316  0.39075  1.0000
  H   H4        1.0  0.44702  0.99684  0.89075  1.0000
  H   H5        1.0  0.24648  0.35013  0.65445  1.0000
  H   H6        1.0  0.75352  0.14987  0.15445  1.0000
  H   H7        1.0  0.75352  0.64987  0.34555  1.0000
  H   H8        1.0  0.24648  0.85013  0.84555  1.0000
  H   H9        1.0  0.39856  0.05571  0.59812  1.0000
  H   H10       1.0  0.60143  0.44430  0.09812  1.0000
  H   H11       1.0  0.60144  0.94429  0.40188  1.0000
  H   H12       1.0  0.39857  0.55571  0.90188  1.0000
  H   H13       1.0  0.51884  0.22329  0.54804  1.0000
  H   H14       1.0  0.48115  0.27671  0.04804  1.0000
  H   H15       1.0  0.48116  0.77671  0.45196  1.0000
  H   H16       1.0  0.51885  0.72329  0.95196  1.0000
  H   H17       1.0  0.07530  0.33812  0.54429  1.0000
  H   H18       1.0  0.92470  0.16188  0.04429  1.0000
  H   H19       1.0  0.92470  0.66188  0.45571  1.0000
  H   H20       1.0  0.07530  0.83812  0.95571  1.0000
  H   H21       1.0  0.96784  0.18206  0.59235  1.0000
  H   H22       1.0  0.03216  0.31794  0.09235  1.0000
  H   H23       1.0  0.03217  0.81794  0.40765  1.0000
  H   H24       1.0  0.96784  0.68206  0.90765  1.0000
  H   H25       1.0  0.98396  0.48632  0.26306  1.0000
  H   H26       1.0  0.01604  0.01368  0.76306  1.0000
  H   H27       1.0  0.01604  0.51368  0.73694  1.0000
  H   H28       1.0  0.98396  0.98632  0.23694  1.0000
  H   H29       1.0  0.96896  0.37388  0.20818  1.0000
  H   H30       1.0  0.03104  0.12612  0.70818  1.0000
  H   H31       1.0  0.03104  0.62613  0.79182  1.0000
  H   H32       1.0  0.96896  0.87387  0.29182  1.0000
  Pt  Pt1       1.0  0.00000  1.00000  0.50000  1.0000
  Pt  Pt2       1.0  1.00000  0.50000  1.00000  1.0000
  C   C1        1.0  0.66173  0.32688  0.66502  1.0000
  C   C2        1.0  0.33827  0.17312  0.16502  1.0000
  C   C3        1.0  0.33828  0.67312  0.33498  1.0000
  C   C4        1.0  0.66173  0.82688  0.83498  1.0000
  C   C5        1.0  0.42354  0.35189  0.62741  1.0000
  C   C6        1.0  0.57646  0.14811  0.12741  1.0000
  C   C7        1.0  0.57646  0.64811  0.37259  1.0000
  C   C8        1.0  0.42353  0.85189  0.87259  1.0000
  C   C9        1.0  0.37629  0.20088  0.58233  1.0000
  C   C10       1.0  0.62371  0.29913  0.08233  1.0000
  C   C11       1.0  0.62371  0.79913  0.41767  1.0000
  C   C12       1.0  0.37629  0.70087  0.91767  1.0000
  I   I1        1.0  0.04653  0.26806  0.42458  1.0000
  I   I2        1.0  0.95347  0.23194  0.92458  1.0000
  I   I3        1.0  0.95347  0.73193  0.57542  1.0000
  I   I4        1.0  0.04653  0.76807  0.07542  1.0000
  N   N1        1.0  0.10080  0.20297  0.55967  1.0000
  N   N2        1.0  0.89919  0.29704  0.05967  1.0000
  N   N3        1.0  0.89920  0.79704  0.44033  1.0000
  N   N4        1.0  0.10080  0.70296  0.94033  1.0000
  O   O1        1.0  0.71727  0.45923  0.70018  1.0000
  O   O2        1.0  0.28273  0.04076  0.20018  1.0000
  O   O3        1.0  0.28273  0.54075  0.29982  1.0000
  O   O4        1.0  0.71727  0.95924  0.79982  1.0000
  O   O5        1.0  0.78769  0.17506  0.66009  1.0000
  O   O6        1.0  0.21231  0.32494  0.16009  1.0000
  O   O7        1.0  0.21231  0.82494  0.33991  1.0000
  O   O8        1.0  0.78769  0.67506  0.83991  1.0000
  O   O9        1.0  0.85035  0.42650  0.23662  1.0000
  O   O10       1.0  0.14965  0.07351  0.73662  1.0000
  O   O11       1.0  0.14965  0.57351  0.76338  1.0000
  O   O12       1.0  0.85035  0.92649  0.26338  1.0000
