data_image0
_chemical_formula_structural       Cd2H30C32N6O16
_chemical_formula_sum              "Cd2 H30 C32 N6 O16"
_cell_length_a       10.2509
_cell_length_b       9.83303
_cell_length_c       10.9028
_cell_angle_alpha    85.1188
_cell_angle_beta     97.9113
_cell_angle_gamma    119.993

_space_group_name_H-M_alt    "P 1"
_space_group_IT_number       1

loop_
  _space_group_symop_operation_xyz
  'x, y, z'

loop_
  _atom_site_type_symbol
  _atom_site_label
  _atom_site_symmetry_multiplicity
  _atom_site_fract_x
  _atom_site_fract_y
  _atom_site_fract_z
  _atom_site_occupancy
  Cd  Cd1       1.0  0.89771  0.70252  0.47534  1.0000
  Cd  Cd2       1.0  0.10227  0.29748  0.52467  1.0000
  H   H1        1.0  0.76650  0.13806  0.86334  1.0000
  H   H2        1.0  0.23348  0.86193  0.13665  1.0000
  H   H3        1.0  0.04502  0.11154  0.79853  1.0000
  H   H4        1.0  0.95500  0.88846  0.20147  1.0000
  H   H5        1.0  0.06216  0.02785  0.36902  1.0000
  H   H6        1.0  0.93784  0.97216  0.63098  1.0000
  H   H7        1.0  0.89171  0.97637  0.35429  1.0000
  H   H8        1.0  0.10829  0.02363  0.64571  1.0000
  H   H9        1.0  0.83752  0.40792  0.58980  1.0000
  H   H10       1.0  0.16247  0.59208  0.41020  1.0000
  H   H11       1.0  0.74496  0.45967  0.66211  1.0000
  H   H12       1.0  0.25503  0.54033  0.33788  1.0000
  H   H13       1.0  0.93957  0.48520  0.24306  1.0000
  H   H14       1.0  0.06045  0.51484  0.75695  1.0000
  H   H15       1.0  0.57068  0.53532  0.30509  1.0000
  H   H16       1.0  0.42932  0.46467  0.69491  1.0000
  H   H17       1.0  0.53784  0.26883  0.95040  1.0000
  H   H18       1.0  0.46219  0.73119  0.04960  1.0000
  H   H19       1.0  0.28938  0.15416  0.82039  1.0000
  H   H20       1.0  0.71064  0.84585  0.17961  1.0000
  H   H21       1.0  0.09611  0.26216  0.09890  1.0000
  H   H22       1.0  0.90390  0.73781  0.90111  1.0000
  H   H23       1.0  0.34199  0.37516  0.22805  1.0000
  H   H24       1.0  0.65802  0.62484  0.77195  1.0000
  H   H25       1.0  0.38712  0.72694  0.47477  1.0000
  H   H26       1.0  0.61286  0.27304  0.52523  1.0000
  H   H27       1.0  0.38515  0.02066  0.74596  1.0000
  H   H28       1.0  0.61483  0.97933  0.25403  1.0000
  H   H29       1.0  0.78281  0.98409  0.72918  1.0000
  H   H30       1.0  0.21717  0.01590  0.27082  1.0000
  C   C1        1.0  0.82793  0.47457  0.23281  1.0000
  C   C2        1.0  0.17209  0.52545  0.76719  1.0000
  C   C3        1.0  0.64025  0.49908  0.26673  1.0000
  C   C4        1.0  0.35975  0.50092  0.73327  1.0000
  C   C5        1.0  0.45728  0.33463  0.09496  1.0000
  C   C6        1.0  0.54275  0.66539  0.90504  1.0000
  C   C7        1.0  0.44130  0.26872  0.98168  1.0000
  C   C8        1.0  0.55873  0.73130  0.01832  1.0000
  C   C9        1.0  0.30126  0.20351  0.90970  1.0000
  C   C10       1.0  0.69876  0.79650  0.09030  1.0000
  C   C11       1.0  0.17641  0.20340  0.94986  1.0000
  C   C12       1.0  0.82361  0.79660  0.05014  1.0000
  C   C13       1.0  0.19345  0.26628  0.06555  1.0000
  C   C14       1.0  0.80657  0.73371  0.93446  1.0000
  C   C15       1.0  0.33271  0.33126  0.13718  1.0000
  C   C16       1.0  0.66730  0.66874  0.86283  1.0000
  C   C17       1.0  0.66685  0.77850  0.53439  1.0000
  C   C18       1.0  0.33314  0.22150  0.46562  1.0000
  C   C19       1.0  0.59213  0.84874  0.59462  1.0000
  C   C20       1.0  0.40785  0.15125  0.40538  1.0000
  C   C21       1.0  0.44252  0.80672  0.55151  1.0000
  C   C22       1.0  0.55745  0.19327  0.44849  1.0000
  C   C23       1.0  0.36750  0.86704  0.60628  1.0000
  C   C24       1.0  0.63248  0.13295  0.39371  1.0000
  C   C25       1.0  0.20669  0.81872  0.56172  1.0000
  C   C26       1.0  0.79330  0.18127  0.43827  1.0000
  C   C27       1.0  0.44360  0.97359  0.70312  1.0000
  C   C28       1.0  0.55639  0.02640  0.29688  1.0000
  C   C29       1.0  0.59425  0.01807  0.74495  1.0000
  C   C30       1.0  0.40573  0.98191  0.25505  1.0000
  C   C31       1.0  0.66758  0.95346  0.69225  1.0000
  C   C32       1.0  0.33241  0.04653  0.30775  1.0000
  N   N1        1.0  0.59982  0.40649  0.16854  1.0000
  N   N2        1.0  0.40020  0.59353  0.83146  1.0000
  N   N3        1.0  0.71918  0.39032  0.14537  1.0000
  N   N4        1.0  0.28084  0.60971  0.85463  1.0000
  N   N5        1.0  0.78405  0.54374  0.30995  1.0000
  N   N6        1.0  0.21595  0.45628  0.69005  1.0000
  O   O1        1.0  0.79945  0.80497  0.58741  1.0000
  O   O2        1.0  0.20055  0.19504  0.41259  1.0000
  O   O3        1.0  0.60269  0.69730  0.43962  1.0000
  O   O4        1.0  0.39730  0.30269  0.56038  1.0000
  O   O5        1.0  0.13440  0.71417  0.47728  1.0000
  O   O6        1.0  0.86558  0.28582  0.52271  1.0000
  O   O7        1.0  0.14034  0.87902  0.60742  1.0000
  O   O8        1.0  0.85965  0.12098  0.39257  1.0000
  O   O9        1.0  0.66561  0.12486  0.83796  1.0000
  O   O10       1.0  0.33438  0.87513  0.16203  1.0000
  O   O11       1.0  0.03930  0.14508  0.88140  1.0000
  O   O12       1.0  0.96072  0.85491  0.11861  1.0000
  O   O13       1.0  0.95941  0.93382  0.34385  1.0000
  O   O14       1.0  0.04059  0.06619  0.65615  1.0000
  O   O15       1.0  0.84190  0.49921  0.63007  1.0000
  O   O16       1.0  0.15809  0.50079  0.36993  1.0000
