data_image0
_chemical_formula_structural       Na4Cd2H30C14N14O20
_chemical_formula_sum              "Na4 Cd2 H30 C14 N14 O20"
_cell_length_a       6.8869
_cell_length_b       10.648
_cell_length_c       13.197
_cell_angle_alpha    113.791
_cell_angle_beta     104.629
_cell_angle_gamma    90.0092

_space_group_name_H-M_alt    "P 1"
_space_group_IT_number       1

loop_
  _space_group_symop_operation_xyz
  'x, y, z'

loop_
  _atom_site_type_symbol
  _atom_site_label
  _atom_site_symmetry_multiplicity
  _atom_site_fract_x
  _atom_site_fract_y
  _atom_site_fract_z
  _atom_site_occupancy
  Na  Na1       1.0  0.38550  0.33315  0.41851  1.0000
  Na  Na2       1.0  0.11447  0.91459  0.58147  1.0000
  Na  Na3       1.0  0.61452  0.66684  0.58150  1.0000
  Na  Na4       1.0  0.88554  0.08541  0.41853  1.0000
  Cd  Cd1       1.0  0.24995  0.92588  0.99999  1.0000
  Cd  Cd2       1.0  0.75001  0.07411  0.00000  1.0000
  H   H1        1.0  0.96873  0.20461  0.27557  1.0000
  H   H2        1.0  0.53131  0.92903  0.72437  1.0000
  H   H3        1.0  0.03128  0.79540  0.72444  1.0000
  H   H4        1.0  0.46869  0.07096  0.27561  1.0000
  H   H5        1.0  0.11342  0.08897  0.27189  1.0000
  H   H6        1.0  0.38660  0.81710  0.72811  1.0000
  H   H7        1.0  0.88658  0.91103  0.72811  1.0000
  H   H8        1.0  0.61341  0.18290  0.27189  1.0000
  H   H9        1.0  0.53773  0.27012  0.63924  1.0000
  H   H10       1.0  0.96216  0.63084  0.36083  1.0000
  H   H11       1.0  0.46225  0.72988  0.36076  1.0000
  H   H12       1.0  0.03784  0.36915  0.63917  1.0000
  H   H13       1.0  0.36723  0.36979  0.64112  1.0000
  H   H14       1.0  0.13260  0.72861  0.35883  1.0000
  H   H15       1.0  0.63275  0.63022  0.35888  1.0000
  H   H16       1.0  0.86740  0.27138  0.64117  1.0000
  H   H17       1.0  0.76636  0.44985  0.42004  1.0000
  H   H18       1.0  0.73354  0.02994  0.58004  1.0000
  H   H19       1.0  0.23365  0.55014  0.57996  1.0000
  H   H20       1.0  0.26645  0.97006  0.41996  1.0000
  H   H21       1.0  0.79473  0.39659  0.52040  1.0000
  H   H22       1.0  0.70529  0.87633  0.47966  1.0000
  H   H23       1.0  0.20529  0.60341  0.47960  1.0000
  H   H24       1.0  0.29471  0.12367  0.52034  1.0000
  H   H25       1.0  0.23213  0.37013  0.81936  1.0000
  H   H26       1.0  0.26771  0.55063  0.18039  1.0000
  H   H27       1.0  0.76791  0.62987  0.18065  1.0000
  H   H28       1.0  0.73233  0.44937  0.81961  1.0000
  H   H29       1.0  0.25008  0.34267  0.99989  1.0000
  H   H30       1.0  0.75004  0.65734  0.00013  1.0000
  C   C1        1.0  0.23512  0.61762  0.79556  1.0000
  C   C2        1.0  0.26481  0.82182  0.20427  1.0000
  C   C3        1.0  0.76484  0.38238  0.20444  1.0000
  C   C4        1.0  0.73517  0.17818  0.79573  1.0000
  C   C5        1.0  0.24188  0.59330  0.90219  1.0000
  C   C6        1.0  0.25789  0.69096  0.09755  1.0000
  C   C7        1.0  0.75809  0.40670  0.09781  1.0000
  C   C8        1.0  0.74210  0.30904  0.90245  1.0000
  C   C9        1.0  0.24003  0.46033  0.89883  1.0000
  C   C10       1.0  0.25978  0.56135  0.10092  1.0000
  C   C11       1.0  0.75999  0.53967  0.10117  1.0000
  C   C12       1.0  0.74025  0.43865  0.89909  1.0000
  C   C13       1.0  0.25001  0.44493  0.99989  1.0000
  C   C14       1.0  0.75004  0.55508  0.00012  1.0000
  N   N1        1.0  0.24988  0.70486  0.99988  1.0000
  N   N2        1.0  0.75008  0.29514  0.00011  1.0000
  N   N3        1.0  0.10922  0.13217  0.07943  1.0000
  N   N4        1.0  0.39084  0.05279  0.92061  1.0000
  N   N5        1.0  0.89078  0.86784  0.92056  1.0000
  N   N6        1.0  0.60912  0.94720  0.07937  1.0000
  N   N7        1.0  0.19969  0.24177  0.14900  1.0000
  N   N8        1.0  0.30042  0.09274  0.85098  1.0000
  N   N9        1.0  0.80031  0.75823  0.85099  1.0000
  N   N10       1.0  0.69956  0.90726  0.14900  1.0000
  N   N11       1.0  0.28659  0.34882  0.21779  1.0000
  N   N12       1.0  0.21355  0.13091  0.78213  1.0000
  N   N13       1.0  0.71341  0.65118  0.78221  1.0000
  N   N14       1.0  0.78647  0.86910  0.21786  1.0000
  O   O1        1.0  0.24418  0.74163  0.80575  1.0000
  O   O2        1.0  0.25582  0.93573  0.19423  1.0000
  O   O3        1.0  0.75577  0.25837  0.19425  1.0000
  O   O4        1.0  0.74415  0.06427  0.80577  1.0000
  O   O5        1.0  0.21945  0.51225  0.70183  1.0000
  O   O6        1.0  0.28059  0.81001  0.29795  1.0000
  O   O7        1.0  0.78051  0.48775  0.29817  1.0000
  O   O8        1.0  0.71938  0.18998  0.70205  1.0000
  O   O9        1.0  0.07107  0.17303  0.32458  1.0000
  O   O10       1.0  0.42910  0.84834  0.67538  1.0000
  O   O11       1.0  0.92894  0.82698  0.67542  1.0000
  O   O12       1.0  0.57090  0.15165  0.32461  1.0000
  O   O13       1.0  0.42390  0.29329  0.58935  1.0000
  O   O14       1.0  0.07588  0.70403  0.41066  1.0000
  O   O15       1.0  0.57609  0.70671  0.41066  1.0000
  O   O16       1.0  0.92414  0.29595  0.58934  1.0000
  O   O17       1.0  0.71989  0.45638  0.48670  1.0000
  O   O18       1.0  0.78017  0.96985  0.51345  1.0000
  O   O19       1.0  0.28013  0.54362  0.51331  1.0000
  O   O20       1.0  0.21983  0.03015  0.48655  1.0000
