data_image0
_chemical_formula_structural       CuH16C14N4Cl2O2
_chemical_formula_sum              "Cu1 H16 C14 N4 Cl2 O2"
_cell_length_a       7.30595
_cell_length_b       7.77304
_cell_length_c       8.32698
_cell_angle_alpha    100.305
_cell_angle_beta     111.854
_cell_angle_gamma    106.552

_space_group_name_H-M_alt    "P 1"
_space_group_IT_number       1

loop_
  _space_group_symop_operation_xyz
  'x, y, z'

loop_
  _atom_site_type_symbol
  _atom_site_label
  _atom_site_symmetry_multiplicity
  _atom_site_fract_x
  _atom_site_fract_y
  _atom_site_fract_z
  _atom_site_occupancy
  Cu  Cu1       1.0  0.50000  0.00000  0.00000  1.0000
  H   H1        1.0  0.76504  0.40857  0.15151  1.0000
  H   H2        1.0  0.23496  0.59143  0.84848  1.0000
  H   H3        1.0  0.74158  0.70201  0.31124  1.0000
  H   H4        1.0  0.25841  0.29799  0.68875  1.0000
  H   H5        1.0  0.11767  0.34777  0.23034  1.0000
  H   H6        1.0  0.88233  0.65222  0.76967  1.0000
  H   H7        1.0  0.16957  0.07332  0.07710  1.0000
  H   H8        1.0  0.83044  0.92668  0.92291  1.0000
  H   H9        1.0  0.56537  0.83934  0.45646  1.0000
  H   H10       1.0  0.43463  0.16066  0.54354  1.0000
  H   H11       1.0  0.36025  0.68890  0.49119  1.0000
  H   H12       1.0  0.63975  0.31110  0.50881  1.0000
  H   H13       1.0  0.03188  0.90529  0.25923  1.0000
  H   H14       1.0  0.96812  0.09471  0.74077  1.0000
  H   H15       1.0  0.15045  0.84924  0.45564  1.0000
  H   H16       1.0  0.84954  0.15076  0.54435  1.0000
  C   C1        1.0  0.62679  0.40348  0.17461  1.0000
  C   C2        1.0  0.37321  0.59652  0.82538  1.0000
  C   C3        1.0  0.61152  0.56483  0.26259  1.0000
  C   C4        1.0  0.38848  0.43518  0.73740  1.0000
  C   C5        1.0  0.42918  0.55036  0.28731  1.0000
  C   C6        1.0  0.57082  0.44964  0.71269  1.0000
  C   C7        1.0  0.26521  0.37091  0.21746  1.0000
  C   C8        1.0  0.73479  0.62908  0.78254  1.0000
  C   C9        1.0  0.29100  0.21601  0.13092  1.0000
  C   C10       1.0  0.70901  0.78399  0.86909  1.0000
  C   C11       1.0  0.40927  0.72008  0.38632  1.0000
  C   C12       1.0  0.59073  0.27992  0.61368  1.0000
  C   C13       1.0  0.25244  0.78704  0.25895  1.0000
  C   C14       1.0  0.74756  0.21296  0.74105  1.0000
  N   N1        1.0  0.12986  0.84345  0.32567  1.0000
  N   N2        1.0  0.87014  0.15656  0.67433  1.0000
  N   N3        1.0  0.46916  0.23118  0.11109  1.0000
  N   N4        1.0  0.53084  0.76882  0.88891  1.0000
  Cl  Cl1       1.0  0.18408  0.92291  0.73571  1.0000
  Cl  Cl2       1.0  0.81593  0.07710  0.26429  1.0000
  O   O1        1.0  0.24373  0.79187  0.10770  1.0000
  O   O2        1.0  0.75627  0.20814  0.89230  1.0000
