data_image0
_chemical_formula_structural       CoH16C14N4Cl2O2
_chemical_formula_sum              "Co1 H16 C14 N4 Cl2 O2"
_cell_length_a       7.15875
_cell_length_b       7.67225
_cell_length_c       8.09866
_cell_angle_alpha    97.3621
_cell_angle_beta     109.05
_cell_angle_gamma    106.851

_space_group_name_H-M_alt    "P 1"
_space_group_IT_number       1

loop_
  _space_group_symop_operation_xyz
  'x, y, z'

loop_
  _atom_site_type_symbol
  _atom_site_label
  _atom_site_symmetry_multiplicity
  _atom_site_fract_x
  _atom_site_fract_y
  _atom_site_fract_z
  _atom_site_occupancy
  Co  Co1       1.0  1.00000  0.50000  1.00000  1.0000
  H   H1        1.0  0.72534  0.11013  0.85705  1.0000
  H   H2        1.0  0.27466  0.88988  0.14295  1.0000
  H   H3        1.0  0.91884  0.66385  0.56878  1.0000
  H   H4        1.0  0.08116  0.33615  0.43123  1.0000
  H   H5        1.0  0.11255  0.80590  0.50278  1.0000
  H   H6        1.0  0.88745  0.19409  0.49722  1.0000
  H   H7        1.0  0.74234  0.81637  0.70110  1.0000
  H   H8        1.0  0.25766  0.18364  0.29889  1.0000
  H   H9        1.0  0.38142  0.13729  0.77356  1.0000
  H   H10       1.0  0.61858  0.86270  0.22644  1.0000
  H   H11       1.0  0.33709  0.41415  0.92580  1.0000
  H   H12       1.0  0.66291  0.58585  0.07419  1.0000
  H   H13       1.0  0.33881  0.65605  0.53232  1.0000
  H   H14       1.0  0.66119  0.34395  0.46767  1.0000
  H   H15       1.0  0.45868  0.59106  0.72764  1.0000
  H   H16       1.0  0.54132  0.40895  0.27236  1.0000
  C   C1        1.0  0.23129  0.70220  0.73659  1.0000
  C   C2        1.0  0.76871  0.29781  0.26342  1.0000
  C   C3        1.0  0.06179  0.94988  0.71996  1.0000
  C   C4        1.0  0.93821  0.05012  0.28003  1.0000
  C   C5        1.0  0.86581  0.10896  0.83313  1.0000
  C   C6        1.0  0.13419  0.89105  0.16687  1.0000
  C   C7        1.0  0.07382  0.77718  0.61957  1.0000
  C   C8        1.0  0.92619  0.22281  0.38043  1.0000
  C   C9        1.0  0.87751  0.94654  0.74651  1.0000
  C   C10       1.0  0.12248  0.05345  0.25349  1.0000
  C   C11       1.0  0.23151  0.12123  0.78780  1.0000
  C   C12       1.0  0.76850  0.87877  0.21221  1.0000
  C   C13       1.0  0.20968  0.27840  0.87363  1.0000
  C   C14       1.0  0.79032  0.72160  0.12637  1.0000
  N   N1        1.0  0.02887  0.27492  0.89454  1.0000
  N   N2        1.0  0.97113  0.72508  0.10545  1.0000
  N   N3        1.0  0.35892  0.65540  0.66363  1.0000
  N   N4        1.0  0.64108  0.34460  0.33637  1.0000
  Cl  Cl1       1.0  0.29567  0.55589  0.24767  1.0000
  Cl  Cl2       1.0  0.70433  0.44411  0.75234  1.0000
  O   O1        1.0  0.23944  0.68324  0.88963  1.0000
  O   O2        1.0  0.76055  0.31676  0.11037  1.0000
