data_image0
_chemical_formula_structural       Zn2H24C32N4O8
_chemical_formula_sum              "Zn2 H24 C32 N4 O8"
_cell_length_a       8.69568
_cell_length_b       10.0774
_cell_length_c       10.4635
_cell_angle_alpha    83.8013
_cell_angle_beta     66.8466
_cell_angle_gamma    68.4193

_space_group_name_H-M_alt    "P 1"
_space_group_IT_number       1

loop_
  _space_group_symop_operation_xyz
  'x, y, z'

loop_
  _atom_site_type_symbol
  _atom_site_label
  _atom_site_symmetry_multiplicity
  _atom_site_fract_x
  _atom_site_fract_y
  _atom_site_fract_z
  _atom_site_occupancy
  Zn  Zn1       1.0  0.64839  0.84232  0.88394  1.0000
  Zn  Zn2       1.0  0.35161  0.15768  0.11606  1.0000
  H   H1        1.0  0.87627  0.65982  0.03865  1.0000
  H   H2        1.0  0.12373  0.34018  0.96135  1.0000
  H   H3        1.0  0.89066  0.46232  0.20254  1.0000
  H   H4        1.0  0.10934  0.53768  0.79746  1.0000
  H   H5        1.0  0.36292  0.50136  0.23609  1.0000
  H   H6        1.0  0.63708  0.49864  0.76391  1.0000
  H   H7        1.0  0.37687  0.69319  0.06465  1.0000
  H   H8        1.0  0.62314  0.30681  0.93535  1.0000
  H   H9        1.0  0.48673  0.33490  0.37589  1.0000
  H   H10       1.0  0.51327  0.66510  0.62411  1.0000
  H   H11       1.0  0.85036  0.31983  0.37110  1.0000
  H   H12       1.0  0.14964  0.68017  0.62890  1.0000
  H   H13       1.0  0.89550  0.01495  0.74214  1.0000
  H   H14       1.0  0.10450  0.98505  0.25786  1.0000
  H   H15       1.0  0.94112  0.18190  0.54911  1.0000
  H   H16       1.0  0.05888  0.81810  0.45089  1.0000
  H   H17       1.0  0.45903  0.17892  0.51842  1.0000
  H   H18       1.0  0.54097  0.82108  0.48158  1.0000
  H   H19       1.0  0.44008  0.00929  0.70792  1.0000
  H   H20       1.0  0.55992  0.99071  0.29208  1.0000
  H   H21       1.0  0.88981  0.13630  0.09612  1.0000
  H   H22       1.0  0.11018  0.86370  0.90388  1.0000
  H   H23       1.0  0.08232  0.45636  0.61072  1.0000
  H   H24       1.0  0.91768  0.54365  0.38928  1.0000
  C   C1        1.0  0.76562  0.62066  0.08501  1.0000
  C   C2        1.0  0.23438  0.37934  0.91499  1.0000
  C   C3        1.0  0.77138  0.51164  0.17800  1.0000
  C   C4        1.0  0.22862  0.48836  0.82200  1.0000
  C   C5        1.0  0.62357  0.46633  0.23814  1.0000
  C   C6        1.0  0.37644  0.53367  0.76186  1.0000
  C   C7        1.0  0.47990  0.53303  0.19495  1.0000
  C   C8        1.0  0.52009  0.46697  0.80505  1.0000
  C   C9        1.0  0.48605  0.64045  0.10017  1.0000
  C   C10       1.0  0.51395  0.35955  0.89983  1.0000
  C   C11       1.0  0.60877  0.35964  0.34322  1.0000
  C   C12       1.0  0.39123  0.64036  0.65678  1.0000
  C   C13       1.0  0.72796  0.29595  0.40393  1.0000
  C   C14       1.0  0.27204  0.70405  0.59607  1.0000
  C   C15       1.0  0.80147  0.05490  0.69005  1.0000
  C   C16       1.0  0.19853  0.94510  0.30995  1.0000
  C   C17       1.0  0.82631  0.14780  0.58193  1.0000
  C   C18       1.0  0.17369  0.85220  0.41807  1.0000
  C   C19       1.0  0.70358  0.19691  0.51582  1.0000
  C   C20       1.0  0.29642  0.80309  0.48418  1.0000
  C   C21       1.0  0.55989  0.14649  0.56409  1.0000
  C   C22       1.0  0.44011  0.85351  0.43591  1.0000
  C   C23       1.0  0.54674  0.05284  0.67142  1.0000
  C   C24       1.0  0.45326  0.94716  0.32858  1.0000
  C   C25       1.0  0.75746  0.02277  0.03043  1.0000
  C   C26       1.0  0.24254  0.97723  0.96957  1.0000
  C   C27       1.0  0.91600  0.04375  0.03492  1.0000
  C   C28       1.0  0.08400  0.95625  0.96508  1.0000
  C   C29       1.0  0.84612  0.65576  0.63719  1.0000
  C   C30       1.0  0.15388  0.34424  0.36281  1.0000
  C   C31       1.0  0.99080  0.52168  0.56171  1.0000
  C   C32       1.0  0.00920  0.47832  0.43829  1.0000
  N   N1        1.0  0.62516  0.68597  0.04654  1.0000
  N   N2        1.0  0.37484  0.31403  0.95346  1.0000
  N   N3        1.0  0.66377  0.00764  0.73551  1.0000
  N   N4        1.0  0.33624  0.99236  0.26449  1.0000
  O   O1        1.0  0.78256  0.90897  0.97110  1.0000
  O   O2        1.0  0.21744  0.09103  0.02890  1.0000
  O   O3        1.0  0.60863  0.12434  0.08735  1.0000
  O   O4        1.0  0.39137  0.87566  0.91265  1.0000
  O   O5        1.0  0.84744  0.67889  0.75667  1.0000
  O   O6        1.0  0.15256  0.32111  0.24333  1.0000
  O   O7        1.0  0.73658  0.73366  0.58634  1.0000
  O   O8        1.0  0.26342  0.26634  0.41366  1.0000
