data_image0
_chemical_formula_structural       Cu4H28C28Br4N20
_chemical_formula_sum              "Cu4 H28 C28 Br4 N20"
_cell_length_a       10.1177
_cell_length_b       10.0811
_cell_length_c       9.48105
_cell_angle_alpha    90.0003
_cell_angle_beta     98.3955
_cell_angle_gamma    90.0014

_space_group_name_H-M_alt    "P 1"
_space_group_IT_number       1

loop_
  _space_group_symop_operation_xyz
  'x, y, z'

loop_
  _atom_site_type_symbol
  _atom_site_label
  _atom_site_symmetry_multiplicity
  _atom_site_fract_x
  _atom_site_fract_y
  _atom_site_fract_z
  _atom_site_occupancy
  Cu  Cu1       1.0  0.40456  0.05421  0.84154  1.0000
  Cu  Cu2       1.0  0.59545  0.55423  0.65847  1.0000
  Cu  Cu3       1.0  0.59544  0.94579  0.15847  1.0000
  Cu  Cu4       1.0  0.40456  0.44578  0.34154  1.0000
  H   H1        1.0  0.15581  0.87792  0.04762  1.0000
  H   H2        1.0  0.84419  0.37792  0.45238  1.0000
  H   H3        1.0  0.84421  0.12209  0.95239  1.0000
  H   H4        1.0  0.15582  0.62206  0.54760  1.0000
  H   H5        1.0  0.03230  0.83218  0.15652  1.0000
  H   H6        1.0  0.96770  0.33219  0.34348  1.0000
  H   H7        1.0  0.96771  0.16782  0.84348  1.0000
  H   H8        1.0  0.03231  0.66779  0.65650  1.0000
  H   H9        1.0  0.18756  0.74292  0.17508  1.0000
  H   H10       1.0  0.81242  0.24293  0.32492  1.0000
  H   H11       1.0  0.81244  0.25709  0.82492  1.0000
  H   H12       1.0  0.18759  0.75706  0.67507  1.0000
  H   H13       1.0  0.11629  0.09247  0.13790  1.0000
  H   H14       1.0  0.88371  0.59248  0.36211  1.0000
  H   H15       1.0  0.88372  0.90754  0.86212  1.0000
  H   H16       1.0  0.11629  0.40750  0.63789  1.0000
  H   H17       1.0  0.21321  0.26411  0.31473  1.0000
  H   H18       1.0  0.78679  0.76412  0.18528  1.0000
  H   H19       1.0  0.78680  0.73590  0.68527  1.0000
  H   H20       1.0  0.21322  0.23587  0.81473  1.0000
  H   H21       1.0  0.38375  0.94025  0.58430  1.0000
  H   H22       1.0  0.61622  0.44026  0.91570  1.0000
  H   H23       1.0  0.61621  0.05975  0.41571  1.0000
  H   H24       1.0  0.38378  0.55975  0.08429  1.0000
  H   H25       1.0  0.27637  0.78426  0.39822  1.0000
  H   H26       1.0  0.72359  0.28427  0.10177  1.0000
  H   H27       1.0  0.72361  0.21574  0.60178  1.0000
  H   H28       1.0  0.27640  0.71573  0.89821  1.0000
  C   C1        1.0  0.14010  0.83969  0.15251  1.0000
  C   C2        1.0  0.85989  0.33969  0.34748  1.0000
  C   C3        1.0  0.85990  0.16032  0.84749  1.0000
  C   C4        1.0  0.14012  0.66029  0.65250  1.0000
  C   C5        1.0  0.17629  0.06622  0.23867  1.0000
  C   C6        1.0  0.82369  0.56623  0.26134  1.0000
  C   C7        1.0  0.82371  0.93378  0.76134  1.0000
  C   C8        1.0  0.17631  0.43375  0.73866  1.0000
  C   C9        1.0  0.23160  0.15885  0.33702  1.0000
  C   C10       1.0  0.76840  0.65886  0.16299  1.0000
  C   C11       1.0  0.76840  0.84115  0.66299  1.0000
  C   C12       1.0  0.23161  0.34113  0.83702  1.0000
  C   C13       1.0  0.31247  0.11726  0.46260  1.0000
  C   C14       1.0  0.68752  0.61726  0.03740  1.0000
  C   C15       1.0  0.68752  0.88275  0.53740  1.0000
  C   C16       1.0  0.31248  0.38274  0.96260  1.0000
  C   C17       1.0  0.32516  0.97991  0.48810  1.0000
  C   C18       1.0  0.67482  0.47993  0.01191  1.0000
  C   C19       1.0  0.67483  0.02010  0.51191  1.0000
  C   C20       1.0  0.32517  0.52009  0.98809  1.0000
  C   C21       1.0  0.26713  0.89148  0.38643  1.0000
  C   C22       1.0  0.73285  0.39148  0.11358  1.0000
  C   C23       1.0  0.73286  0.10853  0.61359  1.0000
  C   C24       1.0  0.26714  0.60851  0.88641  1.0000
  C   C25       1.0  0.38715  0.21199  0.55883  1.0000
  C   C26       1.0  0.61285  0.71200  0.94118  1.0000
  C   C27       1.0  0.61285  0.78803  0.44117  1.0000
  C   C28       1.0  0.38715  0.28802  0.05884  1.0000
  Br  Br1       1.0  0.16353  0.99066  0.79659  1.0000
  Br  Br2       1.0  0.83648  0.49068  0.70340  1.0000
  Br  Br3       1.0  0.83648  0.00932  0.20340  1.0000
  Br  Br4       1.0  0.16351  0.50934  0.29657  1.0000
  N   N1        1.0  0.42245  0.33600  0.52288  1.0000
  N   N2        1.0  0.57755  0.83601  0.97713  1.0000
  N   N3        1.0  0.57755  0.66400  0.47711  1.0000
  N   N4        1.0  0.42245  0.16399  0.02289  1.0000
  N   N5        1.0  0.50043  0.38295  0.63941  1.0000
  N   N6        1.0  0.49957  0.88295  0.86059  1.0000
  N   N7        1.0  0.49957  0.61705  0.36060  1.0000
  N   N8        1.0  0.50043  0.11705  0.13941  1.0000
  N   N9        1.0  0.51229  0.29350  0.74303  1.0000
  N   N10       1.0  0.48772  0.79350  0.75697  1.0000
  N   N11       1.0  0.48771  0.70650  0.25698  1.0000
  N   N12       1.0  0.51229  0.20650  0.24303  1.0000
  N   N13       1.0  0.44196  0.18576  0.69540  1.0000
  N   N14       1.0  0.55805  0.68577  0.80460  1.0000
  N   N15       1.0  0.55804  0.81425  0.30460  1.0000
  N   N16       1.0  0.44195  0.31424  0.19540  1.0000
  N   N17       1.0  0.19716  0.93465  0.26204  1.0000
  N   N18       1.0  0.80283  0.43466  0.23796  1.0000
  N   N19       1.0  0.80285  0.06535  0.73796  1.0000
  N   N20       1.0  0.19716  0.56532  0.76203  1.0000
