data_image0
_chemical_formula_structural       La4H22C30O32
_chemical_formula_sum              "La4 H22 C30 O32"
_cell_length_a       9.25421
_cell_length_b       10.5809
_cell_length_c       10.8004
_cell_angle_alpha    87.9922
_cell_angle_beta     84.8673
_cell_angle_gamma    81.6358

_space_group_name_H-M_alt    "P 1"
_space_group_IT_number       1

loop_
  _space_group_symop_operation_xyz
  'x, y, z'

loop_
  _atom_site_type_symbol
  _atom_site_label
  _atom_site_symmetry_multiplicity
  _atom_site_fract_x
  _atom_site_fract_y
  _atom_site_fract_z
  _atom_site_occupancy
  La  La1       1.0  0.52029  0.68317  0.69368  1.0000
  La  La2       1.0  0.47971  0.31685  0.30632  1.0000
  La  La3       1.0  0.53806  0.24415  0.71730  1.0000
  La  La4       1.0  0.46194  0.75586  0.28270  1.0000
  H   H1        1.0  0.03665  0.60731  0.79415  1.0000
  H   H2        1.0  0.96335  0.39269  0.20584  1.0000
  H   H3        1.0  0.07884  0.35620  0.67713  1.0000
  H   H4        1.0  0.92117  0.64379  0.32288  1.0000
  H   H5        1.0  0.00212  0.14577  0.31425  1.0000
  H   H6        1.0  0.99787  0.85424  0.68573  1.0000
  H   H7        1.0  0.56919  0.93254  0.81505  1.0000
  H   H8        1.0  0.43082  0.06746  0.18495  1.0000
  H   H9        1.0  0.41242  0.91887  0.87784  1.0000
  H   H10       1.0  0.58758  0.08115  0.12216  1.0000
  H   H11       1.0  0.30307  0.20270  0.90572  1.0000
  H   H12       1.0  0.69692  0.79730  0.09428  1.0000
  H   H13       1.0  0.42241  0.13580  0.99072  1.0000
  H   H14       1.0  0.57759  0.86420  0.00928  1.0000
  H   H15       1.0  0.29858  0.05395  0.69231  1.0000
  H   H16       1.0  0.70143  0.94603  0.30768  1.0000
  H   H17       1.0  0.31493  0.13962  0.56833  1.0000
  H   H18       1.0  0.68507  0.86037  0.43167  1.0000
  H   H19       1.0  0.69448  0.32074  0.95239  1.0000
  H   H20       1.0  0.30553  0.67926  0.04760  1.0000
  H   H21       1.0  0.52621  0.33528  0.98652  1.0000
  H   H22       1.0  0.47380  0.66472  0.01349  1.0000
  C   C1        1.0  0.75290  0.61950  0.86898  1.0000
  C   C2        1.0  0.24710  0.38051  0.13103  1.0000
  C   C3        1.0  0.87877  0.56203  0.94046  1.0000
  C   C4        1.0  0.12123  0.43798  0.05954  1.0000
  C   C5        1.0  0.02119  0.56106  0.88510  1.0000
  C   C6        1.0  0.97881  0.43895  0.11490  1.0000
  C   C7        1.0  0.14181  0.49914  0.94276  1.0000
  C   C8        1.0  0.85818  0.50086  0.05725  1.0000
  C   C9        1.0  0.28713  0.49393  0.86819  1.0000
  C   C10       1.0  0.71287  0.50607  0.13181  1.0000
  C   C11       1.0  0.78417  0.38467  0.65616  1.0000
  C   C12       1.0  0.21583  0.61533  0.34385  1.0000
  C   C13       1.0  0.89767  0.44196  0.57544  1.0000
  C   C14       1.0  0.10232  0.55804  0.42457  1.0000
  C   C15       1.0  0.04526  0.41872  0.59935  1.0000
  C   C16       1.0  0.95474  0.58128  0.40067  1.0000
  C   C17       1.0  0.14769  0.47842  0.52499  1.0000
  C   C18       1.0  0.85231  0.52158  0.47502  1.0000
  C   C19       1.0  0.30345  0.46983  0.55862  1.0000
  C   C20       1.0  0.69656  0.53017  0.44140  1.0000
  C   C21       1.0  0.72946  0.13381  0.41800  1.0000
  C   C22       1.0  0.27053  0.86619  0.58200  1.0000
  C   C23       1.0  0.86880  0.06446  0.46109  1.0000
  C   C24       1.0  0.13119  0.93554  0.53890  1.0000
  C   C25       1.0  0.00206  0.08084  0.39484  1.0000
  C   C26       1.0  0.99793  0.91917  0.60514  1.0000
  C   C27       1.0  0.13373  0.01698  0.43321  1.0000
  C   C28       1.0  0.86627  0.98302  0.56677  1.0000
  C   C29       1.0  0.27600  0.04468  0.36560  1.0000
  C   C30       1.0  0.72399  0.95533  0.63439  1.0000
  O   O1        1.0  0.77842  0.67851  0.76626  1.0000
  O   O2        1.0  0.22158  0.32149  0.23374  1.0000
  O   O3        1.0  0.62295  0.60147  0.90899  1.0000
  O   O4        1.0  0.37704  0.39854  0.09100  1.0000
  O   O5        1.0  0.33646  0.38680  0.81875  1.0000
  O   O6        1.0  0.66355  0.61320  0.18125  1.0000
  O   O7        1.0  0.34173  0.59623  0.85082  1.0000
  O   O8        1.0  0.65827  0.40378  0.14918  1.0000
  O   O9        1.0  0.65345  0.44991  0.67141  1.0000
  O   O10       1.0  0.34655  0.55008  0.32861  1.0000
  O   O11       1.0  0.81152  0.27392  0.70339  1.0000
  O   O12       1.0  0.18848  0.72608  0.29662  1.0000
  O   O13       1.0  0.33788  0.56809  0.60317  1.0000
  O   O14       1.0  0.66213  0.43190  0.39684  1.0000
  O   O15       1.0  0.38922  0.36358  0.54183  1.0000
  O   O16       1.0  0.61078  0.63641  0.45818  1.0000
  O   O17       1.0  0.62580  0.17719  0.49873  1.0000
  O   O18       1.0  0.37419  0.82281  0.50126  1.0000
  O   O19       1.0  0.71520  0.14658  0.30203  1.0000
  O   O20       1.0  0.28479  0.85342  0.69796  1.0000
  O   O21       1.0  0.32555  0.98211  0.26743  1.0000
  O   O22       1.0  0.67445  0.01789  0.73256  1.0000
  O   O23       1.0  0.33749  0.13131  0.40797  1.0000
  O   O24       1.0  0.66249  0.86870  0.59202  1.0000
  O   O25       1.0  0.60591  0.29216  0.92845  1.0000
  O   O26       1.0  0.39410  0.70784  0.07156  1.0000
  O   O27       1.0  0.38384  0.13203  0.90747  1.0000
  O   O28       1.0  0.61615  0.86797  0.09253  1.0000
  O   O29       1.0  0.32512  0.13554  0.65965  1.0000
  O   O30       1.0  0.67490  0.86444  0.34034  1.0000
  O   O31       1.0  0.51036  0.87024  0.86262  1.0000
  O   O32       1.0  0.48963  0.12977  0.13738  1.0000
