data_image0
_chemical_formula_structural       Mn2H16C32N4O8F12
_chemical_formula_sum              "Mn2 H16 C32 N4 O8 F12"
_cell_length_a       7.42277
_cell_length_b       11.2613
_cell_length_c       11.2613
_cell_angle_alpha    61.7195
_cell_angle_beta     81.3514
_cell_angle_gamma    81.3518

_space_group_name_H-M_alt    "P 1"
_space_group_IT_number       1

loop_
  _space_group_symop_operation_xyz
  'x, y, z'

loop_
  _atom_site_type_symbol
  _atom_site_label
  _atom_site_symmetry_multiplicity
  _atom_site_fract_x
  _atom_site_fract_y
  _atom_site_fract_z
  _atom_site_occupancy
  Mn  Mn1       1.0  0.25000  0.12957  0.87043  1.0000
  Mn  Mn2       1.0  0.75000  0.87043  0.12957  1.0000
  H   H1        1.0  0.99553  0.34475  0.95196  1.0000
  H   H2        1.0  0.50448  0.04805  0.65525  1.0000
  H   H3        1.0  0.00446  0.65525  0.04804  1.0000
  H   H4        1.0  0.49553  0.95195  0.34475  1.0000
  H   H5        1.0  0.87839  0.59081  0.83695  1.0000
  H   H6        1.0  0.62161  0.16305  0.40919  1.0000
  H   H7        1.0  0.12160  0.40919  0.16305  1.0000
  H   H8        1.0  0.37840  0.83695  0.59081  1.0000
  H   H9        1.0  0.96963  0.72953  0.58965  1.0000
  H   H10       1.0  0.53036  0.41035  0.27047  1.0000
  H   H11       1.0  0.03037  0.27047  0.41035  1.0000
  H   H12       1.0  0.46964  0.58965  0.72953  1.0000
  H   H13       1.0  0.14449  0.73904  0.37391  1.0000
  H   H14       1.0  0.35549  0.62610  0.26096  1.0000
  H   H15       1.0  0.85550  0.26096  0.62609  1.0000
  H   H16       1.0  0.64450  0.37391  0.73904  1.0000
  C   C1        1.0  0.00438  0.04432  0.28664  1.0000
  C   C2        1.0  0.49561  0.71337  0.95568  1.0000
  C   C3        1.0  0.99563  0.95567  0.71337  1.0000
  C   C4        1.0  0.50437  0.28663  0.04432  1.0000
  C   C5        1.0  0.05778  0.01880  0.16061  1.0000
  C   C6        1.0  0.44221  0.83939  0.98119  1.0000
  C   C7        1.0  0.94222  0.98120  0.83938  1.0000
  C   C8        1.0  0.55778  0.16061  0.01880  1.0000
  C   C9        1.0  0.03157  0.40852  0.84451  1.0000
  C   C10       1.0  0.46843  0.15550  0.59148  1.0000
  C   C11       1.0  0.96843  0.59148  0.15549  1.0000
  C   C12       1.0  0.53157  0.84451  0.40852  1.0000
  C   C13       1.0  0.96724  0.54622  0.77958  1.0000
  C   C14       1.0  0.53277  0.22042  0.45378  1.0000
  C   C15       1.0  0.03276  0.45379  0.22042  1.0000
  C   C16       1.0  0.46724  0.77958  0.54621  1.0000
  C   C17       1.0  0.01750  0.62256  0.64306  1.0000
  C   C18       1.0  0.48250  0.35695  0.37744  1.0000
  C   C19       1.0  0.98250  0.37745  0.35695  1.0000
  C   C20       1.0  0.51750  0.64305  0.62256  1.0000
  C   C21       1.0  0.13253  0.56112  0.57184  1.0000
  C   C22       1.0  0.36746  0.42816  0.43888  1.0000
  C   C23       1.0  0.86747  0.43888  0.42816  1.0000
  C   C24       1.0  0.63254  0.57184  0.56112  1.0000
  C   C25       1.0  0.19112  0.42160  0.64614  1.0000
  C   C26       1.0  0.30888  0.35386  0.57840  1.0000
  C   C27       1.0  0.80888  0.57840  0.35386  1.0000
  C   C28       1.0  0.69113  0.64614  0.42160  1.0000
  C   C29       1.0  0.19262  0.63262  0.43085  1.0000
  C   C30       1.0  0.30737  0.56916  0.36739  1.0000
  C   C31       1.0  0.80738  0.36738  0.56915  1.0000
  C   C32       1.0  0.69263  0.43085  0.63262  1.0000
  N   N1        1.0  0.14018  0.34794  0.77994  1.0000
  N   N2        1.0  0.35982  0.22006  0.65206  1.0000
  N   N3        1.0  0.85981  0.65206  0.22006  1.0000
  N   N4        1.0  0.64018  0.77994  0.34794  1.0000
  O   O1        1.0  0.15030  0.10905  0.06678  1.0000
  O   O2        1.0  0.34969  0.93322  0.89095  1.0000
  O   O3        1.0  0.84970  0.89095  0.93322  1.0000
  O   O4        1.0  0.65031  0.06677  0.10905  1.0000
  O   O5        1.0  0.99108  0.08591  0.83355  1.0000
  O   O6        1.0  0.50893  0.16643  0.91409  1.0000
  O   O7        1.0  0.00892  0.91409  0.16643  1.0000
  O   O8        1.0  0.49108  0.83357  0.08591  1.0000
  F   F1        1.0  0.92075  0.17144  0.25156  1.0000
  F   F2        1.0  0.57925  0.74844  0.82856  1.0000
  F   F3        1.0  0.07928  0.82855  0.74846  1.0000
  F   F4        1.0  0.42074  0.25155  0.17145  1.0000
  F   F5        1.0  0.88962  0.95545  0.38281  1.0000
  F   F6        1.0  0.61037  0.61719  0.04454  1.0000
  F   F7        1.0  0.11039  0.04454  0.61719  1.0000
  F   F8        1.0  0.38961  0.38280  0.95546  1.0000
  F   F9        1.0  0.15686  0.03241  0.34797  1.0000
  F   F10       1.0  0.34313  0.65203  0.96759  1.0000
  F   F11       1.0  0.84316  0.96757  0.65203  1.0000
  F   F12       1.0  0.65685  0.34797  0.03242  1.0000
