data_image0
_chemical_formula_structural       Cu4H36C32I4N4O8
_chemical_formula_sum              "Cu4 H36 C32 I4 N4 O8"
_cell_length_a       4.03838
_cell_length_b       9.03001
_cell_length_c       27.2329
_cell_angle_alpha    89.9995
_cell_angle_beta     90.0006
_cell_angle_gamma    101.373

_space_group_name_H-M_alt    "P 1"
_space_group_IT_number       1

loop_
  _space_group_symop_operation_xyz
  'x, y, z'

loop_
  _atom_site_type_symbol
  _atom_site_label
  _atom_site_symmetry_multiplicity
  _atom_site_fract_x
  _atom_site_fract_y
  _atom_site_fract_z
  _atom_site_occupancy
  Cu  Cu1       1.0  0.71002  0.40794  0.00907  1.0000
  Cu  Cu2       1.0  0.78998  0.09206  0.50907  1.0000
  Cu  Cu3       1.0  0.28998  0.59206  0.99093  1.0000
  Cu  Cu4       1.0  0.21003  0.90794  0.49093  1.0000
  H   H1        1.0  0.50917  0.90172  0.09812  1.0000
  H   H2        1.0  0.99086  0.59828  0.59811  1.0000
  H   H3        1.0  0.49082  0.09828  0.90188  1.0000
  H   H4        1.0  0.00914  0.40172  0.40189  1.0000
  H   H5        1.0  0.74044  0.08880  0.03299  1.0000
  H   H6        1.0  0.75956  0.41120  0.53299  1.0000
  H   H7        1.0  0.25956  0.91120  0.96701  1.0000
  H   H8        1.0  0.24044  0.58881  0.46702  1.0000
  H   H9        1.0  0.41265  0.43539  0.10605  1.0000
  H   H10       1.0  0.08736  0.06461  0.60605  1.0000
  H   H11       1.0  0.58736  0.56462  0.89396  1.0000
  H   H12       1.0  0.91264  0.93539  0.39395  1.0000
  H   H13       1.0  0.17309  0.26251  0.17533  1.0000
  H   H14       1.0  0.32694  0.23750  0.67533  1.0000
  H   H15       1.0  0.82691  0.73749  0.82467  1.0000
  H   H16       1.0  0.67307  0.76250  0.32467  1.0000
  H   H17       1.0  0.79555  0.72533  0.21568  1.0000
  H   H18       1.0  0.70445  0.77468  0.71568  1.0000
  H   H19       1.0  0.20445  0.27467  0.78432  1.0000
  H   H20       1.0  0.29556  0.22532  0.28432  1.0000
  H   H21       1.0  0.18689  0.72932  0.24612  1.0000
  H   H22       1.0  0.31311  0.77067  0.74612  1.0000
  H   H23       1.0  0.81311  0.27068  0.75388  1.0000
  H   H24       1.0  0.68691  0.22933  0.25388  1.0000
  H   H25       1.0  0.95986  0.54491  0.15263  1.0000
  H   H26       1.0  0.54014  0.95510  0.65263  1.0000
  H   H27       1.0  0.04015  0.45509  0.84737  1.0000
  H   H28       1.0  0.45987  0.04490  0.34737  1.0000
  H   H29       1.0  0.94104  0.46961  0.21356  1.0000
  H   H30       1.0  0.55896  0.03039  0.71356  1.0000
  H   H31       1.0  0.05897  0.53039  0.78644  1.0000
  H   H32       1.0  0.44105  0.96961  0.28644  1.0000
  H   H33       1.0  0.33864  0.54413  0.18651  1.0000
  H   H34       1.0  0.16136  0.95587  0.68651  1.0000
  H   H35       1.0  0.66137  0.45588  0.81349  1.0000
  H   H36       1.0  0.83864  0.04413  0.31349  1.0000
  C   C1        1.0  0.16784  0.96527  0.18215  1.0000
  C   C2        1.0  0.33217  0.53473  0.68215  1.0000
  C   C3        1.0  0.83214  0.03473  0.81785  1.0000
  C   C4        1.0  0.66783  0.46526  0.31785  1.0000
  C   C5        1.0  0.32336  0.06873  0.14217  1.0000
  C   C6        1.0  0.17667  0.43128  0.64216  1.0000
  C   C7        1.0  0.67663  0.93127  0.85783  1.0000
  C   C8        1.0  0.82333  0.56872  0.35784  1.0000
  C   C9        1.0  0.48420  0.01907  0.10158  1.0000
  C   C10       1.0  0.01582  0.48094  0.60157  1.0000
  C   C11       1.0  0.51578  0.98093  0.89842  1.0000
  C   C12       1.0  0.98417  0.51906  0.39843  1.0000
  C   C13       1.0  0.61151  0.12241  0.06513  1.0000
  C   C14       1.0  0.88851  0.37759  0.56513  1.0000
  C   C15       1.0  0.38849  0.87758  0.93487  1.0000
  C   C16       1.0  0.11149  0.62242  0.43487  1.0000
  C   C17       1.0  0.43039  0.31642  0.10627  1.0000
  C   C18       1.0  0.06963  0.18358  0.60627  1.0000
  C   C19       1.0  0.56962  0.68358  0.89373  1.0000
  C   C20       1.0  0.93037  0.81642  0.39373  1.0000
  C   C21       1.0  0.29840  0.22082  0.14438  1.0000
  C   C22       1.0  0.20162  0.27918  0.64438  1.0000
  C   C23       1.0  0.70159  0.77917  0.85562  1.0000
  C   C24       1.0  0.79838  0.72082  0.35562  1.0000
  C   C25       1.0  0.05609  0.71029  0.21062  1.0000
  C   C26       1.0  0.44390  0.78971  0.71062  1.0000
  C   C27       1.0  0.94389  0.28971  0.78938  1.0000
  C   C28       1.0  0.55611  0.21029  0.28939  1.0000
  C   C29       1.0  0.07576  0.55818  0.18925  1.0000
  C   C30       1.0  0.42423  0.94182  0.68925  1.0000
  C   C31       1.0  0.92424  0.44182  0.81075  1.0000
  C   C32       1.0  0.57578  0.05817  0.31075  1.0000
  I   I1        1.0  0.15987  0.31795  0.95308  1.0000
  I   I2        1.0  0.34013  0.18205  0.45308  1.0000
  I   I3        1.0  0.84013  0.68205  0.04692  1.0000
  I   I4        1.0  0.65987  0.81795  0.54692  1.0000
  N   N1        1.0  0.58509  0.26889  0.06702  1.0000
  N   N2        1.0  0.91492  0.23112  0.56702  1.0000
  N   N3        1.0  0.41491  0.73112  0.93298  1.0000
  N   N4        1.0  0.08508  0.76889  0.43298  1.0000
  O   O1        1.0  0.22258  0.82438  0.17597  1.0000
  O   O2        1.0  0.27744  0.67563  0.67597  1.0000
  O   O3        1.0  0.77741  0.17563  0.82403  1.0000
  O   O4        1.0  0.72259  0.32437  0.32404  1.0000
  O   O5        1.0  0.00370  0.00436  0.21604  1.0000
  O   O6        1.0  0.49626  0.49564  0.71603  1.0000
  O   O7        1.0  0.99627  0.99563  0.78396  1.0000
  O   O8        1.0  0.50372  0.50435  0.28397  1.0000
