data_image0
_chemical_formula_structural       B10H10Pb2C2N2O18
_chemical_formula_sum              "B10 H10 Pb2 C2 N2 O18"
_cell_length_a       6.72655
_cell_length_b       6.78697
_cell_length_c       10.7209
_cell_angle_alpha    99.53
_cell_angle_beta     93.3306
_cell_angle_gamma    118.989

_space_group_name_H-M_alt    "P 1"
_space_group_IT_number       1

loop_
  _space_group_symop_operation_xyz
  'x, y, z'

loop_
  _atom_site_type_symbol
  _atom_site_label
  _atom_site_symmetry_multiplicity
  _atom_site_fract_x
  _atom_site_fract_y
  _atom_site_fract_z
  _atom_site_occupancy
  B   B1        1.0  0.19170  0.39420  0.69360  1.0000
  B   B2        1.0  0.80830  0.60580  0.30640  1.0000
  B   B3        1.0  0.31765  0.66336  0.90197  1.0000
  B   B4        1.0  0.68234  0.33664  0.09803  1.0000
  B   B5        1.0  0.38584  0.81896  0.70214  1.0000
  B   B6        1.0  0.61416  0.18104  0.29786  1.0000
  B   B7        1.0  0.75779  0.11307  0.64978  1.0000
  B   B8        1.0  0.24221  0.88693  0.35022  1.0000
  B   B9        1.0  0.44668  0.20213  0.66844  1.0000
  B   B10       1.0  0.55332  0.79787  0.33156  1.0000
  H   H1        1.0  0.40802  0.87032  0.07505  1.0000
  H   H2        1.0  0.59198  0.12968  0.92496  1.0000
  H   H3        1.0  0.69198  0.70392  0.85822  1.0000
  H   H4        1.0  0.30802  0.29608  0.14178  1.0000
  H   H5        1.0  0.87319  0.62141  0.89837  1.0000
  H   H6        1.0  0.12681  0.37859  0.10163  1.0000
  H   H7        1.0  0.98549  0.09803  0.88304  1.0000
  H   H8        1.0  0.01452  0.90197  0.11695  1.0000
  H   H9        1.0  0.19283  0.02305  0.92271  1.0000
  H   H10       1.0  0.80717  0.97695  0.07729  1.0000
  Pb  Pb1       1.0  0.86294  0.68682  0.61753  1.0000
  Pb  Pb2       1.0  0.13706  0.31318  0.38247  1.0000
  C   C1        1.0  0.01510  0.98079  0.92997  1.0000
  C   C2        1.0  0.98490  0.01921  0.07003  1.0000
  N   N1        1.0  0.85883  0.74186  0.85768  1.0000
  N   N2        1.0  0.14116  0.25814  0.14231  1.0000
  O   O1        1.0  0.30220  0.98123  0.67974  1.0000
  O   O2        1.0  0.69779  0.01876  0.32026  1.0000
  O   O3        1.0  0.60559  0.88768  0.65074  1.0000
  O   O4        1.0  0.39440  0.11232  0.34926  1.0000
  O   O5        1.0  0.67977  0.27083  0.66057  1.0000
  O   O6        1.0  0.32023  0.72917  0.33943  1.0000
  O   O7        1.0  0.39159  0.36698  0.65915  1.0000
  O   O8        1.0  0.60841  0.63302  0.34085  1.0000
  O   O9        1.0  0.97800  0.17386  0.63375  1.0000
  O   O10       1.0  0.02200  0.82614  0.36625  1.0000
  O   O11       1.0  0.20118  0.44143  0.83198  1.0000
  O   O12       1.0  0.79881  0.55857  0.16802  1.0000
  O   O13       1.0  0.43512  0.84685  0.84289  1.0000
  O   O14       1.0  0.56489  0.15315  0.15711  1.0000
  O   O15       1.0  0.20460  0.58683  0.63998  1.0000
  O   O16       1.0  0.79540  0.41317  0.36002  1.0000
  O   O17       1.0  0.32035  0.70320  0.03211  1.0000
  O   O18       1.0  0.67965  0.29681  0.96789  1.0000
