data_image0
_chemical_formula_structural       Li4B4H60C20N4O4
_chemical_formula_sum              "Li4 B4 H60 C20 N4 O4"
_cell_length_a       7.49741
_cell_length_b       10.9535
_cell_length_c       11.0483
_cell_angle_alpha    117.586
_cell_angle_beta     90
_cell_angle_gamma    90

_space_group_name_H-M_alt    "P 1"
_space_group_IT_number       1

loop_
  _space_group_symop_operation_xyz
  'x, y, z'

loop_
  _atom_site_type_symbol
  _atom_site_label
  _atom_site_symmetry_multiplicity
  _atom_site_fract_x
  _atom_site_fract_y
  _atom_site_fract_z
  _atom_site_occupancy
  Li  Li1       1.0  0.89572  0.63001  0.55204  1.0000
  Li  Li2       1.0  0.39572  0.36999  0.94796  1.0000
  Li  Li3       1.0  0.10428  0.36999  0.44796  1.0000
  Li  Li4       1.0  0.60428  0.63001  0.05204  1.0000
  B   B1        1.0  0.78828  0.39672  0.44778  1.0000
  B   B2        1.0  0.28828  0.60328  0.05222  1.0000
  B   B3        1.0  0.21172  0.60328  0.55222  1.0000
  B   B4        1.0  0.71172  0.39672  0.94778  1.0000
  H   H1        1.0  0.90399  0.61124  0.23552  1.0000
  H   H2        1.0  0.40399  0.38876  0.26448  1.0000
  H   H3        1.0  0.09601  0.38876  0.76448  1.0000
  H   H4        1.0  0.59601  0.61124  0.73552  1.0000
  H   H5        1.0  0.61310  0.56922  0.29176  1.0000
  H   H6        1.0  0.11310  0.43078  0.20824  1.0000
  H   H7        1.0  0.38690  0.43078  0.70824  1.0000
  H   H8        1.0  0.88690  0.56922  0.79176  1.0000
  H   H9        1.0  0.40113  0.75600  0.32055  1.0000
  H   H10       1.0  0.90113  0.24400  0.17945  1.0000
  H   H11       1.0  0.59887  0.24400  0.67945  1.0000
  H   H12       1.0  0.09887  0.75600  0.82055  1.0000
  H   H13       1.0  0.84658  0.92503  0.38924  1.0000
  H   H14       1.0  0.34658  0.07497  0.11076  1.0000
  H   H15       1.0  0.15342  0.07497  0.61076  1.0000
  H   H16       1.0  0.65342  0.92503  0.88924  1.0000
  H   H17       1.0  0.53737  0.88010  0.45427  1.0000
  H   H18       1.0  0.03737  0.11990  0.04573  1.0000
  H   H19       1.0  0.46263  0.11990  0.54573  1.0000
  H   H20       1.0  0.96263  0.88010  0.95427  1.0000
  H   H21       1.0  0.91310  0.82596  0.21509  1.0000
  H   H22       1.0  0.41310  0.17404  0.28491  1.0000
  H   H23       1.0  0.08690  0.17404  0.78491  1.0000
  H   H24       1.0  0.58691  0.82596  0.71509  1.0000
  H   H25       1.0  0.04047  0.73464  0.36796  1.0000
  H   H26       1.0  0.54047  0.26536  0.13204  1.0000
  H   H27       1.0  0.95953  0.26536  0.63204  1.0000
  H   H28       1.0  0.45953  0.73464  0.86796  1.0000
  H   H29       1.0  0.53984  0.65925  0.46502  1.0000
  H   H30       1.0  0.03984  0.34075  0.03498  1.0000
  H   H31       1.0  0.46017  0.34075  0.53498  1.0000
  H   H32       1.0  0.96016  0.65925  0.96502  1.0000
  H   H33       1.0  0.65309  0.92310  0.15517  1.0000
  H   H34       1.0  0.15309  0.07690  0.34483  1.0000
  H   H35       1.0  0.34691  0.07690  0.84483  1.0000
  H   H36       1.0  0.84691  0.92310  0.65517  1.0000
  H   H37       1.0  0.43630  0.89483  0.20358  1.0000
  H   H38       1.0  0.93630  0.10517  0.29642  1.0000
  H   H39       1.0  0.56370  0.10517  0.79642  1.0000
  H   H40       1.0  0.06370  0.89483  0.70358  1.0000
  H   H41       1.0  0.71907  0.49544  0.54415  1.0000
  H   H42       1.0  0.21907  0.50456  0.95585  1.0000
  H   H43       1.0  0.28093  0.50456  0.45585  1.0000
  H   H44       1.0  0.78093  0.49544  0.04415  1.0000
  H   H45       1.0  0.89484  0.43813  0.38980  1.0000
  H   H46       1.0  0.39484  0.56187  0.11020  1.0000
  H   H47       1.0  0.10516  0.56187  0.61020  1.0000
  H   H48       1.0  0.60516  0.43813  0.88980  1.0000
  H   H49       1.0  0.86466  0.32609  0.49130  1.0000
  H   H50       1.0  0.36466  0.67391  0.00870  1.0000
  H   H51       1.0  0.13534  0.67391  0.50870  1.0000
  H   H52       1.0  0.63534  0.32609  0.99130  1.0000
  H   H53       1.0  0.67468  0.32846  0.36554  1.0000
  H   H54       1.0  0.17469  0.67154  0.13446  1.0000
  H   H55       1.0  0.32531  0.67155  0.63446  1.0000
  H   H56       1.0  0.82531  0.32846  0.86554  1.0000
  H   H57       1.0  0.58673  0.01253  0.33075  1.0000
  H   H58       1.0  0.08673  0.98747  0.16925  1.0000
  H   H59       1.0  0.41327  0.98747  0.66925  1.0000
  H   H60       1.0  0.91327  0.01253  0.83075  1.0000
  C   C1        1.0  0.61542  0.66924  0.38503  1.0000
  C   C2        1.0  0.11543  0.33076  0.11497  1.0000
  C   C3        1.0  0.38458  0.33076  0.61497  1.0000
  C   C4        1.0  0.88458  0.66924  0.88503  1.0000
  C   C5        1.0  0.53894  0.78206  0.35759  1.0000
  C   C6        1.0  0.03894  0.21794  0.14241  1.0000
  C   C7        1.0  0.46106  0.21794  0.64241  1.0000
  C   C8        1.0  0.96106  0.78206  0.85759  1.0000
  C   C9        1.0  0.83279  0.82342  0.29717  1.0000
  C   C10       1.0  0.33279  0.17658  0.20283  1.0000
  C   C11       1.0  0.16721  0.17658  0.70283  1.0000
  C   C12       1.0  0.66721  0.82342  0.79717  1.0000
  C   C13       1.0  0.90396  0.71153  0.32830  1.0000
  C   C14       1.0  0.40396  0.28847  0.17170  1.0000
  C   C15       1.0  0.09604  0.28847  0.67170  1.0000
  C   C16       1.0  0.59604  0.71153  0.82830  1.0000
  C   C17       1.0  0.57651  0.91407  0.23533  1.0000
  C   C18       1.0  0.07651  0.08593  0.26467  1.0000
  C   C19       1.0  0.42349  0.08593  0.76467  1.0000
  C   C20       1.0  0.92349  0.91408  0.73533  1.0000
  N   N1        1.0  0.64505  0.79842  0.25360  1.0000
  N   N2        1.0  0.14505  0.20158  0.24641  1.0000
  N   N3        1.0  0.35495  0.20158  0.74641  1.0000
  N   N4        1.0  0.85495  0.79842  0.75359  1.0000
  O   O1        1.0  0.79732  0.70149  0.43196  1.0000
  O   O2        1.0  0.29732  0.29851  0.06804  1.0000
  O   O3        1.0  0.20268  0.29851  0.56804  1.0000
  O   O4        1.0  0.70268  0.70149  0.93196  1.0000
