data_image0
_chemical_formula_structural       FeH18PdC26N10
_chemical_formula_sum              "Fe1 H18 Pd1 C26 N10"
_cell_length_a       6.85537
_cell_length_b       7.24231
_cell_length_c       12.8465
_cell_angle_alpha    77.9467
_cell_angle_beta     78.4879
_cell_angle_gamma    89.9347

_space_group_name_H-M_alt    "P 1"
_space_group_IT_number       1

loop_
  _space_group_symop_operation_xyz
  'x, y, z'

loop_
  _atom_site_type_symbol
  _atom_site_label
  _atom_site_symmetry_multiplicity
  _atom_site_fract_x
  _atom_site_fract_y
  _atom_site_fract_z
  _atom_site_occupancy
  Fe  Fe1       1.0  0.50000  0.50001  0.00000  1.0000
  H   H1        1.0  0.91195  0.50464  0.87591  1.0000
  H   H2        1.0  0.08805  0.49536  0.12409  1.0000
  H   H3        1.0  0.36234  0.62427  0.79444  1.0000
  H   H4        1.0  0.63766  0.37573  0.20556  1.0000
  H   H5        1.0  0.08108  0.54951  0.68104  1.0000
  H   H6        1.0  0.91892  0.45049  0.31895  1.0000
  H   H7        1.0  0.87388  0.63595  0.53658  1.0000
  H   H8        1.0  0.12611  0.36404  0.46342  1.0000
  H   H9        1.0  0.66929  0.81607  0.27758  1.0000
  H   H10       1.0  0.33070  0.18392  0.72243  1.0000
  H   H11       1.0  0.16330  0.82195  0.53514  1.0000
  H   H12       1.0  0.83669  0.17805  0.46486  1.0000
  H   H13       1.0  0.45894  0.92509  0.13966  1.0000
  H   H14       1.0  0.54106  0.07490  0.86034  1.0000
  H   H15       1.0  0.94999  0.92610  0.39832  1.0000
  H   H16       1.0  0.05000  0.07391  0.60168  1.0000
  H   H17       1.0  0.10132  0.98125  0.20045  1.0000
  H   H18       1.0  0.89868  0.01876  0.79955  1.0000
  Pd  Pd1       1.0  0.00000  0.00001  1.00000  1.0000
  C   C1        1.0  0.21303  0.81998  0.97985  1.0000
  C   C2        1.0  0.78698  0.18003  0.02015  1.0000
  C   C3        1.0  0.80346  0.78985  0.02054  1.0000
  C   C4        1.0  0.19655  0.21017  0.97946  1.0000
  C   C5        1.0  0.82824  0.54194  0.81163  1.0000
  C   C6        1.0  0.17176  0.45807  0.18837  1.0000
  C   C7        1.0  0.52091  0.60846  0.76695  1.0000
  C   C8        1.0  0.47909  0.39153  0.23305  1.0000
  C   C9        1.0  0.92099  0.56732  0.70246  1.0000
  C   C10       1.0  0.07901  0.43268  0.29754  1.0000
  C   C11       1.0  0.60491  0.64207  0.65586  1.0000
  C   C12       1.0  0.39508  0.35792  0.34414  1.0000
  C   C13       1.0  0.80889  0.61616  0.62282  1.0000
  C   C14       1.0  0.19110  0.38383  0.37718  1.0000
  C   C15       1.0  0.42713  0.81104  0.41412  1.0000
  C   C16       1.0  0.57287  0.18896  0.58588  1.0000
  C   C17       1.0  0.51187  0.84216  0.30259  1.0000
  C   C18       1.0  0.48813  0.15784  0.69741  1.0000
  C   C19       1.0  0.22449  0.84368  0.44843  1.0000
  C   C20       1.0  0.77551  0.15631  0.55157  1.0000
  C   C21       1.0  0.39408  0.90238  0.22610  1.0000
  C   C22       1.0  0.60591  0.09762  0.77390  1.0000
  C   C23       1.0  0.10802  0.90364  0.37188  1.0000
  C   C24       1.0  0.89197  0.09636  0.62812  1.0000
  C   C25       1.0  0.19267  0.93302  0.26069  1.0000
  C   C26       1.0  0.80733  0.06697  0.73931  1.0000
  N   N1        1.0  0.32917  0.70143  0.97879  1.0000
  N   N2        1.0  0.67084  0.29859  0.02121  1.0000
  N   N3        1.0  0.68789  0.66972  0.02236  1.0000
  N   N4        1.0  0.31213  0.33030  0.97763  1.0000
  N   N5        1.0  0.62974  0.55760  0.84379  1.0000
  N   N6        1.0  0.37026  0.44240  0.15621  1.0000
  N   N7        1.0  0.47200  0.69906  0.58539  1.0000
  N   N8        1.0  0.52800  0.30093  0.41461  1.0000
  N   N9        1.0  0.55640  0.74948  0.48595  1.0000
  N   N10       1.0  0.44359  0.25051  0.51405  1.0000
