data_image0
_chemical_formula_structural       Zn5H40C32O18
_chemical_formula_sum              "Zn5 H40 C32 O18"
_cell_length_a       8.98272
_cell_length_b       10.5175
_cell_length_c       11.2224
_cell_angle_alpha    66.4866
_cell_angle_beta     73.3433
_cell_angle_gamma    73.9778

_space_group_name_H-M_alt    "P 1"
_space_group_IT_number       1

loop_
  _space_group_symop_operation_xyz
  'x, y, z'

loop_
  _atom_site_type_symbol
  _atom_site_label
  _atom_site_symmetry_multiplicity
  _atom_site_fract_x
  _atom_site_fract_y
  _atom_site_fract_z
  _atom_site_occupancy
  Zn  Zn1       1.0  0.00001  0.00000  0.50000  1.0000
  Zn  Zn2       1.0  0.22594  0.85204  0.71595  1.0000
  Zn  Zn3       1.0  0.77405  0.14797  0.28405  1.0000
  Zn  Zn4       1.0  0.36254  0.94602  0.40349  1.0000
  Zn  Zn5       1.0  0.63746  0.05398  0.59651  1.0000
  H   H1        1.0  0.06301  0.59134  0.43600  1.0000
  H   H2        1.0  0.93700  0.40867  0.56401  1.0000
  H   H3        1.0  0.42447  0.54868  0.35833  1.0000
  H   H4        1.0  0.57553  0.45131  0.64168  1.0000
  H   H5        1.0  0.31187  0.46330  0.51510  1.0000
  H   H6        1.0  0.68813  0.53669  0.48490  1.0000
  H   H7        1.0  0.21655  0.33302  0.41994  1.0000
  H   H8        1.0  0.78346  0.66698  0.58005  1.0000
  H   H9        1.0  0.30406  0.35844  0.18308  1.0000
  H   H10       1.0  0.69594  0.64157  0.81692  1.0000
  H   H11       1.0  0.41541  0.48606  0.15328  1.0000
  H   H12       1.0  0.58458  0.51395  0.84672  1.0000
  H   H13       1.0  0.15977  0.60424  0.07920  1.0000
  H   H14       1.0  0.84023  0.39576  0.92081  1.0000
  H   H15       1.0  0.05343  0.51912  0.23855  1.0000
  H   H16       1.0  0.94658  0.48088  0.76145  1.0000
  H   H17       1.0  0.27099  0.72963  0.16950  1.0000
  H   H18       1.0  0.72901  0.27037  0.83050  1.0000
  H   H19       1.0  0.06193  0.76653  0.20949  1.0000
  H   H20       1.0  0.93807  0.23347  0.79052  1.0000
  H   H21       1.0  0.34154  0.17632  0.09455  1.0000
  H   H22       1.0  0.65846  0.82369  0.90545  1.0000
  H   H23       1.0  0.26709  0.97786  0.07771  1.0000
  H   H24       1.0  0.73291  0.02214  0.92229  1.0000
  H   H25       1.0  0.11561  0.09019  0.99226  1.0000
  H   H26       1.0  0.88439  0.90981  0.00774  1.0000
  H   H27       1.0  0.47113  0.09234  0.88509  1.0000
  H   H28       1.0  0.52886  0.90766  0.11491  1.0000
  H   H29       1.0  0.38894  0.26891  0.67911  1.0000
  H   H30       1.0  0.61105  0.73109  0.32089  1.0000
  H   H31       1.0  0.18765  0.26844  0.75758  1.0000
  H   H32       1.0  0.81234  0.73156  0.24243  1.0000
  H   H33       1.0  0.28117  0.47136  0.76274  1.0000
  H   H34       1.0  0.71882  0.52865  0.23726  1.0000
  H   H35       1.0  0.43139  0.35117  0.84430  1.0000
  H   H36       1.0  0.56860  0.64884  0.15569  1.0000
  H   H37       1.0  0.20225  0.42311  0.00571  1.0000
  H   H38       1.0  0.79775  0.57690  0.99428  1.0000
  H   H39       1.0  0.07393  0.36844  0.95121  1.0000
  H   H40       1.0  0.92607  0.63156  0.04880  1.0000
  C   C1        1.0  0.18867  0.74908  0.41126  1.0000
  C   C2        1.0  0.81134  0.25092  0.58874  1.0000
  C   C3        1.0  0.17419  0.62668  0.37584  1.0000
  C   C4        1.0  0.82582  0.37331  0.62415  1.0000
  C   C5        1.0  0.31515  0.50596  0.40779  1.0000
  C   C6        1.0  0.68485  0.49403  0.59221  1.0000
  C   C7        1.0  0.31628  0.38736  0.35941  1.0000
  C   C8        1.0  0.68372  0.61264  0.64058  1.0000
  C   C9        1.0  0.30671  0.44534  0.21279  1.0000
  C   C10       1.0  0.69329  0.55466  0.78721  1.0000
  C   C11       1.0  0.16258  0.56221  0.18550  1.0000
  C   C12       1.0  0.83743  0.43779  0.81451  1.0000
  C   C13       1.0  0.16603  0.68217  0.22835  1.0000
  C   C14       1.0  0.83398  0.31783  0.77166  1.0000
  C   C15       1.0  0.46772  0.27921  0.38484  1.0000
  C   C16       1.0  0.53228  0.72080  0.61515  1.0000
  C   C17       1.0  0.09896  0.17148  0.18922  1.0000
  C   C18       1.0  0.90105  0.82853  0.81078  1.0000
  C   C19       1.0  0.22845  0.19630  0.06448  1.0000
  C   C20       1.0  0.77155  0.80370  0.93553  1.0000
  C   C21       1.0  0.23418  0.08364  0.00634  1.0000
  C   C22       1.0  0.76582  0.91636  0.99366  1.0000
  C   C23       1.0  0.35011  0.10456  0.87258  1.0000
  C   C24       1.0  0.64989  0.89544  0.12741  1.0000
  C   C25       1.0  0.30674  0.25513  0.77478  1.0000
  C   C26       1.0  0.69325  0.74488  0.22522  1.0000
  C   C27       1.0  0.31011  0.36346  0.83204  1.0000
  C   C28       1.0  0.68988  0.63654  0.16795  1.0000
  C   C29       1.0  0.19575  0.34606  0.96503  1.0000
  C   C30       1.0  0.80425  0.65394  0.03496  1.0000
  C   C31       1.0  0.35404  0.99762  0.81183  1.0000
  C   C32       1.0  0.64596  0.00238  0.18817  1.0000
  O   O1        1.0  0.31851  0.79412  0.35970  1.0000
  O   O2        1.0  0.68151  0.20586  0.64030  1.0000
  O   O3        1.0  0.06916  0.79461  0.48592  1.0000
  O   O4        1.0  0.93083  0.20539  0.51408  1.0000
  O   O5        1.0  0.13671  0.08350  0.29788  1.0000
  O   O6        1.0  0.86329  0.91650  0.70212  1.0000
  O   O7        1.0  0.95881  0.23530  0.17468  1.0000
  O   O8        1.0  0.04119  0.76470  0.82531  1.0000
  O   O9        1.0  0.48161  0.95419  0.74043  1.0000
  O   O10       1.0  0.51839  0.04581  0.25956  1.0000
  O   O11       1.0  0.45824  0.17668  0.49430  1.0000
  O   O12       1.0  0.54176  0.82332  0.50571  1.0000
  O   O13       1.0  0.22710  0.95312  0.83364  1.0000
  O   O14       1.0  0.77290  0.04687  0.16636  1.0000
  O   O15       1.0  0.59218  0.30233  0.29532  1.0000
  O   O16       1.0  0.40782  0.69766  0.70468  1.0000
  O   O17       1.0  0.19584  0.98164  0.54371  1.0000
  O   O18       1.0  0.80417  0.01835  0.45630  1.0000
