data_image0
_chemical_formula_structural       Zn4H40C32O16
_chemical_formula_sum              "Zn4 H40 C32 O16"
_cell_length_a       6.07351
_cell_length_b       8.39434
_cell_length_c       16.1908
_cell_angle_alpha    102.441
_cell_angle_beta     89.9999
_cell_angle_gamma    89.9998

_space_group_name_H-M_alt    "P 1"
_space_group_IT_number       1

loop_
  _space_group_symop_operation_xyz
  'x, y, z'

loop_
  _atom_site_type_symbol
  _atom_site_label
  _atom_site_symmetry_multiplicity
  _atom_site_fract_x
  _atom_site_fract_y
  _atom_site_fract_z
  _atom_site_occupancy
  Zn  Zn1       1.0  0.75251  0.90917  0.98785  1.0000
  Zn  Zn2       1.0  0.25255  0.09084  0.51214  1.0000
  Zn  Zn3       1.0  0.24746  0.09085  0.01214  1.0000
  Zn  Zn4       1.0  0.74748  0.90916  0.48785  1.0000
  H   H1        1.0  0.09987  0.19637  0.28651  1.0000
  H   H2        1.0  0.59987  0.80362  0.21348  1.0000
  H   H3        1.0  0.90013  0.80362  0.71348  1.0000
  H   H4        1.0  0.40013  0.19637  0.78652  1.0000
  H   H5        1.0  0.15897  0.36378  0.24011  1.0000
  H   H6        1.0  0.65898  0.63622  0.25987  1.0000
  H   H7        1.0  0.84102  0.63621  0.75988  1.0000
  H   H8        1.0  0.34102  0.36377  0.74012  1.0000
  H   H9        1.0  0.11415  0.45610  0.39761  1.0000
  H   H10       1.0  0.61413  0.54389  0.10238  1.0000
  H   H11       1.0  0.88586  0.54389  0.60238  1.0000
  H   H12       1.0  0.38585  0.45611  0.89761  1.0000
  H   H13       1.0  0.90892  0.54276  0.34360  1.0000
  H   H14       1.0  0.40890  0.45725  0.15639  1.0000
  H   H15       1.0  0.09110  0.45724  0.65640  1.0000
  H   H16       1.0  0.59108  0.54276  0.84360  1.0000
  H   H17       1.0  0.46214  0.24731  0.37809  1.0000
  H   H18       1.0  0.96213  0.75271  0.12193  1.0000
  H   H19       1.0  0.53787  0.75269  0.62192  1.0000
  H   H20       1.0  0.03785  0.24731  0.87809  1.0000
  H   H21       1.0  0.51136  0.42073  0.33540  1.0000
  H   H22       1.0  0.01134  0.57928  0.16461  1.0000
  H   H23       1.0  0.48865  0.57926  0.66461  1.0000
  H   H24       1.0  0.98865  0.42073  0.83540  1.0000
  H   H25       1.0  0.70044  0.07696  0.27097  1.0000
  H   H26       1.0  0.20045  0.92305  0.22904  1.0000
  H   H27       1.0  0.29956  0.92303  0.72903  1.0000
  H   H28       1.0  0.79956  0.07696  0.77097  1.0000
  H   H29       1.0  0.49790  0.17186  0.22038  1.0000
  H   H30       1.0  0.99792  0.82814  0.27963  1.0000
  H   H31       1.0  0.50209  0.82814  0.77962  1.0000
  H   H32       1.0  0.00210  0.17185  0.72038  1.0000
  H   H33       1.0  0.73876  0.45257  0.45836  1.0000
  H   H34       1.0  0.23872  0.54744  0.04165  1.0000
  H   H35       1.0  0.26126  0.54742  0.54164  1.0000
  H   H36       1.0  0.76125  0.45258  0.95836  1.0000
  H   H37       1.0  0.76894  0.38609  0.20251  1.0000
  H   H38       1.0  0.26897  0.61391  0.29749  1.0000
  H   H39       1.0  0.23105  0.61390  0.79749  1.0000
  H   H40       1.0  0.73105  0.38609  0.70251  1.0000
  C   C1        1.0  0.89025  0.16713  0.13044  1.0000
  C   C2        1.0  0.39029  0.83285  0.36956  1.0000
  C   C3        1.0  0.10972  0.83286  0.86955  1.0000
  C   C4        1.0  0.60973  0.16714  0.63045  1.0000
  C   C5        1.0  0.82753  0.26988  0.21611  1.0000
  C   C6        1.0  0.32754  0.73012  0.28388  1.0000
  C   C7        1.0  0.17247  0.73012  0.78389  1.0000
  C   C8        1.0  0.67246  0.26987  0.71611  1.0000
  C   C9        1.0  0.03097  0.31008  0.27353  1.0000
  C   C10       1.0  0.53097  0.68992  0.22647  1.0000
  C   C11       1.0  0.96903  0.68992  0.72647  1.0000
  C   C12       1.0  0.46903  0.31008  0.77353  1.0000
  C   C13       1.0  0.96976  0.42683  0.35638  1.0000
  C   C14       1.0  0.46975  0.57317  0.14361  1.0000
  C   C15       1.0  0.03024  0.57317  0.64362  1.0000
  C   C16       1.0  0.53024  0.42684  0.85639  1.0000
  C   C17       1.0  0.78639  0.35618  0.40354  1.0000
  C   C18       1.0  0.28637  0.64383  0.09646  1.0000
  C   C19       1.0  0.21362  0.64382  0.59646  1.0000
  C   C20       1.0  0.71362  0.35618  0.90354  1.0000
  C   C21       1.0  0.58621  0.30726  0.34597  1.0000
  C   C22       1.0  0.08619  0.69276  0.15403  1.0000
  C   C23       1.0  0.41381  0.69274  0.65403  1.0000
  C   C24       1.0  0.91380  0.30725  0.84597  1.0000
  C   C25       1.0  0.64477  0.19579  0.26079  1.0000
  C   C26       1.0  0.14478  0.80422  0.23922  1.0000
  C   C27       1.0  0.35523  0.80421  0.73921  1.0000
  C   C28       1.0  0.85523  0.19579  0.76079  1.0000
  C   C29       1.0  0.87694  0.21874  0.44146  1.0000
  C   C30       1.0  0.37688  0.78129  0.05855  1.0000
  C   C31       1.0  0.12307  0.78125  0.55854  1.0000
  C   C32       1.0  0.62304  0.21875  0.94146  1.0000
  O   O1        1.0  0.03571  0.22658  0.08819  1.0000
  O   O2        1.0  0.53573  0.77342  0.41180  1.0000
  O   O3        1.0  0.96428  0.77343  0.91181  1.0000
  O   O4        1.0  0.46429  0.22657  0.58819  1.0000
  O   O5        1.0  0.79478  0.03024  0.10555  1.0000
  O   O6        1.0  0.29480  0.96975  0.39446  1.0000
  O   O7        1.0  0.20523  0.96977  0.89446  1.0000
  O   O8        1.0  0.70523  0.03022  0.60554  1.0000
  O   O9        1.0  0.04044  0.25386  0.49205  1.0000
  O   O10       1.0  0.54043  0.74616  0.00794  1.0000
  O   O11       1.0  0.95958  0.74615  0.50794  1.0000
  O   O12       1.0  0.45958  0.25386  0.99205  1.0000
  O   O13       1.0  0.78709  0.07871  0.42164  1.0000
  O   O14       1.0  0.28705  0.92129  0.07835  1.0000
  O   O15       1.0  0.21294  0.92129  0.57835  1.0000
  O   O16       1.0  0.71292  0.07871  0.92165  1.0000
