data_image0
_chemical_formula_structural       Dy2H36C36N8O16
_chemical_formula_sum              "Dy2 H36 C36 N8 O16"
_cell_length_a       9.86552
_cell_length_b       10.3071
_cell_length_c       11.0166
_cell_angle_alpha    77.345
_cell_angle_beta     76.4891
_cell_angle_gamma    65.7279

_space_group_name_H-M_alt    "P 1"
_space_group_IT_number       1

loop_
  _space_group_symop_operation_xyz
  'x, y, z'

loop_
  _atom_site_type_symbol
  _atom_site_label
  _atom_site_symmetry_multiplicity
  _atom_site_fract_x
  _atom_site_fract_y
  _atom_site_fract_z
  _atom_site_occupancy
  Dy  Dy1       1.0  0.05553  0.77198  0.17616  1.0000
  Dy  Dy2       1.0  0.94447  0.22802  0.82384  1.0000
  H   H1        1.0  0.96672  0.38117  0.06246  1.0000
  H   H2        1.0  0.03328  0.61883  0.93754  1.0000
  H   H3        1.0  0.07798  0.46218  0.36462  1.0000
  H   H4        1.0  0.92202  0.53783  0.63537  1.0000
  H   H5        1.0  0.28341  0.85295  0.74867  1.0000
  H   H6        1.0  0.71659  0.14705  0.25133  1.0000
  H   H7        1.0  0.44797  0.63335  0.06588  1.0000
  H   H8        1.0  0.55203  0.36665  0.93412  1.0000
  H   H9        1.0  0.70598  0.08245  0.49466  1.0000
  H   H10       1.0  0.29402  0.91754  0.50534  1.0000
  H   H11       1.0  0.55142  0.79815  0.38526  1.0000
  H   H12       1.0  0.44858  0.20184  0.61474  1.0000
  H   H13       1.0  0.56592  0.58968  0.27455  1.0000
  H   H14       1.0  0.43408  0.41033  0.72545  1.0000
  H   H15       1.0  0.24342  0.49627  0.58151  1.0000
  H   H16       1.0  0.75658  0.50373  0.41849  1.0000
  H   H17       1.0  0.39275  0.87162  0.19116  1.0000
  H   H18       1.0  0.60725  0.12838  0.80885  1.0000
  H   H19       1.0  0.33690  0.15149  0.83965  1.0000
  H   H20       1.0  0.66310  0.84851  0.16035  1.0000
  H   H21       1.0  0.98195  0.25331  0.45020  1.0000
  H   H22       1.0  0.01805  0.74669  0.54980  1.0000
  H   H23       1.0  0.15921  0.18460  0.34961  1.0000
  H   H24       1.0  0.84079  0.81540  0.65039  1.0000
  H   H25       1.0  0.00644  0.14852  0.22706  1.0000
  H   H26       1.0  0.99356  0.85148  0.77294  1.0000
  H   H27       1.0  0.84164  0.29249  0.28341  1.0000
  H   H28       1.0  0.15836  0.70751  0.71659  1.0000
  H   H29       1.0  0.53445  0.86010  0.73385  1.0000
  H   H30       1.0  0.46555  0.13991  0.26615  1.0000
  H   H31       1.0  0.58148  0.69288  0.68215  1.0000
  H   H32       1.0  0.41852  0.30712  0.31785  1.0000
  H   H33       1.0  0.67327  0.56739  0.87260  1.0000
  H   H34       1.0  0.32674  0.43261  0.12740  1.0000
  H   H35       1.0  0.63820  0.73486  0.91880  1.0000
  H   H36       1.0  0.36180  0.26514  0.08120  1.0000
  C   C1        1.0  0.64388  0.93315  0.43260  1.0000
  C   C2        1.0  0.35612  0.06684  0.56741  1.0000
  C   C3        1.0  0.61518  0.04675  0.49785  1.0000
  C   C4        1.0  0.38482  0.95325  0.50215  1.0000
  C   C5        1.0  0.52775  0.88679  0.43565  1.0000
  C   C6        1.0  0.47224  0.11321  0.56435  1.0000
  C   C7        1.0  0.79434  0.86750  0.35368  1.0000
  C   C8        1.0  0.20566  0.13250  0.64632  1.0000
  C   C9        1.0  0.39282  0.54968  0.41956  1.0000
  C   C10       1.0  0.60718  0.45033  0.58044  1.0000
  C   C11       1.0  0.53812  0.54966  0.37341  1.0000
  C   C12       1.0  0.46188  0.45034  0.62659  1.0000
  C   C13       1.0  0.35519  0.49919  0.54676  1.0000
  C   C14       1.0  0.64481  0.50082  0.45324  1.0000
  C   C15       1.0  0.27793  0.60691  0.33387  1.0000
  C   C16       1.0  0.72207  0.39309  0.66613  1.0000
  C   C17       1.0  0.35070  0.01300  0.01750  1.0000
  C   C18       1.0  0.64930  0.98700  0.98250  1.0000
  C   C19       1.0  0.44117  0.92803  0.10866  1.0000
  C   C20       1.0  0.55883  0.07197  0.89135  1.0000
  C   C21       1.0  0.40979  0.08520  0.90881  1.0000
  C   C22       1.0  0.59021  0.91479  0.09119  1.0000
  C   C23       1.0  0.19234  0.02263  0.03363  1.0000
  C   C24       1.0  0.80766  0.97737  0.96637  1.0000
  C   C25       1.0  0.03049  0.45486  0.19298  1.0000
  C   C26       1.0  0.96951  0.54514  0.80702  1.0000
  C   C27       1.0  0.04286  0.26544  0.35438  1.0000
  C   C28       1.0  0.95715  0.73456  0.64562  1.0000
  C   C29       1.0  0.96446  0.25641  0.25282  1.0000
  C   C30       1.0  0.03554  0.74359  0.74718  1.0000
  C   C31       1.0  0.32924  0.72667  0.91814  1.0000
  C   C32       1.0  0.67076  0.27333  0.08186  1.0000
  C   C33       1.0  0.52379  0.75528  0.76106  1.0000
  C   C34       1.0  0.47621  0.24472  0.23894  1.0000
  C   C35       1.0  0.58788  0.67513  0.88457  1.0000
  C   C36       1.0  0.41212  0.32487  0.11543  1.0000
  N   N1        1.0  0.00037  0.35893  0.14828  1.0000
  N   N2        1.0  0.99963  0.64107  0.85172  1.0000
  N   N3        1.0  0.04320  0.41051  0.31661  1.0000
  N   N4        1.0  0.95680  0.58949  0.68339  1.0000
  N   N5        1.0  0.36538  0.77180  0.79295  1.0000
  N   N6        1.0  0.63462  0.22820  0.20705  1.0000
  N   N7        1.0  0.45515  0.66639  0.97116  1.0000
  N   N8        1.0  0.54485  0.33361  0.02883  1.0000
  O   O1        1.0  0.82968  0.74830  0.31505  1.0000
  O   O2        1.0  0.17032  0.25169  0.68495  1.0000
  O   O3        1.0  0.88260  0.93704  0.32169  1.0000
  O   O4        1.0  0.11740  0.06296  0.67831  1.0000
  O   O5        1.0  0.31637  0.64604  0.21692  1.0000
  O   O6        1.0  0.68363  0.35396  0.78308  1.0000
  O   O7        1.0  0.14089  0.62130  0.37667  1.0000
  O   O8        1.0  0.85911  0.37870  0.62333  1.0000
  O   O9        1.0  0.14328  0.95274  0.13168  1.0000
  O   O10       1.0  0.85672  0.04726  0.86832  1.0000
  O   O11       1.0  0.11666  0.09913  0.94740  1.0000
  O   O12       1.0  0.88334  0.90087  0.05260  1.0000
  O   O13       1.0  0.04760  0.56691  0.12813  1.0000
  O   O14       1.0  0.95240  0.43309  0.87187  1.0000
  O   O15       1.0  0.19829  0.73805  0.97312  1.0000
  O   O16       1.0  0.80171  0.26195  0.02688  1.0000
