data_image0
_chemical_formula_structural       Ho2H36C36N8O16
_chemical_formula_sum              "Ho2 H36 C36 N8 O16"
_cell_length_a       9.84785
_cell_length_b       10.2877
_cell_length_c       11.0103
_cell_angle_alpha    77.322
_cell_angle_beta     76.5135
_cell_angle_gamma    65.6394

_space_group_name_H-M_alt    "P 1"
_space_group_IT_number       1

loop_
  _space_group_symop_operation_xyz
  'x, y, z'

loop_
  _atom_site_type_symbol
  _atom_site_label
  _atom_site_symmetry_multiplicity
  _atom_site_fract_x
  _atom_site_fract_y
  _atom_site_fract_z
  _atom_site_occupancy
  Ho  Ho1       1.0  0.05547  0.77207  0.17559  1.0000
  Ho  Ho2       1.0  0.94453  0.22793  0.82441  1.0000
  H   H1        1.0  0.33616  0.15153  0.83949  1.0000
  H   H2        1.0  0.66384  0.84847  0.16051  1.0000
  H   H3        1.0  0.39310  0.87133  0.19152  1.0000
  H   H4        1.0  0.60690  0.12867  0.80848  1.0000
  H   H5        1.0  0.56565  0.58968  0.27436  1.0000
  H   H6        1.0  0.43434  0.41032  0.72565  1.0000
  H   H7        1.0  0.24305  0.49629  0.58183  1.0000
  H   H8        1.0  0.75694  0.50371  0.41818  1.0000
  H   H9        1.0  0.70638  0.08272  0.49391  1.0000
  H   H10       1.0  0.29362  0.91728  0.50609  1.0000
  H   H11       1.0  0.55110  0.79779  0.38531  1.0000
  H   H12       1.0  0.44890  0.20221  0.61469  1.0000
  H   H13       1.0  0.53645  0.85934  0.73250  1.0000
  H   H14       1.0  0.46356  0.14066  0.26750  1.0000
  H   H15       1.0  0.58220  0.69050  0.68377  1.0000
  H   H16       1.0  0.41780  0.30950  0.31622  1.0000
  H   H17       1.0  0.67555  0.56890  0.87471  1.0000
  H   H18       1.0  0.32445  0.43110  0.12529  1.0000
  H   H19       1.0  0.63636  0.73816  0.92027  1.0000
  H   H20       1.0  0.36364  0.26184  0.07973  1.0000
  H   H21       1.0  0.98283  0.25314  0.44997  1.0000
  H   H22       1.0  0.01717  0.74686  0.55003  1.0000
  H   H23       1.0  0.16030  0.18468  0.34899  1.0000
  H   H24       1.0  0.83970  0.81532  0.65100  1.0000
  H   H25       1.0  0.00707  0.14824  0.22679  1.0000
  H   H26       1.0  0.99293  0.85176  0.77321  1.0000
  H   H27       1.0  0.84175  0.29245  0.28316  1.0000
  H   H28       1.0  0.15825  0.70755  0.71685  1.0000
  H   H29       1.0  0.44815  0.63306  0.06659  1.0000
  H   H30       1.0  0.55186  0.36694  0.93341  1.0000
  H   H31       1.0  0.28344  0.85444  0.74910  1.0000
  H   H32       1.0  0.71656  0.14556  0.25090  1.0000
  H   H33       1.0  0.07751  0.46325  0.36433  1.0000
  H   H34       1.0  0.92249  0.53675  0.63567  1.0000
  H   H35       1.0  0.96696  0.38129  0.06187  1.0000
  H   H36       1.0  0.03304  0.61871  0.93813  1.0000
  C   C1        1.0  0.35046  0.01279  0.01761  1.0000
  C   C2        1.0  0.64954  0.98721  0.98239  1.0000
  C   C3        1.0  0.40934  0.08523  0.90874  1.0000
  C   C4        1.0  0.59066  0.91477  0.09126  1.0000
  C   C5        1.0  0.44136  0.92794  0.10886  1.0000
  C   C6        1.0  0.55864  0.07206  0.89114  1.0000
  C   C7        1.0  0.19195  0.02220  0.03368  1.0000
  C   C8        1.0  0.80805  0.97781  0.96632  1.0000
  C   C9        1.0  0.39240  0.54978  0.41957  1.0000
  C   C10       1.0  0.60759  0.45021  0.58044  1.0000
  C   C11       1.0  0.53799  0.54966  0.37332  1.0000
  C   C12       1.0  0.46201  0.45034  0.62669  1.0000
  C   C13       1.0  0.35494  0.49929  0.54689  1.0000
  C   C14       1.0  0.64505  0.50071  0.45312  1.0000
  C   C15       1.0  0.64404  0.93304  0.43216  1.0000
  C   C16       1.0  0.35596  0.06696  0.56784  1.0000
  C   C17       1.0  0.61545  0.04685  0.49739  1.0000
  C   C18       1.0  0.38455  0.95315  0.50261  1.0000
  C   C19       1.0  0.52761  0.88659  0.43568  1.0000
  C   C20       1.0  0.47239  0.11341  0.56431  1.0000
  C   C21       1.0  0.79459  0.86732  0.35274  1.0000
  C   C22       1.0  0.20541  0.13268  0.64726  1.0000
  C   C23       1.0  0.32937  0.72714  0.91865  1.0000
  C   C24       1.0  0.67064  0.27286  0.08135  1.0000
  C   C25       1.0  0.52467  0.75494  0.76153  1.0000
  C   C26       1.0  0.47533  0.24506  0.23847  1.0000
  C   C27       1.0  0.58831  0.67641  0.88582  1.0000
  C   C28       1.0  0.41169  0.32359  0.11418  1.0000
  C   C29       1.0  0.04349  0.26551  0.35403  1.0000
  C   C30       1.0  0.95651  0.73449  0.64597  1.0000
  C   C31       1.0  0.96480  0.25641  0.25252  1.0000
  C   C32       1.0  0.03520  0.74359  0.74748  1.0000
  C   C33       1.0  0.03036  0.45552  0.19257  1.0000
  C   C34       1.0  0.96963  0.54448  0.80743  1.0000
  C   C35       1.0  0.27712  0.60725  0.33379  1.0000
  C   C36       1.0  0.72287  0.39275  0.66621  1.0000
  N   N1        1.0  0.45561  0.66614  0.97182  1.0000
  N   N2        1.0  0.54439  0.33387  0.02818  1.0000
  N   N3        1.0  0.36556  0.77301  0.79359  1.0000
  N   N4        1.0  0.63444  0.22700  0.20641  1.0000
  N   N5        1.0  0.04322  0.41109  0.31624  1.0000
  N   N6        1.0  0.95678  0.58891  0.68376  1.0000
  N   N7        1.0  0.00036  0.35932  0.14788  1.0000
  N   N8        1.0  0.99964  0.64069  0.85212  1.0000
  O   O1        1.0  0.14319  0.95191  0.13172  1.0000
  O   O2        1.0  0.85681  0.04809  0.86828  1.0000
  O   O3        1.0  0.11592  0.09891  0.94739  1.0000
  O   O4        1.0  0.88409  0.90109  0.05261  1.0000
  O   O5        1.0  0.13954  0.62292  0.37653  1.0000
  O   O6        1.0  0.86045  0.37708  0.62347  1.0000
  O   O7        1.0  0.82994  0.74807  0.31380  1.0000
  O   O8        1.0  0.17006  0.25194  0.68619  1.0000
  O   O9        1.0  0.88297  0.93690  0.32054  1.0000
  O   O10       1.0  0.11703  0.06310  0.67946  1.0000
  O   O11       1.0  0.19811  0.73850  0.97344  1.0000
  O   O12       1.0  0.80188  0.26149  0.02656  1.0000
  O   O13       1.0  0.04743  0.56785  0.12764  1.0000
  O   O14       1.0  0.95258  0.43215  0.87236  1.0000
  O   O15       1.0  0.31565  0.64548  0.21660  1.0000
  O   O16       1.0  0.68434  0.35452  0.78340  1.0000
