data_image0
_chemical_formula_structural       Yb2H36C36N8O16
_chemical_formula_sum              "Yb2 H36 C36 N8 O16"
_cell_length_a       9.79845
_cell_length_b       10.2458
_cell_length_c       10.9904
_cell_angle_alpha    77.1129
_cell_angle_beta     76.3738
_cell_angle_gamma    65.3552

_space_group_name_H-M_alt    "P 1"
_space_group_IT_number       1

loop_
  _space_group_symop_operation_xyz
  'x, y, z'

loop_
  _atom_site_type_symbol
  _atom_site_label
  _atom_site_symmetry_multiplicity
  _atom_site_fract_x
  _atom_site_fract_y
  _atom_site_fract_z
  _atom_site_occupancy
  Yb  Yb1       1.0  0.05545  0.77160  0.67549  1.0000
  Yb  Yb2       1.0  0.94455  0.22840  0.32451  1.0000
  H   H1        1.0  0.07758  0.46174  0.86619  1.0000
  H   H2        1.0  0.92242  0.53826  0.13381  1.0000
  H   H3        1.0  0.96808  0.38233  0.56123  1.0000
  H   H4        1.0  0.03192  0.61767  0.43877  1.0000
  H   H5        1.0  0.44841  0.63437  0.56738  1.0000
  H   H6        1.0  0.55159  0.36563  0.43262  1.0000
  H   H7        1.0  0.28066  0.85058  0.24858  1.0000
  H   H8        1.0  0.71934  0.14942  0.75142  1.0000
  H   H9        1.0  0.56704  0.58750  0.77307  1.0000
  H   H10       1.0  0.43296  0.41250  0.22692  1.0000
  H   H11       1.0  0.24037  0.49989  0.08295  1.0000
  H   H12       1.0  0.75963  0.50011  0.91705  1.0000
  H   H13       1.0  0.60850  0.12802  0.30746  1.0000
  H   H14       1.0  0.39150  0.87198  0.69254  1.0000
  H   H15       1.0  0.66396  0.84865  0.66205  1.0000
  H   H16       1.0  0.33604  0.15134  0.33795  1.0000
  H   H17       1.0  0.70731  0.08239  0.99509  1.0000
  H   H18       1.0  0.29269  0.91761  0.00491  1.0000
  H   H19       1.0  0.55258  0.79781  0.88419  1.0000
  H   H20       1.0  0.44742  0.20219  0.11581  1.0000
  H   H21       1.0  0.67490  0.56545  0.37358  1.0000
  H   H22       1.0  0.32510  0.43455  0.62641  1.0000
  H   H23       1.0  0.63967  0.73560  0.41666  1.0000
  H   H24       1.0  0.36033  0.26440  0.58334  1.0000
  H   H25       1.0  0.53190  0.86000  0.23185  1.0000
  H   H26       1.0  0.46810  0.14000  0.76815  1.0000
  H   H27       1.0  0.58245  0.69013  0.18171  1.0000
  H   H28       1.0  0.41755  0.30987  0.81829  1.0000
  H   H29       1.0  0.98479  0.24927  0.95015  1.0000
  H   H30       1.0  0.01521  0.75073  0.04985  1.0000
  H   H31       1.0  0.16301  0.18122  0.84779  1.0000
  H   H32       1.0  0.83699  0.81878  0.15221  1.0000
  H   H33       1.0  0.00649  0.14778  0.72593  1.0000
  H   H34       1.0  0.99351  0.85222  0.27407  1.0000
  H   H35       1.0  0.84119  0.29389  0.78310  1.0000
  H   H36       1.0  0.15882  0.70611  0.21690  1.0000
  C   C1        1.0  0.39145  0.55064  0.91943  1.0000
  C   C2        1.0  0.60855  0.44936  0.08057  1.0000
  C   C3        1.0  0.53861  0.54846  0.87257  1.0000
  C   C4        1.0  0.46139  0.45154  0.12743  1.0000
  C   C5        1.0  0.35349  0.50126  0.04750  1.0000
  C   C6        1.0  0.64651  0.49874  0.95250  1.0000
  C   C7        1.0  0.27515  0.60880  0.83371  1.0000
  C   C8        1.0  0.72485  0.39120  0.16629  1.0000
  C   C9        1.0  0.65045  0.98688  0.48269  1.0000
  C   C10       1.0  0.34955  0.01312  0.51731  1.0000
  C   C11       1.0  0.55952  0.07173  0.39057  1.0000
  C   C12       1.0  0.44047  0.92826  0.60943  1.0000
  C   C13       1.0  0.59061  0.91489  0.59218  1.0000
  C   C14       1.0  0.40938  0.08512  0.40782  1.0000
  C   C15       1.0  0.80940  0.97822  0.46753  1.0000
  C   C16       1.0  0.19060  0.02178  0.53246  1.0000
  C   C17       1.0  0.64545  0.93275  0.93206  1.0000
  C   C18       1.0  0.35455  0.06725  0.06794  1.0000
  C   C19       1.0  0.61607  0.04658  0.99802  1.0000
  C   C20       1.0  0.38393  0.95342  0.00198  1.0000
  C   C21       1.0  0.52834  0.88667  0.93508  1.0000
  C   C22       1.0  0.47166  0.11334  0.06492  1.0000
  C   C23       1.0  0.79683  0.86677  0.85196  1.0000
  C   C24       1.0  0.20317  0.13323  0.14804  1.0000
  C   C25       1.0  0.32807  0.72550  0.41925  1.0000
  C   C26       1.0  0.67193  0.27450  0.58075  1.0000
  C   C27       1.0  0.58870  0.67466  0.38425  1.0000
  C   C28       1.0  0.41130  0.32534  0.61575  1.0000
  C   C29       1.0  0.52320  0.75365  0.26031  1.0000
  C   C30       1.0  0.47680  0.24635  0.73969  1.0000
  C   C31       1.0  0.03137  0.45569  0.69322  1.0000
  C   C32       1.0  0.96864  0.54431  0.30678  1.0000
  C   C33       1.0  0.04525  0.26291  0.85385  1.0000
  C   C34       1.0  0.95475  0.73709  0.14615  1.0000
  C   C35       1.0  0.96516  0.25617  0.75212  1.0000
  C   C36       1.0  0.03485  0.74383  0.24788  1.0000
  N   N1        1.0  0.04468  0.40940  0.81702  1.0000
  N   N2        1.0  0.95532  0.59060  0.18298  1.0000
  N   N3        1.0  0.00168  0.35967  0.64751  1.0000
  N   N4        1.0  0.99832  0.64033  0.35249  1.0000
  N   N5        1.0  0.45517  0.66733  0.47229  1.0000
  N   N6        1.0  0.54483  0.33267  0.52771  1.0000
  N   N7        1.0  0.36396  0.76855  0.29281  1.0000
  N   N8        1.0  0.63604  0.23145  0.70719  1.0000
  O   O1        1.0  0.13664  0.62502  0.87640  1.0000
  O   O2        1.0  0.86336  0.37498  0.12360  1.0000
  O   O3        1.0  0.31358  0.64715  0.71607  1.0000
  O   O4        1.0  0.68642  0.35285  0.28393  1.0000
  O   O5        1.0  0.88530  0.90090  0.55456  1.0000
  O   O6        1.0  0.11470  0.09910  0.44544  1.0000
  O   O7        1.0  0.85816  0.05007  0.36997  1.0000
  O   O8        1.0  0.14184  0.94993  0.63003  1.0000
  O   O9        1.0  0.83154  0.74794  0.81168  1.0000
  O   O10       1.0  0.16846  0.25206  0.18833  1.0000
  O   O11       1.0  0.88673  0.93532  0.81992  1.0000
  O   O12       1.0  0.11327  0.06468  0.18008  1.0000
  O   O13       1.0  0.04792  0.56921  0.62893  1.0000
  O   O14       1.0  0.95208  0.43079  0.37107  1.0000
  O   O15       1.0  0.19630  0.73701  0.47509  1.0000
  O   O16       1.0  0.80370  0.26298  0.52491  1.0000
