data_image0
_chemical_formula_structural       CoH32C44N10O6
_chemical_formula_sum              "Co1 H32 C44 N10 O6"
_cell_length_a       8.28499
_cell_length_b       10.7825
_cell_length_c       11.7524
_cell_angle_alpha    113.473
_cell_angle_beta     96.1276
_cell_angle_gamma    102.795

_space_group_name_H-M_alt    "P 1"
_space_group_IT_number       1

loop_
  _space_group_symop_operation_xyz
  'x, y, z'

loop_
  _atom_site_type_symbol
  _atom_site_label
  _atom_site_symmetry_multiplicity
  _atom_site_fract_x
  _atom_site_fract_y
  _atom_site_fract_z
  _atom_site_occupancy
  Co  Co1       1.0  1.00000  0.99999  1.00000  1.0000
  H   H1        1.0  0.34907  0.15005  0.01637  1.0000
  H   H2        1.0  0.65093  0.84994  0.98363  1.0000
  H   H3        1.0  0.50975  0.39510  0.07116  1.0000
  H   H4        1.0  0.49025  0.60489  0.92885  1.0000
  H   H5        1.0  0.36417  0.58834  0.14705  1.0000
  H   H6        1.0  0.63583  0.41166  0.85296  1.0000
  H   H7        1.0  0.91675  0.26937  0.10734  1.0000
  H   H8        1.0  0.08325  0.73063  0.89267  1.0000
  H   H9        1.0  0.09980  0.65394  0.19437  1.0000
  H   H10       1.0  0.90019  0.34605  0.80563  1.0000
  H   H11       1.0  0.82858  0.68685  0.13706  1.0000
  H   H12       1.0  0.17142  0.31316  0.86294  1.0000
  H   H13       1.0  0.62776  0.82892  0.20718  1.0000
  H   H14       1.0  0.37224  0.17109  0.79283  1.0000
  H   H15       1.0  0.50888  0.84103  0.39474  1.0000
  H   H16       1.0  0.49113  0.15897  0.60526  1.0000
  H   H17       1.0  0.88531  0.48301  0.42622  1.0000
  H   H18       1.0  0.11469  0.51699  0.57377  1.0000
  H   H19       1.0  0.78092  0.50462  0.62150  1.0000
  H   H20       1.0  0.21909  0.49538  0.37850  1.0000
  H   H21       1.0  0.58000  0.64362  0.69214  1.0000
  H   H22       1.0  0.42002  0.35639  0.30786  1.0000
  H   H23       1.0  0.48571  0.82416  0.76453  1.0000
  H   H24       1.0  0.51428  0.17583  0.23547  1.0000
  H   H25       1.0  0.86240  0.98995  0.75711  1.0000
  H   H26       1.0  0.13760  0.01005  0.24289  1.0000
  H   H27       1.0  0.92943  0.92475  0.54432  1.0000
  H   H28       1.0  0.07057  0.07526  0.45568  1.0000
  H   H29       1.0  0.18997  0.84166  0.50329  1.0000
  H   H30       1.0  0.81003  0.15835  0.49670  1.0000
  H   H31       1.0  0.28955  0.90638  0.89366  1.0000
  H   H32       1.0  0.71044  0.09360  0.10633  1.0000
  C   C1        1.0  0.28873  0.23398  0.04835  1.0000
  C   C2        1.0  0.71128  0.76602  0.95165  1.0000
  C   C3        1.0  0.37841  0.37290  0.08049  1.0000
  C   C4        1.0  0.62158  0.62710  0.91953  1.0000
  C   C5        1.0  0.29832  0.47863  0.12228  1.0000
  C   C6        1.0  0.70167  0.52136  0.87773  1.0000
  C   C7        1.0  0.13052  0.44158  0.13524  1.0000
  C   C8        1.0  0.86948  0.55842  0.86477  1.0000
  C   C9        1.0  0.04782  0.29909  0.09933  1.0000
  C   C10       1.0  0.95218  0.70090  0.90067  1.0000
  C   C11       1.0  0.04410  0.54914  0.19064  1.0000
  C   C12       1.0  0.95589  0.45085  0.80936  1.0000
  C   C13       1.0  0.82078  0.61493  0.28249  1.0000
  C   C14       1.0  0.17922  0.38506  0.71750  1.0000
  C   C15       1.0  0.77864  0.69334  0.22056  1.0000
  C   C16       1.0  0.22136  0.30666  0.77944  1.0000
  C   C17       1.0  0.66565  0.77383  0.26081  1.0000
  C   C18       1.0  0.33436  0.22618  0.73919  1.0000
  C   C19       1.0  0.59807  0.78021  0.36493  1.0000
  C   C20       1.0  0.40193  0.21979  0.63507  1.0000
  C   C21       1.0  0.64260  0.70610  0.43363  1.0000
  C   C22       1.0  0.35741  0.29390  0.56637  1.0000
  C   C23       1.0  0.75499  0.62158  0.39222  1.0000
  C   C24       1.0  0.24500  0.37842  0.60778  1.0000
  C   C25       1.0  0.80372  0.54986  0.46156  1.0000
  C   C26       1.0  0.19629  0.45014  0.53844  1.0000
  C   C27       1.0  0.74579  0.56288  0.57045  1.0000
  C   C28       1.0  0.25422  0.43713  0.42955  1.0000
  C   C29       1.0  0.63393  0.64376  0.61170  1.0000
  C   C30       1.0  0.36607  0.35624  0.38830  1.0000
  C   C31       1.0  0.57879  0.71334  0.54450  1.0000
  C   C32       1.0  0.42122  0.28666  0.45550  1.0000
  C   C33       1.0  0.41051  0.82088  0.67956  1.0000
  C   C34       1.0  0.58949  0.17912  0.32044  1.0000
  C   C35       1.0  0.97364  0.95478  0.73739  1.0000
  C   C36       1.0  0.02636  0.04522  0.26260  1.0000
  C   C37       1.0  0.01338  0.91824  0.61821  1.0000
  C   C38       1.0  0.98662  0.08176  0.38179  1.0000
  C   C39       1.0  0.15535  0.87277  0.59547  1.0000
  C   C40       1.0  0.84465  0.12724  0.40452  1.0000
  C   C41       1.0  0.25851  0.86807  0.69572  1.0000
  C   C42       1.0  0.74148  0.13192  0.30427  1.0000
  C   C43       1.0  0.21209  0.90828  0.81363  1.0000
  C   C44       1.0  0.78790  0.09171  0.18637  1.0000
  N   N1        1.0  0.12372  0.19647  0.05500  1.0000
  N   N2        1.0  0.87628  0.80352  0.94501  1.0000
  N   N3        1.0  0.91443  0.52019  0.23664  1.0000
  N   N4        1.0  0.08557  0.47982  0.76336  1.0000
  N   N5        1.0  0.44988  0.77756  0.57014  1.0000
  N   N6        1.0  0.55013  0.22244  0.42986  1.0000
  N   N7        1.0  0.07100  0.94987  0.83472  1.0000
  N   N8        1.0  0.92899  0.05012  0.16527  1.0000
  N   N9        1.0  0.30188  0.87435  0.10158  1.0000
  N   N10       1.0  0.69811  0.12564  0.89842  1.0000
  O   O1        1.0  0.25898  0.97686  0.08794  1.0000
  O   O2        1.0  0.74102  0.02314  0.91206  1.0000
  O   O3        1.0  0.37958  0.80584  0.02415  1.0000
  O   O4        1.0  0.62039  0.19415  0.97584  1.0000
  O   O5        1.0  0.26645  0.84597  0.19158  1.0000
  O   O6        1.0  0.73355  0.15404  0.80842  1.0000
