data_image0
_chemical_formula_structural       Cu4H28C24Br4N8O12
_chemical_formula_sum              "Cu4 H28 C24 Br4 N8 O12"
_cell_length_a       6.48622
_cell_length_b       10.3607
_cell_length_c       13.3708
_cell_angle_alpha    108.485
_cell_angle_beta     89.9999
_cell_angle_gamma    90.002

_space_group_name_H-M_alt    "P 1"
_space_group_IT_number       1

loop_
  _space_group_symop_operation_xyz
  'x, y, z'

loop_
  _atom_site_type_symbol
  _atom_site_label
  _atom_site_symmetry_multiplicity
  _atom_site_fract_x
  _atom_site_fract_y
  _atom_site_fract_z
  _atom_site_occupancy
  Cu  Cu1       1.0  0.79896  0.24602  0.23425  1.0000
  Cu  Cu2       1.0  0.29898  0.75395  0.26575  1.0000
  Cu  Cu3       1.0  0.20102  0.75395  0.76575  1.0000
  Cu  Cu4       1.0  0.70108  0.24603  0.73425  1.0000
  H   H1        1.0  0.46232  0.33388  0.58223  1.0000
  H   H2        1.0  0.96233  0.66613  0.91777  1.0000
  H   H3        1.0  0.53767  0.66613  0.41777  1.0000
  H   H4        1.0  0.03768  0.33386  0.08223  1.0000
  H   H5        1.0  0.08559  0.15249  0.38453  1.0000
  H   H6        1.0  0.58562  0.84752  0.11547  1.0000
  H   H7        1.0  0.91439  0.84751  0.61547  1.0000
  H   H8        1.0  0.41439  0.15249  0.88453  1.0000
  H   H9        1.0  0.17882  0.23919  0.64496  1.0000
  H   H10       1.0  0.67885  0.76080  0.85505  1.0000
  H   H11       1.0  0.82117  0.76079  0.35505  1.0000
  H   H12       1.0  0.32116  0.23918  0.14495  1.0000
  H   H13       1.0  0.21018  0.09206  0.53254  1.0000
  H   H14       1.0  0.71023  0.90795  0.96748  1.0000
  H   H15       1.0  0.78979  0.90794  0.46748  1.0000
  H   H16       1.0  0.28980  0.09205  0.03253  1.0000
  H   H17       1.0  0.03685  0.09210  0.63764  1.0000
  H   H18       1.0  0.53690  0.90792  0.86237  1.0000
  H   H19       1.0  0.96312  0.90791  0.36236  1.0000
  H   H20       1.0  0.46311  0.09209  0.13763  1.0000
  H   H21       1.0  0.02587  0.49063  0.25303  1.0000
  H   H22       1.0  0.52584  0.50936  0.24695  1.0000
  H   H23       1.0  0.97413  0.50936  0.74695  1.0000
  H   H24       1.0  0.47416  0.49064  0.75304  1.0000
  H   H25       1.0  0.13636  0.41215  0.32519  1.0000
  H   H26       1.0  0.63631  0.58785  0.17478  1.0000
  H   H27       1.0  0.86365  0.58785  0.67479  1.0000
  H   H28       1.0  0.36366  0.41216  0.82521  1.0000
  C   C1        1.0  0.60337  0.29616  0.53876  1.0000
  C   C2        1.0  0.10337  0.70384  0.96124  1.0000
  C   C3        1.0  0.39662  0.70384  0.46124  1.0000
  C   C4        1.0  0.89662  0.29615  0.03875  1.0000
  C   C5        1.0  0.92919  0.20122  0.53597  1.0000
  C   C6        1.0  0.42918  0.79877  0.96402  1.0000
  C   C7        1.0  0.07083  0.79877  0.46403  1.0000
  C   C8        1.0  0.57081  0.20121  0.03596  1.0000
  C   C9        1.0  0.47762  0.35947  0.38002  1.0000
  C   C10       1.0  0.97759  0.64055  0.11998  1.0000
  C   C11       1.0  0.52239  0.64055  0.61998  1.0000
  C   C12       1.0  0.02238  0.35947  0.88002  1.0000
  C   C13       1.0  0.62955  0.29735  0.43603  1.0000
  C   C14       1.0  0.12955  0.70264  0.06397  1.0000
  C   C15       1.0  0.37044  0.70264  0.56397  1.0000
  C   C16       1.0  0.87046  0.29734  0.93602  1.0000
  C   C17       1.0  0.94935  0.19737  0.43036  1.0000
  C   C18       1.0  0.44937  0.80259  0.06964  1.0000
  C   C19       1.0  0.05064  0.80258  0.56964  1.0000
  C   C20       1.0  0.55064  0.19737  0.93035  1.0000
  C   C21       1.0  0.09782  0.15228  0.58969  1.0000
  C   C22       1.0  0.59784  0.84773  0.91032  1.0000
  C   C23       1.0  0.90217  0.84771  0.41032  1.0000
  C   C24       1.0  0.40217  0.15227  0.08967  1.0000
  Br  Br1       1.0  0.93487  0.01787  0.16475  1.0000
  Br  Br2       1.0  0.43485  0.98213  0.33526  1.0000
  Br  Br3       1.0  0.06515  0.98214  0.83526  1.0000
  Br  Br4       1.0  0.56516  0.01789  0.66475  1.0000
  N   N1        1.0  0.75213  0.24968  0.58803  1.0000
  N   N2        1.0  0.25213  0.75034  0.91196  1.0000
  N   N3        1.0  0.24789  0.75033  0.41196  1.0000
  N   N4        1.0  0.74785  0.24968  0.08802  1.0000
  N   N5        1.0  0.80218  0.24569  0.38249  1.0000
  N   N6        1.0  0.30215  0.75436  0.11755  1.0000
  N   N7        1.0  0.19786  0.75436  0.61755  1.0000
  N   N8        1.0  0.69783  0.24568  0.88248  1.0000
  O   O1        1.0  0.04039  0.40154  0.26489  1.0000
  O   O2        1.0  0.54034  0.59846  0.23509  1.0000
  O   O3        1.0  0.95964  0.59847  0.73510  1.0000
  O   O4        1.0  0.45963  0.40153  0.76490  1.0000
  O   O5        1.0  0.54214  0.36712  0.29078  1.0000
  O   O6        1.0  0.04211  0.63289  0.20922  1.0000
  O   O7        1.0  0.45787  0.63288  0.70921  1.0000
  O   O8        1.0  0.95787  0.36712  0.79079  1.0000
  O   O9        1.0  0.30658  0.40079  0.42127  1.0000
  O   O10       1.0  0.80654  0.59923  0.07873  1.0000
  O   O11       1.0  0.69346  0.59924  0.57873  1.0000
  O   O12       1.0  0.19345  0.40078  0.92128  1.0000
