data_image0
_chemical_formula_structural       ZnH26C36S2N12O4
_chemical_formula_sum              "Zn1 H26 C36 S2 N12 O4"
_cell_length_a       8.80784
_cell_length_b       8.85059
_cell_length_c       11.6651
_cell_angle_alpha    76.3584
_cell_angle_beta     78.0028
_cell_angle_gamma    87.4926

_space_group_name_H-M_alt    "P 1"
_space_group_IT_number       1

loop_
  _space_group_symop_operation_xyz
  'x, y, z'

loop_
  _atom_site_type_symbol
  _atom_site_label
  _atom_site_symmetry_multiplicity
  _atom_site_fract_x
  _atom_site_fract_y
  _atom_site_fract_z
  _atom_site_occupancy
  Zn  Zn1       1.0  1.00000  0.00000  0.00000  1.0000
  H   H1        1.0  0.19235  0.44302  0.58948  1.0000
  H   H2        1.0  0.80765  0.55698  0.41052  1.0000
  H   H3        1.0  0.28059  0.69974  0.63561  1.0000
  H   H4        1.0  0.71940  0.30027  0.36439  1.0000
  H   H5        1.0  0.81196  0.90829  0.81978  1.0000
  H   H6        1.0  0.18804  0.09171  0.18022  1.0000
  H   H7        1.0  0.79846  0.97738  0.60096  1.0000
  H   H8        1.0  0.20154  0.02262  0.39904  1.0000
  H   H9        1.0  0.96072  0.20314  0.46395  1.0000
  H   H10       1.0  0.03928  0.79686  0.53605  1.0000
  H   H11       1.0  0.09730  0.28266  0.78003  1.0000
  H   H12       1.0  0.90270  0.71734  0.21997  1.0000
  H   H13       1.0  0.35464  0.54652  0.19651  1.0000
  H   H14       1.0  0.64538  0.45349  0.80348  1.0000
  H   H15       1.0  0.57223  0.74334  0.14326  1.0000
  H   H16       1.0  0.42778  0.25667  0.85674  1.0000
  H   H17       1.0  0.63365  0.85674  0.30745  1.0000
  H   H18       1.0  0.36635  0.14326  0.69255  1.0000
  H   H19       1.0  0.61478  0.75713  0.75696  1.0000
  H   H20       1.0  0.38521  0.24287  0.24305  1.0000
  H   H21       1.0  0.58664  0.83431  0.95299  1.0000
  H   H22       1.0  0.41336  0.16571  0.04701  1.0000
  H   H23       1.0  0.32726  0.92392  0.04908  1.0000
  H   H24       1.0  0.67273  0.07608  0.95093  1.0000
  H   H25       1.0  0.12595  0.85235  0.77582  1.0000
  H   H26       1.0  0.87404  0.14765  0.22418  1.0000
  C   C1        1.0  0.87179  0.01015  0.75845  1.0000
  C   C2        1.0  0.12821  0.98985  0.24155  1.0000
  C   C3        1.0  0.86819  0.04732  0.63627  1.0000
  C   C4        1.0  0.13181  0.95268  0.36373  1.0000
  C   C5        1.0  0.95594  0.17249  0.56038  1.0000
  C   C6        1.0  0.04406  0.82751  0.43961  1.0000
  C   C7        1.0  0.04253  0.25927  0.61082  1.0000
  C   C8        1.0  0.95748  0.74073  0.38917  1.0000
  C   C9        1.0  0.03432  0.21724  0.73597  1.0000
  C   C10       1.0  0.96568  0.78276  0.26403  1.0000
  C   C11       1.0  0.18651  0.42819  0.42155  1.0000
  C   C12       1.0  0.81350  0.57180  0.57844  1.0000
  C   C13       1.0  0.31048  0.55237  0.38460  1.0000
  C   C14       1.0  0.68952  0.44763  0.61539  1.0000
  C   C15       1.0  0.38759  0.59779  0.26426  1.0000
  C   C16       1.0  0.61242  0.40221  0.73574  1.0000
  C   C17       1.0  0.50651  0.70791  0.23521  1.0000
  C   C18       1.0  0.49350  0.29210  0.76479  1.0000
  C   C19       1.0  0.54242  0.77019  0.32549  1.0000
  C   C20       1.0  0.45758  0.22982  0.67451  1.0000
  C   C21       1.0  0.45672  0.71990  0.44285  1.0000
  C   C22       1.0  0.54328  0.28009  0.55715  1.0000
  C   C23       1.0  0.49017  0.78683  0.54225  1.0000
  C   C24       1.0  0.50983  0.21316  0.45775  1.0000
  C   C25       1.0  0.37243  0.80302  0.75023  1.0000
  C   C26       1.0  0.62757  0.19697  0.24977  1.0000
  C   C27       1.0  0.50423  0.79822  0.80017  1.0000
  C   C28       1.0  0.49577  0.20178  0.19983  1.0000
  C   C29       1.0  0.48781  0.84113  0.90943  1.0000
  C   C30       1.0  0.51219  0.15887  0.09057  1.0000
  C   C31       1.0  0.34396  0.88946  0.96370  1.0000
  C   C32       1.0  0.65604  0.11055  0.03631  1.0000
  C   C33       1.0  0.23118  0.85052  0.81167  1.0000
  C   C34       1.0  0.76882  0.14948  0.18834  1.0000
  C   C35       1.0  0.17118  0.31805  0.98965  1.0000
  C   C36       1.0  0.82881  0.68196  0.01035  1.0000
  S   S1        1.0  0.24361  0.48083  0.99134  1.0000
  S   S2        1.0  0.75638  0.51917  0.00866  1.0000
  N   N1        1.0  0.95313  0.09427  0.80765  1.0000
  N   N2        1.0  0.04687  0.90573  0.19235  1.0000
  N   N3        1.0  0.13774  0.38394  0.54403  1.0000
  N   N4        1.0  0.86227  0.61606  0.45597  1.0000
  N   N5        1.0  0.34401  0.61253  0.47203  1.0000
  N   N6        1.0  0.65599  0.38746  0.52796  1.0000
  N   N7        1.0  0.37487  0.75669  0.64310  1.0000
  N   N8        1.0  0.62512  0.24331  0.35691  1.0000
  N   N9        1.0  0.21761  0.89485  0.91519  1.0000
  N   N10       1.0  0.78239  0.10515  0.08482  1.0000
  N   N11       1.0  0.12455  0.19478  0.98656  1.0000
  N   N12       1.0  0.87544  0.80522  0.01344  1.0000
  O   O1        1.0  0.13880  0.37435  0.34685  1.0000
  O   O2        1.0  0.86121  0.62565  0.65314  1.0000
  O   O3        1.0  0.61017  0.86129  0.53066  1.0000
  O   O4        1.0  0.38984  0.13869  0.46935  1.0000
