data_image0
_chemical_formula_structural       Cu2Sb2H16C16N8F12
_chemical_formula_sum              "Cu2 Sb2 H16 C16 N8 F12"
_cell_length_a       7.99199
_cell_length_b       8.35347
_cell_length_c       10.7434
_cell_angle_alpha    88.3796
_cell_angle_beta     84.3683
_cell_angle_gamma    65.2949

_space_group_name_H-M_alt    "P 1"
_space_group_IT_number       1

loop_
  _space_group_symop_operation_xyz
  'x, y, z'

loop_
  _atom_site_type_symbol
  _atom_site_label
  _atom_site_symmetry_multiplicity
  _atom_site_fract_x
  _atom_site_fract_y
  _atom_site_fract_z
  _atom_site_occupancy
  Cu  Cu1       1.0  0.72865  0.57929  0.26667  1.0000
  Cu  Cu2       1.0  0.27134  0.42072  0.73332  1.0000
  Sb  Sb1       1.0  0.57248  0.17818  0.21182  1.0000
  Sb  Sb2       1.0  0.42754  0.82182  0.78817  1.0000
  H   H1        1.0  0.40203  0.68088  0.11653  1.0000
  H   H2        1.0  0.59795  0.31911  0.88347  1.0000
  H   H3        1.0  0.07673  0.91789  0.14367  1.0000
  H   H4        1.0  0.92327  0.08212  0.85633  1.0000
  H   H5        1.0  0.16806  0.03981  0.49620  1.0000
  H   H6        1.0  0.83194  0.96017  0.50380  1.0000
  H   H7        1.0  0.49202  0.80724  0.46889  1.0000
  H   H8        1.0  0.50797  0.19274  0.53112  1.0000
  H   H9        1.0  0.80690  0.34140  0.48740  1.0000
  H   H10       1.0  0.19309  0.65861  0.51261  1.0000
  H   H11       1.0  0.98454  0.71629  0.34065  1.0000
  H   H12       1.0  0.01544  0.28371  0.65937  1.0000
  H   H13       1.0  0.74700  0.78846  0.04460  1.0000
  H   H14       1.0  0.25302  0.21154  0.95539  1.0000
  H   H15       1.0  0.02423  0.26187  0.14320  1.0000
  H   H16       1.0  0.97581  0.73814  0.85680  1.0000
  C   C1        1.0  0.34904  0.76156  0.20137  1.0000
  C   C2        1.0  0.65094  0.23844  0.79863  1.0000
  C   C3        1.0  0.16905  0.89269  0.21731  1.0000
  C   C4        1.0  0.83093  0.10732  0.78269  1.0000
  C   C5        1.0  0.21854  0.96186  0.40993  1.0000
  C   C6        1.0  0.78145  0.03815  0.59008  1.0000
  C   C7        1.0  0.39870  0.83176  0.39616  1.0000
  C   C8        1.0  0.60129  0.16823  0.60383  1.0000
  C   C9        1.0  0.89288  0.41269  0.49347  1.0000
  C   C10       1.0  0.10711  0.58732  0.50656  1.0000
  C   C11       1.0  0.99169  0.61926  0.41204  1.0000
  C   C12       1.0  0.00830  0.38074  0.58797  1.0000
  C   C13       1.0  0.86116  0.65986  0.02554  1.0000
  C   C14       1.0  0.13887  0.34013  0.97445  1.0000
  C   C15       1.0  0.01287  0.36802  0.07864  1.0000
  C   C16       1.0  0.98715  0.63199  0.92135  1.0000
  N   N1        1.0  0.46498  0.73151  0.29112  1.0000
  N   N2        1.0  0.53501  0.26848  0.70888  1.0000
  N   N3        1.0  0.10252  0.99420  0.32092  1.0000
  N   N4        1.0  0.89747  0.00581  0.67908  1.0000
  N   N5        1.0  0.88285  0.53276  0.40429  1.0000
  N   N6        1.0  0.11714  0.46723  0.59573  1.0000
  N   N7        1.0  0.87321  0.52819  0.10555  1.0000
  N   N8        1.0  0.12682  0.47181  0.89445  1.0000
  F   F1        1.0  0.68124  0.30694  0.29661  1.0000
  F   F2        1.0  0.31879  0.69307  0.70336  1.0000
  F   F3        1.0  0.36995  0.25623  0.34091  1.0000
  F   F4        1.0  0.63008  0.74381  0.65908  1.0000
  F   F5        1.0  0.70072  0.97116  0.30704  1.0000
  F   F6        1.0  0.29925  0.02885  0.69297  1.0000
  F   F7        1.0  0.77979  0.10079  0.08626  1.0000
  F   F8        1.0  0.22024  0.89916  0.91374  1.0000
  F   F9        1.0  0.44596  0.38157  0.11412  1.0000
  F   F10       1.0  0.55409  0.61842  0.88584  1.0000
  F   F11       1.0  0.46164  0.05140  0.13020  1.0000
  F   F12       1.0  0.53832  0.94863  0.86982  1.0000
