data_image0
_chemical_formula_structural       Cu4H32C40I4N8
_chemical_formula_sum              "Cu4 H32 C40 I4 N8"
_cell_length_a       9.45202
_cell_length_b       9.49619
_cell_length_c       12.1695
_cell_angle_alpha    90.0001
_cell_angle_beta     111.877
_cell_angle_gamma    89.9999

_space_group_name_H-M_alt    "P 1"
_space_group_IT_number       1

loop_
  _space_group_symop_operation_xyz
  'x, y, z'

loop_
  _atom_site_type_symbol
  _atom_site_label
  _atom_site_symmetry_multiplicity
  _atom_site_fract_x
  _atom_site_fract_y
  _atom_site_fract_z
  _atom_site_occupancy
  Cu  Cu1       1.0  0.43623  0.12675  0.48338  1.0000
  Cu  Cu2       1.0  0.06377  0.62676  0.01662  1.0000
  Cu  Cu3       1.0  0.56378  0.87324  0.51662  1.0000
  Cu  Cu4       1.0  0.93623  0.37325  0.98338  1.0000
  H   H1        1.0  0.37037  0.28815  0.86468  1.0000
  H   H2        1.0  0.12963  0.78815  0.63531  1.0000
  H   H3        1.0  0.62963  0.71185  0.13531  1.0000
  H   H4        1.0  0.87037  0.21185  0.36468  1.0000
  H   H5        1.0  0.46304  0.19272  0.25689  1.0000
  H   H6        1.0  0.03696  0.69272  0.24311  1.0000
  H   H7        1.0  0.53696  0.80728  0.74311  1.0000
  H   H8        1.0  0.96304  0.30728  0.75689  1.0000
  H   H9        1.0  0.36490  0.31574  0.06851  1.0000
  H   H10       1.0  0.13510  0.81574  0.43149  1.0000
  H   H11       1.0  0.63510  0.68426  0.93149  1.0000
  H   H12       1.0  0.86490  0.18426  0.56851  1.0000
  H   H13       1.0  0.76980  0.54767  0.31887  1.0000
  H   H14       1.0  0.73021  0.04767  0.18113  1.0000
  H   H15       1.0  0.23021  0.45233  0.68113  1.0000
  H   H16       1.0  0.26979  0.95233  0.81887  1.0000
  H   H17       1.0  0.85185  0.38644  0.19435  1.0000
  H   H18       1.0  0.64815  0.88644  0.30565  1.0000
  H   H19       1.0  0.14815  0.61356  0.80565  1.0000
  H   H20       1.0  0.35185  0.11356  0.69435  1.0000
  H   H21       1.0  0.61691  0.32014  0.83600  1.0000
  H   H22       1.0  0.88309  0.82013  0.66400  1.0000
  H   H23       1.0  0.38309  0.67987  0.16400  1.0000
  H   H24       1.0  0.11692  0.17986  0.33600  1.0000
  H   H25       1.0  0.62740  0.37665  0.58959  1.0000
  H   H26       1.0  0.87260  0.87665  0.91041  1.0000
  H   H27       1.0  0.37260  0.62335  0.41041  1.0000
  H   H28       1.0  0.12740  0.12335  0.08959  1.0000
  H   H29       1.0  0.77439  0.55471  0.52739  1.0000
  H   H30       1.0  0.72561  0.05471  0.97261  1.0000
  H   H31       1.0  0.22561  0.44529  0.47261  1.0000
  H   H32       1.0  0.27439  0.94529  0.02739  1.0000
  C   C1        1.0  0.47422  0.31037  0.94040  1.0000
  C   C2        1.0  0.02578  0.81037  0.55960  1.0000
  C   C3        1.0  0.52578  0.68963  0.05960  1.0000
  C   C4        1.0  0.97422  0.18963  0.44040  1.0000
  C   C5        1.0  0.61471  0.36954  0.27040  1.0000
  C   C6        1.0  0.88529  0.86954  0.22960  1.0000
  C   C7        1.0  0.38529  0.63046  0.72960  1.0000
  C   C8        1.0  0.11471  0.13046  0.77040  1.0000
  C   C9        1.0  0.60829  0.35391  0.14812  1.0000
  C   C10       1.0  0.89172  0.85391  0.35188  1.0000
  C   C11       1.0  0.39171  0.64610  0.85188  1.0000
  C   C12       1.0  0.10828  0.14610  0.64812  1.0000
  C   C13       1.0  0.53258  0.27611  0.31312  1.0000
  C   C14       1.0  0.96742  0.77612  0.18688  1.0000
  C   C15       1.0  0.46742  0.72389  0.68688  1.0000
  C   C16       1.0  0.03258  0.22389  0.81312  1.0000
  C   C17       1.0  0.47145  0.32358  0.05348  1.0000
  C   C18       1.0  0.02855  0.82358  0.44652  1.0000
  C   C19       1.0  0.52855  0.67643  0.94652  1.0000
  C   C20       1.0  0.97145  0.17642  0.55348  1.0000
  C   C21       1.0  0.70429  0.47229  0.34833  1.0000
  C   C22       1.0  0.79572  0.97229  0.15166  1.0000
  C   C23       1.0  0.29572  0.52771  0.65167  1.0000
  C   C24       1.0  0.20428  0.02771  0.84833  1.0000
  C   C25       1.0  0.74130  0.36650  0.12382  1.0000
  C   C26       1.0  0.75870  0.86651  0.37618  1.0000
  C   C27       1.0  0.25870  0.63350  0.87618  1.0000
  C   C28       1.0  0.24130  0.13350  0.62382  1.0000
  C   C29       1.0  0.61090  0.32771  0.92358  1.0000
  C   C30       1.0  0.88910  0.82771  0.57642  1.0000
  C   C31       1.0  0.38910  0.67229  0.07642  1.0000
  C   C32       1.0  0.11090  0.17229  0.42358  1.0000
  C   C33       1.0  0.62402  0.37816  0.49903  1.0000
  C   C34       1.0  0.87598  0.87816  0.00097  1.0000
  C   C35       1.0  0.37598  0.62184  0.50097  1.0000
  C   C36       1.0  0.12402  0.12184  0.99903  1.0000
  C   C37       1.0  0.70747  0.47664  0.46367  1.0000
  C   C38       1.0  0.79253  0.97664  0.03633  1.0000
  C   C39       1.0  0.29253  0.52336  0.53633  1.0000
  C   C40       1.0  0.20747  0.02336  0.96367  1.0000
  I   I1        1.0  0.65418  0.06499  0.69307  1.0000
  I   I2        1.0  0.84582  0.56499  0.80693  1.0000
  I   I3        1.0  0.34582  0.93501  0.30693  1.0000
  I   I4        1.0  0.15418  0.43501  0.19307  1.0000
  N   N1        1.0  0.53822  0.27779  0.42532  1.0000
  N   N2        1.0  0.96178  0.77779  0.07468  1.0000
  N   N3        1.0  0.46178  0.72221  0.57468  1.0000
  N   N4        1.0  0.03822  0.22221  0.92532  1.0000
  N   N5        1.0  0.74388  0.35408  0.01433  1.0000
  N   N6        1.0  0.75612  0.85408  0.48567  1.0000
  N   N7        1.0  0.25612  0.64592  0.98567  1.0000
  N   N8        1.0  0.24388  0.14592  0.51433  1.0000
