data_image0
_chemical_formula_structural       Na4H16C16S4N4O16
_chemical_formula_sum              "Na4 H16 C16 S4 N4 O16"
_cell_length_a       7.14611
_cell_length_b       8.99624
_cell_length_c       10.4562
_cell_angle_alpha    90.0004
_cell_angle_beta     98.1339
_cell_angle_gamma    90

_space_group_name_H-M_alt    "P 1"
_space_group_IT_number       1

loop_
  _space_group_symop_operation_xyz
  'x, y, z'

loop_
  _atom_site_type_symbol
  _atom_site_label
  _atom_site_symmetry_multiplicity
  _atom_site_fract_x
  _atom_site_fract_y
  _atom_site_fract_z
  _atom_site_occupancy
  Na  Na1       1.0  0.17505  0.11456  0.07429  1.0000
  Na  Na2       1.0  0.32495  0.61456  0.92571  1.0000
  Na  Na3       1.0  0.82495  0.88544  0.92571  1.0000
  Na  Na4       1.0  0.67505  0.38544  0.07429  1.0000
  H   H1        1.0  0.34574  0.38620  0.65206  1.0000
  H   H2        1.0  0.15426  0.88620  0.34795  1.0000
  H   H3        1.0  0.65425  0.61380  0.34794  1.0000
  H   H4        1.0  0.84574  0.11380  0.65205  1.0000
  H   H5        1.0  0.19588  0.29235  0.44224  1.0000
  H   H6        1.0  0.30412  0.79235  0.55776  1.0000
  H   H7        1.0  0.80411  0.70765  0.55776  1.0000
  H   H8        1.0  0.69589  0.20765  0.44224  1.0000
  H   H9        1.0  0.05784  0.12775  0.44783  1.0000
  H   H10       1.0  0.44216  0.62775  0.55217  1.0000
  H   H11       1.0  0.94216  0.87224  0.55217  1.0000
  H   H12       1.0  0.55784  0.37224  0.44782  1.0000
  H   H13       1.0  0.29590  0.11514  0.41787  1.0000
  H   H14       1.0  0.20410  0.61514  0.58213  1.0000
  H   H15       1.0  0.70410  0.88486  0.58213  1.0000
  H   H16       1.0  0.79590  0.38486  0.41786  1.0000
  C   C1        1.0  0.38372  0.26016  0.83172  1.0000
  C   C2        1.0  0.11627  0.76016  0.16828  1.0000
  C   C3        1.0  0.61628  0.73984  0.16828  1.0000
  C   C4        1.0  0.88372  0.23984  0.83172  1.0000
  C   C5        1.0  0.33518  0.27580  0.69242  1.0000
  C   C6        1.0  0.16482  0.77580  0.30758  1.0000
  C   C7        1.0  0.66481  0.72420  0.30758  1.0000
  C   C8        1.0  0.83519  0.22420  0.69242  1.0000
  C   C9        1.0  0.26485  0.16405  0.61337  1.0000
  C   C10       1.0  0.23515  0.66405  0.38663  1.0000
  C   C11       1.0  0.73515  0.83595  0.38663  1.0000
  C   C12       1.0  0.76486  0.33595  0.61337  1.0000
  C   C13       1.0  0.19970  0.17601  0.47271  1.0000
  C   C14       1.0  0.30030  0.67601  0.52729  1.0000
  C   C15       1.0  0.80030  0.82399  0.52729  1.0000
  C   C16       1.0  0.69971  0.32399  0.47271  1.0000
  S   S1        1.0  0.37087  0.97976  0.80243  1.0000
  S   S2        1.0  0.12914  0.47975  0.19756  1.0000
  S   S3        1.0  0.62914  0.02025  0.19756  1.0000
  S   S4        1.0  0.87087  0.52025  0.80243  1.0000
  N   N1        1.0  0.37119  0.12286  0.88784  1.0000
  N   N2        1.0  0.12881  0.62286  0.11216  1.0000
  N   N3        1.0  0.62881  0.87714  0.11216  1.0000
  N   N4        1.0  0.87119  0.37714  0.88784  1.0000
  O   O1        1.0  0.26343  0.86062  0.84877  1.0000
  O   O2        1.0  0.23657  0.36062  0.15123  1.0000
  O   O3        1.0  0.73658  0.13938  0.15123  1.0000
  O   O4        1.0  0.76343  0.63938  0.84877  1.0000
  O   O5        1.0  0.55500  0.94053  0.76919  1.0000
  O   O6        1.0  0.94500  0.44053  0.23081  1.0000
  O   O7        1.0  0.44500  0.05947  0.23080  1.0000
  O   O8        1.0  0.05500  0.55948  0.76920  1.0000
  O   O9        1.0  0.24394  0.02178  0.65833  1.0000
  O   O10       1.0  0.25607  0.52178  0.34167  1.0000
  O   O11       1.0  0.75606  0.97822  0.34167  1.0000
  O   O12       1.0  0.74394  0.47822  0.65833  1.0000
  O   O13       1.0  0.42745  0.37172  0.90217  1.0000
  O   O14       1.0  0.07255  0.87172  0.09783  1.0000
  O   O15       1.0  0.57254  0.62828  0.09783  1.0000
  O   O16       1.0  0.92745  0.12828  0.90217  1.0000
