data_image0
_chemical_formula_structural       Ag4H32C20S8N12
_chemical_formula_sum              "Ag4 H32 C20 S8 N12"
_cell_length_a       6.57557
_cell_length_b       12.1185
_cell_length_c       12.1185
_cell_angle_alpha    69.3822
_cell_angle_beta     77.1102
_cell_angle_gamma    77.1103

_space_group_name_H-M_alt    "P 1"
_space_group_IT_number       1

loop_
  _space_group_symop_operation_xyz
  'x, y, z'

loop_
  _atom_site_type_symbol
  _atom_site_label
  _atom_site_symmetry_multiplicity
  _atom_site_fract_x
  _atom_site_fract_y
  _atom_site_fract_z
  _atom_site_occupancy
  Ag  Ag1       1.0  0.84702  0.88470  0.88868  1.0000
  Ag  Ag2       1.0  0.65298  0.11132  0.11530  1.0000
  Ag  Ag3       1.0  0.15298  0.11530  0.11132  1.0000
  Ag  Ag4       1.0  0.34701  0.88868  0.88470  1.0000
  H   H1        1.0  0.54396  0.12450  0.74532  1.0000
  H   H2        1.0  0.95604  0.25469  0.87550  1.0000
  H   H3        1.0  0.45604  0.87550  0.25469  1.0000
  H   H4        1.0  0.04396  0.74531  0.12450  1.0000
  H   H5        1.0  0.78214  0.97972  0.48031  1.0000
  H   H6        1.0  0.71786  0.51969  0.02028  1.0000
  H   H7        1.0  0.21787  0.02028  0.51969  1.0000
  H   H8        1.0  0.28213  0.48031  0.97972  1.0000
  H   H9        1.0  0.90018  0.19416  0.39529  1.0000
  H   H10       1.0  0.59983  0.60471  0.80584  1.0000
  H   H11       1.0  0.09983  0.80584  0.60472  1.0000
  H   H12       1.0  0.40017  0.39529  0.19416  1.0000
  H   H13       1.0  0.70968  0.16366  0.33017  1.0000
  H   H14       1.0  0.79032  0.66983  0.83634  1.0000
  H   H15       1.0  0.29032  0.83634  0.66983  1.0000
  H   H16       1.0  0.20968  0.33017  0.16366  1.0000
  H   H17       1.0  0.41556  0.25058  0.45014  1.0000
  H   H18       1.0  0.08444  0.54986  0.74942  1.0000
  H   H19       1.0  0.58444  0.74942  0.54986  1.0000
  H   H20       1.0  0.91556  0.45014  0.25058  1.0000
  H   H21       1.0  0.59523  0.35558  0.38673  1.0000
  H   H22       1.0  0.90478  0.61327  0.64442  1.0000
  H   H23       1.0  0.40477  0.64442  0.61327  1.0000
  H   H24       1.0  0.09522  0.38673  0.35558  1.0000
  H   H25       1.0  0.73690  0.29159  0.57537  1.0000
  H   H26       1.0  0.76310  0.42463  0.70841  1.0000
  H   H27       1.0  0.26310  0.70841  0.42464  1.0000
  H   H28       1.0  0.23690  0.57536  0.29159  1.0000
  H   H29       1.0  0.45600  0.31741  0.61204  1.0000
  H   H30       1.0  0.04400  0.38796  0.68259  1.0000
  H   H31       1.0  0.54400  0.68259  0.38797  1.0000
  H   H32       1.0  0.95600  0.61203  0.31741  1.0000
  C   C1        1.0  0.08201  0.11137  0.69573  1.0000
  C   C2        1.0  0.41800  0.30426  0.88863  1.0000
  C   C3        1.0  0.91801  0.88864  0.30425  1.0000
  C   C4        1.0  0.58199  0.69575  0.11136  1.0000
  C   C5        1.0  0.66047  0.04312  0.61918  1.0000
  C   C6        1.0  0.83953  0.38082  0.95688  1.0000
  C   C7        1.0  0.33953  0.95688  0.38082  1.0000
  C   C8        1.0  0.16047  0.61918  0.04312  1.0000
  C   C9        1.0  0.74003  0.17220  0.41199  1.0000
  C   C10       1.0  0.75997  0.58801  0.82780  1.0000
  C   C11       1.0  0.25997  0.82780  0.58801  1.0000
  C   C12       1.0  0.24003  0.41199  0.17220  1.0000
  C   C13       1.0  0.57331  0.26693  0.45031  1.0000
  C   C14       1.0  0.92669  0.54969  0.73307  1.0000
  C   C15       1.0  0.42669  0.73307  0.54969  1.0000
  C   C16       1.0  0.07331  0.45031  0.26693  1.0000
  C   C17       1.0  0.59056  0.26124  0.57575  1.0000
  C   C18       1.0  0.90944  0.42425  0.73876  1.0000
  C   C19       1.0  0.40944  0.73875  0.42425  1.0000
  C   C20       1.0  0.09056  0.57574  0.26124  1.0000
  S   S1        1.0  0.03792  0.06733  0.84318  1.0000
  S   S2        1.0  0.46207  0.15681  0.93268  1.0000
  S   S3        1.0  0.96208  0.93268  0.15681  1.0000
  S   S4        1.0  0.53792  0.84319  0.06732  1.0000
  S   S5        1.0  0.66254  0.89849  0.71701  1.0000
  S   S6        1.0  0.83746  0.28299  0.10151  1.0000
  S   S7        1.0  0.33746  0.10151  0.28299  1.0000
  S   S8        1.0  0.16254  0.71701  0.89849  1.0000
  N   N1        1.0  0.59149  0.13854  0.65585  1.0000
  N   N2        1.0  0.90851  0.34415  0.86145  1.0000
  N   N3        1.0  0.40851  0.86145  0.34415  1.0000
  N   N4        1.0  0.09149  0.65585  0.13855  1.0000
  N   N5        1.0  0.73048  0.05615  0.50423  1.0000
  N   N6        1.0  0.76952  0.49577  0.94385  1.0000
  N   N7        1.0  0.26953  0.94385  0.49577  1.0000
  N   N8        1.0  0.23047  0.50423  0.05615  1.0000
  N   N9        1.0  0.11303  0.14447  0.59015  1.0000
  N   N10       1.0  0.38696  0.40984  0.85553  1.0000
  N   N11       1.0  0.88697  0.85554  0.40985  1.0000
  N   N12       1.0  0.61303  0.59016  0.14446  1.0000
