data_image0
_chemical_formula_structural       Cd2H12C14N4O16
_chemical_formula_sum              "Cd2 H12 C14 N4 O16"
_cell_length_a       5.8606
_cell_length_b       8.73015
_cell_length_c       10.1739
_cell_angle_alpha    88.6527
_cell_angle_beta     82.202
_cell_angle_gamma    88.6759

_space_group_name_H-M_alt    "P 1"
_space_group_IT_number       1

loop_
  _space_group_symop_operation_xyz
  'x, y, z'

loop_
  _atom_site_type_symbol
  _atom_site_label
  _atom_site_symmetry_multiplicity
  _atom_site_fract_x
  _atom_site_fract_y
  _atom_site_fract_z
  _atom_site_occupancy
  Cd  Cd1       1.0  0.73340  0.63053  0.55334  1.0000
  Cd  Cd2       1.0  0.26658  0.36947  0.44666  1.0000
  H   H1        1.0  0.14127  0.59415  0.00948  1.0000
  H   H2        1.0  0.85873  0.40585  0.99053  1.0000
  H   H3        1.0  0.34734  0.77746  0.13612  1.0000
  H   H4        1.0  0.65268  0.22255  0.86388  1.0000
  H   H5        1.0  0.71368  0.89322  0.02623  1.0000
  H   H6        1.0  0.28634  0.10678  0.97376  1.0000
  H   H7        1.0  0.11085  0.01349  0.75185  1.0000
  H   H8        1.0  0.88916  0.98651  0.24815  1.0000
  H   H9        1.0  0.95832  0.38260  0.68071  1.0000
  H   H10       1.0  0.04167  0.61740  0.31930  1.0000
  H   H11       1.0  0.79895  0.29686  0.58027  1.0000
  H   H12       1.0  0.20104  0.70314  0.41974  1.0000
  C   C1        1.0  0.27458  0.50956  0.74839  1.0000
  C   C2        1.0  0.72542  0.49044  0.25162  1.0000
  C   C3        1.0  0.39357  0.61338  0.83388  1.0000
  C   C4        1.0  0.60643  0.38662  0.16612  1.0000
  C   C5        1.0  0.30101  0.64606  0.96441  1.0000
  C   C6        1.0  0.69899  0.35395  0.03559  1.0000
  C   C7        1.0  0.41660  0.74693  0.03513  1.0000
  C   C8        1.0  0.58342  0.25307  0.96487  1.0000
  C   C9        1.0  0.62052  0.81231  0.97471  1.0000
  C   C10       1.0  0.37949  0.18769  0.02528  1.0000
  C   C11       1.0  0.70056  0.77392  0.84386  1.0000
  C   C12       1.0  0.29945  0.22607  0.15613  1.0000
  C   C13       1.0  0.90676  0.84404  0.76343  1.0000
  C   C14       1.0  0.09324  0.15595  0.23657  1.0000
  N   N1        1.0  0.58950  0.67627  0.77649  1.0000
  N   N2        1.0  0.41050  0.32373  0.22351  1.0000
  N   N3        1.0  0.55683  0.87758  0.36975  1.0000
  N   N4        1.0  0.44316  0.12242  0.63026  1.0000
  O   O1        1.0  0.37265  0.49398  0.62913  1.0000
  O   O2        1.0  0.62734  0.50602  0.37088  1.0000
  O   O3        1.0  0.08976  0.44829  0.79937  1.0000
  O   O4        1.0  0.91023  0.55171  0.20064  1.0000
  O   O5        1.0  0.97692  0.80170  0.64943  1.0000
  O   O6        1.0  0.02306  0.19831  0.35055  1.0000
  O   O7        1.0  0.00125  0.95426  0.82251  1.0000
  O   O8        1.0  0.99876  0.04573  0.17748  1.0000
  O   O9        1.0  0.90226  0.38285  0.59082  1.0000
  O   O10       1.0  0.09773  0.61715  0.40919  1.0000
  O   O11       1.0  0.77614  0.87846  0.36190  1.0000
  O   O12       1.0  0.22386  0.12155  0.63811  1.0000
  O   O13       1.0  0.44630  0.80265  0.46723  1.0000
  O   O14       1.0  0.55370  0.19735  0.53277  1.0000
  O   O15       1.0  0.45328  0.94488  0.28562  1.0000
  O   O16       1.0  0.54672  0.05512  0.71439  1.0000
