data_image0
_chemical_formula_structural       Cd2H32C44N4O8
_chemical_formula_sum              "Cd2 H32 C44 N4 O8"
_cell_length_a       8.90149
_cell_length_b       10.3201
_cell_length_c       13.1166
_cell_angle_alpha    99.6229
_cell_angle_beta     93.7126
_cell_angle_gamma    111.804

_space_group_name_H-M_alt    "P 1"
_space_group_IT_number       1

loop_
  _space_group_symop_operation_xyz
  'x, y, z'

loop_
  _atom_site_type_symbol
  _atom_site_label
  _atom_site_symmetry_multiplicity
  _atom_site_fract_x
  _atom_site_fract_y
  _atom_site_fract_z
  _atom_site_occupancy
  Cd  Cd1       1.0  0.81411  0.39261  0.37787  1.0000
  Cd  Cd2       1.0  0.18589  0.60738  0.62212  1.0000
  H   H1        1.0  0.66713  0.55130  0.53758  1.0000
  H   H2        1.0  0.33286  0.44870  0.46242  1.0000
  H   H3        1.0  0.53398  0.53595  0.69701  1.0000
  H   H4        1.0  0.46602  0.46405  0.30299  1.0000
  H   H5        1.0  0.51731  0.10587  0.66605  1.0000
  H   H6        1.0  0.48268  0.89414  0.33395  1.0000
  H   H7        1.0  0.65223  0.14031  0.50529  1.0000
  H   H8        1.0  0.34777  0.85969  0.49471  1.0000
  H   H9        1.0  0.41374  0.19963  0.81463  1.0000
  H   H10       1.0  0.58626  0.80037  0.18536  1.0000
  H   H11       1.0  0.40800  0.49927  0.82121  1.0000
  H   H12       1.0  0.59200  0.50073  0.17880  1.0000
  H   H13       1.0  0.27707  0.27253  0.95669  1.0000
  H   H14       1.0  0.72293  0.72747  0.04331  1.0000
  H   H15       1.0  0.28370  0.57459  0.96209  1.0000
  H   H16       1.0  0.71630  0.42541  0.03791  1.0000
  H   H17       1.0  0.15365  0.24495  0.09003  1.0000
  H   H18       1.0  0.84636  0.75505  0.90998  1.0000
  H   H19       1.0  0.00406  0.23557  0.24319  1.0000
  H   H20       1.0  0.99595  0.76443  0.75682  1.0000
  H   H21       1.0  0.00014  0.63582  0.24823  1.0000
  H   H22       1.0  0.99986  0.36419  0.75177  1.0000
  H   H23       1.0  0.15779  0.66695  0.09657  1.0000
  H   H24       1.0  0.84221  0.33306  0.90343  1.0000
  H   H25       1.0  0.12423  0.89863  0.62508  1.0000
  H   H26       1.0  0.87575  0.10136  0.37493  1.0000
  H   H27       1.0  0.81482  0.83983  0.34116  1.0000
  H   H28       1.0  0.18516  0.16017  0.65885  1.0000
  H   H29       1.0  0.37068  0.16656  0.06839  1.0000
  H   H30       1.0  0.62933  0.83343  0.93160  1.0000
  H   H31       1.0  0.73224  0.99223  0.11132  1.0000
  H   H32       1.0  0.26777  0.00776  0.88867  1.0000
  C   C1        1.0  0.63212  0.45445  0.56869  1.0000
  C   C2        1.0  0.36788  0.54555  0.43131  1.0000
  C   C3        1.0  0.55862  0.44538  0.65840  1.0000
  C   C4        1.0  0.44137  0.55463  0.34160  1.0000
  C   C5        1.0  0.51593  0.31899  0.69723  1.0000
  C   C6        1.0  0.48407  0.68101  0.30277  1.0000
  C   C7        1.0  0.55035  0.20701  0.64036  1.0000
  C   C8        1.0  0.44965  0.79300  0.35964  1.0000
  C   C9        1.0  0.62382  0.22503  0.55063  1.0000
  C   C10       1.0  0.37618  0.77498  0.44936  1.0000
  C   C11       1.0  0.43638  0.30056  0.78984  1.0000
  C   C12       1.0  0.56362  0.69944  0.21016  1.0000
  C   C13       1.0  0.38667  0.39781  0.84467  1.0000
  C   C14       1.0  0.61333  0.60219  0.15533  1.0000
  C   C15       1.0  0.30265  0.37467  0.93333  1.0000
  C   C16       1.0  0.69735  0.62533  0.06667  1.0000
  C   C17       1.0  0.25523  0.47366  0.98787  1.0000
  C   C18       1.0  0.74478  0.52634  0.01213  1.0000
  C   C19       1.0  0.16902  0.45797  0.07804  1.0000
  C   C20       1.0  0.83099  0.54203  0.92196  1.0000
  C   C21       1.0  0.12377  0.33541  0.12204  1.0000
  C   C22       1.0  0.87624  0.66460  0.87796  1.0000
  C   C23       1.0  0.03999  0.32890  0.20766  1.0000
  C   C24       1.0  0.96001  0.67111  0.79235  1.0000
  C   C25       1.0  0.03916  0.55309  0.21114  1.0000
  C   C26       1.0  0.96085  0.44691  0.78886  1.0000
  C   C27       1.0  0.12551  0.56890  0.12637  1.0000
  C   C28       1.0  0.87450  0.43111  0.87364  1.0000
  C   C29       1.0  0.06916  0.94314  0.57093  1.0000
  C   C30       1.0  0.93082  0.05686  0.42908  1.0000
  C   C31       1.0  0.96416  0.85366  0.48111  1.0000
  C   C32       1.0  0.03582  0.14633  0.51889  1.0000
  C   C33       1.0  0.89580  0.91133  0.41042  1.0000
  C   C34       1.0  0.10417  0.08867  0.58959  1.0000
  C   C35       1.0  0.92218  0.69663  0.46122  1.0000
  C   C36       1.0  0.07781  0.30336  0.53877  1.0000
  C   C37       1.0  0.42561  0.09246  0.03736  1.0000
  C   C38       1.0  0.57440  0.90754  0.96263  1.0000
  C   C39       1.0  0.55572  0.08730  0.10037  1.0000
  C   C40       1.0  0.44429  0.91270  0.89963  1.0000
  C   C41       1.0  0.63004  0.99418  0.06192  1.0000
  C   C42       1.0  0.36998  0.00582  0.93807  1.0000
  C   C43       1.0  0.61919  0.18423  0.20611  1.0000
  C   C44       1.0  0.38082  0.81577  0.79388  1.0000
  N   N1        1.0  0.66477  0.34695  0.51483  1.0000
  N   N2        1.0  0.33522  0.65306  0.48517  1.0000
  N   N3        1.0  0.99599  0.43499  0.25155  1.0000
  N   N4        1.0  0.00401  0.56502  0.74845  1.0000
  O   O1        1.0  0.97861  0.64359  0.52751  1.0000
  O   O2        1.0  0.02139  0.35640  0.47248  1.0000
  O   O3        1.0  0.82570  0.62003  0.37807  1.0000
  O   O4        1.0  0.17430  0.37996  0.62193  1.0000
  O   O5        1.0  0.59273  0.29847  0.22382  1.0000
  O   O6        1.0  0.40727  0.70152  0.77618  1.0000
  O   O7        1.0  0.70270  0.14996  0.27186  1.0000
  O   O8        1.0  0.29731  0.85003  0.72814  1.0000
