data_image0
_chemical_formula_structural       Cd2H24C32N2O14
_chemical_formula_sum              "Cd2 H24 C32 N2 O14"
_cell_length_a       7.1164
_cell_length_b       7.47599
_cell_length_c       14.9557
_cell_angle_alpha    80.5394
_cell_angle_beta     88.7819
_cell_angle_gamma    68.5604

_space_group_name_H-M_alt    "P 1"
_space_group_IT_number       1

loop_
  _space_group_symop_operation_xyz
  'x, y, z'

loop_
  _atom_site_type_symbol
  _atom_site_label
  _atom_site_symmetry_multiplicity
  _atom_site_fract_x
  _atom_site_fract_y
  _atom_site_fract_z
  _atom_site_occupancy
  Cd  Cd1       1.0  0.73305  0.19169  0.46427  1.0000
  Cd  Cd2       1.0  0.26692  0.80832  0.53573  1.0000
  H   H1        1.0  0.98997  0.05899  0.06458  1.0000
  H   H2        1.0  0.01006  0.94101  0.93541  1.0000
  H   H3        1.0  0.65072  0.92034  0.38519  1.0000
  H   H4        1.0  0.34924  0.07966  0.61482  1.0000
  H   H5        1.0  0.89535  0.82651  0.40495  1.0000
  H   H6        1.0  0.10461  0.17349  0.59505  1.0000
  H   H7        1.0  0.70561  0.15807  0.25460  1.0000
  H   H8        1.0  0.29440  0.84192  0.74541  1.0000
  H   H9        1.0  0.64030  0.36539  0.10016  1.0000
  H   H10       1.0  0.35972  0.63460  0.89985  1.0000
  H   H11       1.0  0.58080  0.85491  0.23334  1.0000
  H   H12       1.0  0.41921  0.14509  0.76666  1.0000
  H   H13       1.0  0.64254  0.62916  0.37968  1.0000
  H   H14       1.0  0.35745  0.37084  0.62033  1.0000
  H   H15       1.0  0.58696  0.67031  0.00595  1.0000
  H   H16       1.0  0.41305  0.32966  0.99406  1.0000
  H   H17       1.0  0.49323  0.02868  0.10071  1.0000
  H   H18       1.0  0.50678  0.97130  0.89929  1.0000
  H   H19       1.0  0.17015  0.12714  0.20272  1.0000
  H   H20       1.0  0.82985  0.87287  0.79728  1.0000
  H   H21       1.0  0.09316  0.41109  0.07852  1.0000
  H   H22       1.0  0.90686  0.58891  0.92148  1.0000
  H   H23       1.0  0.13220  0.76522  0.27246  1.0000
  H   H24       1.0  0.86780  0.23478  0.72754  1.0000
  C   C1        1.0  0.67333  0.31416  0.24557  1.0000
  C   C2        1.0  0.32668  0.68583  0.75444  1.0000
  C   C3        1.0  0.63686  0.43018  0.16063  1.0000
  C   C4        1.0  0.36316  0.56982  0.83937  1.0000
  C   C5        1.0  0.60183  0.63008  0.15243  1.0000
  C   C6        1.0  0.39818  0.36991  0.84757  1.0000
  C   C7        1.0  0.60472  0.70266  0.23321  1.0000
  C   C8        1.0  0.39528  0.29734  0.76680  1.0000
  C   C9        1.0  0.64177  0.57737  0.31566  1.0000
  C   C10       1.0  0.35822  0.42263  0.68434  1.0000
  C   C11       1.0  0.56778  0.74911  0.06309  1.0000
  C   C12       1.0  0.43223  0.25087  0.93692  1.0000
  C   C13       1.0  0.51534  0.94572  0.04499  1.0000
  C   C14       1.0  0.48469  0.05427  0.95500  1.0000
  C   C15       1.0  0.18964  0.46531  0.32644  1.0000
  C   C16       1.0  0.81034  0.53470  0.67356  1.0000
  C   C17       1.0  0.20086  0.28348  0.30703  1.0000
  C   C18       1.0  0.79913  0.71653  0.69297  1.0000
  C   C19       1.0  0.16702  0.26638  0.21730  1.0000
  C   C20       1.0  0.83299  0.73364  0.78270  1.0000
  C   C21       1.0  0.12329  0.42555  0.14758  1.0000
  C   C22       1.0  0.87673  0.57444  0.85242  1.0000
  C   C23       1.0  0.10993  0.60724  0.16683  1.0000
  C   C24       1.0  0.89008  0.39276  0.83317  1.0000
  C   C25       1.0  0.14173  0.62550  0.25639  1.0000
  C   C26       1.0  0.85825  0.37450  0.74361  1.0000
  C   C27       1.0  0.24118  0.49237  0.41919  1.0000
  C   C28       1.0  0.75880  0.50764  0.58080  1.0000
  C   C29       1.0  0.23713  0.10771  0.37983  1.0000
  C   C30       1.0  0.76287  0.89229  0.62017  1.0000
  C   C31       1.0  0.06193  0.77679  0.09285  1.0000
  C   C32       1.0  0.93810  0.22320  0.90715  1.0000
  N   N1        1.0  0.67629  0.38611  0.32218  1.0000
  N   N2        1.0  0.32371  0.61389  0.67782  1.0000
  O   O1        1.0  0.37255  0.35285  0.47002  1.0000
  O   O2        1.0  0.62744  0.64716  0.52998  1.0000
  O   O3        1.0  0.14958  0.66246  0.43912  1.0000
  O   O4        1.0  0.85040  0.33753  0.56088  1.0000
  O   O5        1.0  0.40062  0.96225  0.38393  1.0000
  O   O6        1.0  0.59935  0.03774  0.61607  1.0000
  O   O7        1.0  0.09498  0.10883  0.43301  1.0000
  O   O8        1.0  0.90500  0.89118  0.56698  1.0000
  O   O9        1.0  0.06111  0.75942  0.01099  1.0000
  O   O10       1.0  0.93890  0.24059  0.98901  1.0000
  O   O11       1.0  0.01984  0.94728  0.11956  1.0000
  O   O12       1.0  0.98020  0.05272  0.88044  1.0000
  O   O13       1.0  0.77938  0.94305  0.37733  1.0000
  O   O14       1.0  0.22058  0.05696  0.62267  1.0000
