data_image0
_chemical_formula_structural       H20Pb4C16O20
_chemical_formula_sum              "H20 Pb4 C16 O20"
_cell_length_a       7.83644
_cell_length_b       7.27676
_cell_length_c       12.0203
_cell_angle_alpha    102.176
_cell_angle_beta     89.9987
_cell_angle_gamma    90.0084

_space_group_name_H-M_alt    "P 1"
_space_group_IT_number       1

loop_
  _space_group_symop_operation_xyz
  'x, y, z'

loop_
  _atom_site_type_symbol
  _atom_site_label
  _atom_site_symmetry_multiplicity
  _atom_site_fract_x
  _atom_site_fract_y
  _atom_site_fract_z
  _atom_site_occupancy
  H   H1        1.0  0.30845  0.14518  0.39337  1.0000
  H   H2        1.0  0.80836  0.85471  0.10658  1.0000
  H   H3        1.0  0.69161  0.85485  0.60663  1.0000
  H   H4        1.0  0.19160  0.14527  0.89340  1.0000
  H   H5        1.0  0.20702  0.97851  0.45752  1.0000
  H   H6        1.0  0.70693  0.02141  0.04246  1.0000
  H   H7        1.0  0.79302  0.02154  0.54249  1.0000
  H   H8        1.0  0.29303  0.97855  0.95750  1.0000
  H   H9        1.0  0.41496  0.03661  0.61741  1.0000
  H   H10       1.0  0.91492  0.96337  0.88259  1.0000
  H   H11       1.0  0.58506  0.96339  0.38259  1.0000
  H   H12       1.0  0.08505  0.03660  0.11739  1.0000
  H   H13       1.0  0.89894  0.27613  0.85855  1.0000
  H   H14       1.0  0.39895  0.72387  0.64148  1.0000
  H   H15       1.0  0.10107  0.72392  0.14146  1.0000
  H   H16       1.0  0.60110  0.27610  0.35855  1.0000
  H   H17       1.0  0.77505  0.20811  0.75356  1.0000
  H   H18       1.0  0.27501  0.79193  0.74646  1.0000
  H   H19       1.0  0.22494  0.79195  0.24646  1.0000
  H   H20       1.0  0.72493  0.20808  0.25350  1.0000
  Pb  Pb1       1.0  0.89606  0.51025  0.67341  1.0000
  Pb  Pb2       1.0  0.39600  0.48970  0.82658  1.0000
  Pb  Pb3       1.0  0.10391  0.48975  0.32658  1.0000
  Pb  Pb4       1.0  0.60391  0.51031  0.17347  1.0000
  C   C1        1.0  0.28111  0.11012  0.47647  1.0000
  C   C2        1.0  0.78105  0.88984  0.02350  1.0000
  C   C3        1.0  0.71894  0.88992  0.52353  1.0000
  C   C4        1.0  0.21891  0.11012  0.97648  1.0000
  C   C5        1.0  0.44631  0.07939  0.53744  1.0000
  C   C6        1.0  0.94628  0.92059  0.96255  1.0000
  C   C7        1.0  0.55373  0.92063  0.46257  1.0000
  C   C8        1.0  0.05369  0.07938  0.03743  1.0000
  C   C9        1.0  0.55750  0.25571  0.56834  1.0000
  C   C10       1.0  0.05745  0.74425  0.93165  1.0000
  C   C11       1.0  0.44256  0.74429  0.43169  1.0000
  C   C12       1.0  0.94251  0.25572  0.06833  1.0000
  C   C13       1.0  0.15954  0.25555  0.54151  1.0000
  C   C14       1.0  0.65949  0.74440  0.95843  1.0000
  C   C15       1.0  0.84051  0.74450  0.45849  1.0000
  C   C16       1.0  0.34049  0.25554  0.04155  1.0000
  O   O1        1.0  0.59969  0.31103  0.67447  1.0000
  O   O2        1.0  0.09967  0.68891  0.82553  1.0000
  O   O3        1.0  0.40027  0.68899  0.32558  1.0000
  O   O4        1.0  0.90024  0.31103  0.17445  1.0000
  O   O5        1.0  0.61351  0.33642  0.49324  1.0000
  O   O6        1.0  0.11341  0.66353  0.00675  1.0000
  O   O7        1.0  0.38664  0.66354  0.50680  1.0000
  O   O8        1.0  0.88659  0.33647  0.99323  1.0000
  O   O9        1.0  0.19594  0.34815  0.64089  1.0000
  O   O10       1.0  0.69589  0.65179  0.85906  1.0000
  O   O11       1.0  0.80403  0.65176  0.35916  1.0000
  O   O12       1.0  0.30406  0.34823  0.14090  1.0000
  O   O13       1.0  0.01819  0.27835  0.49270  1.0000
  O   O14       1.0  0.51813  0.72160  0.00724  1.0000
  O   O15       1.0  0.98193  0.72182  0.50725  1.0000
  O   O16       1.0  0.48189  0.27827  0.99276  1.0000
  O   O17       1.0  0.89544  0.23756  0.77226  1.0000
  O   O18       1.0  0.39538  0.76244  0.72777  1.0000
  O   O19       1.0  0.10456  0.76252  0.22775  1.0000
  O   O20       1.0  0.60457  0.23753  0.27226  1.0000
