data_image0
_chemical_formula_structural       Ag2H20C22S2N4O6
_chemical_formula_sum              "Ag2 H20 C22 S2 N4 O6"
_cell_length_a       7.58969
_cell_length_b       8.95838
_cell_length_c       10.8885
_cell_angle_alpha    68.5008
_cell_angle_beta     73.4454
_cell_angle_gamma    73.0685

_space_group_name_H-M_alt    "P 1"
_space_group_IT_number       1

loop_
  _space_group_symop_operation_xyz
  'x, y, z'

loop_
  _atom_site_type_symbol
  _atom_site_label
  _atom_site_symmetry_multiplicity
  _atom_site_fract_x
  _atom_site_fract_y
  _atom_site_fract_z
  _atom_site_occupancy
  Ag  Ag1       1.0  0.30377  0.03995  0.92678  1.0000
  Ag  Ag2       1.0  0.69622  0.96006  0.07322  1.0000
  H   H1        1.0  0.61028  0.79606  0.81462  1.0000
  H   H2        1.0  0.38970  0.20394  0.18537  1.0000
  H   H3        1.0  0.96601  0.76765  0.41155  1.0000
  H   H4        1.0  0.03400  0.23235  0.58845  1.0000
  H   H5        1.0  0.02739  0.28868  0.05336  1.0000
  H   H6        1.0  0.97261  0.71133  0.94664  1.0000
  H   H7        1.0  0.37066  0.28175  0.64086  1.0000
  H   H8        1.0  0.62934  0.71826  0.35914  1.0000
  H   H9        1.0  0.81198  0.29966  0.26777  1.0000
  H   H10       1.0  0.18802  0.70035  0.73224  1.0000
  H   H11       1.0  0.83750  0.78156  0.60356  1.0000
  H   H12       1.0  0.16248  0.21844  0.39644  1.0000
  H   H13       1.0  0.57920  0.28918  0.41956  1.0000
  H   H14       1.0  0.42080  0.71082  0.58043  1.0000
  H   H15       1.0  0.18505  0.78089  0.19296  1.0000
  H   H16       1.0  0.81495  0.21912  0.80703  1.0000
  H   H17       1.0  0.70157  0.52393  0.92554  1.0000
  H   H18       1.0  0.29843  0.47606  0.07447  1.0000
  H   H19       1.0  0.64597  0.35143  0.06467  1.0000
  H   H20       1.0  0.35404  0.64856  0.93534  1.0000
  C   C1        1.0  0.60891  0.90150  0.72390  1.0000
  C   C2        1.0  0.39107  0.09849  0.27610  1.0000
  C   C3        1.0  0.97354  0.88714  0.33649  1.0000
  C   C4        1.0  0.02646  0.11287  0.66351  1.0000
  C   C5        1.0  0.73201  0.03497  0.49037  1.0000
  C   C6        1.0  0.26798  0.96503  0.50962  1.0000
  C   C7        1.0  0.00759  0.17584  0.13538  1.0000
  C   C8        1.0  0.99241  0.82416  0.86462  1.0000
  C   C9        1.0  0.47501  0.17299  0.62704  1.0000
  C   C10       1.0  0.52498  0.82701  0.37296  1.0000
  C   C11       1.0  0.88575  0.17982  0.25700  1.0000
  C   C12       1.0  0.11425  0.82017  0.74300  1.0000
  C   C13       1.0  0.86398  0.03324  0.36119  1.0000
  C   C14       1.0  0.13602  0.96675  0.63882  1.0000
  C   C15       1.0  0.73588  0.89560  0.60482  1.0000
  C   C16       1.0  0.26410  0.10440  0.39518  1.0000
  C   C17       1.0  0.59639  0.17642  0.50386  1.0000
  C   C18       1.0  0.40361  0.82358  0.49613  1.0000
  C   C19       1.0  0.09453  0.89217  0.21298  1.0000
  C   C20       1.0  0.90547  0.10784  0.78702  1.0000
  C   C21       1.0  0.59621  0.48279  0.01633  1.0000
  C   C22       1.0  0.40381  0.51722  0.98366  1.0000
  S   S1        1.0  0.58888  0.58817  0.13108  1.0000
  S   S2        1.0  0.41113  0.41183  0.86892  1.0000
  N   N1        1.0  0.47918  0.03765  0.73568  1.0000
  N   N2        1.0  0.52081  0.96235  0.26432  1.0000
  N   N3        1.0  0.11061  0.03432  0.11280  1.0000
  N   N4        1.0  0.88939  0.96567  0.88721  1.0000
  O   O1        1.0  0.50562  0.76134  0.06446  1.0000
  O   O2        1.0  0.49439  0.23866  0.93554  1.0000
  O   O3        1.0  0.78463  0.56608  0.14144  1.0000
  O   O4        1.0  0.21539  0.43391  0.85856  1.0000
  O   O5        1.0  0.46845  0.51334  0.25843  1.0000
  O   O6        1.0  0.53156  0.48665  0.74158  1.0000
