data_image0
_chemical_formula_structural       Ni2H16C24N8
_chemical_formula_sum              "Ni2 H16 C24 N8"
_cell_length_a       6.7231
_cell_length_b       13.2364
_cell_length_c       13.6351
_cell_angle_alpha    119.037
_cell_angle_beta     104.256
_cell_angle_gamma    89.9881

_space_group_name_H-M_alt    "P 1"
_space_group_IT_number       1

loop_
  _space_group_symop_operation_xyz
  'x, y, z'

loop_
  _atom_site_type_symbol
  _atom_site_label
  _atom_site_symmetry_multiplicity
  _atom_site_fract_x
  _atom_site_fract_y
  _atom_site_fract_z
  _atom_site_occupancy
  Ni  Ni1       1.0  1.00000  0.50000  0.50000  1.0000
  Ni  Ni2       1.0  0.50000  0.50000  0.50000  1.0000
  H   H1        1.0  0.86779  0.09033  0.09405  1.0000
  H   H2        1.0  0.77359  0.90957  0.90569  1.0000
  H   H3        1.0  0.72645  0.50397  0.09438  1.0000
  H   H4        1.0  0.63217  0.49638  0.90597  1.0000
  H   H5        1.0  0.13220  0.90967  0.90594  1.0000
  H   H6        1.0  0.22641  0.09043  0.09432  1.0000
  H   H7        1.0  0.27355  0.49603  0.90562  1.0000
  H   H8        1.0  0.36783  0.50362  0.09403  1.0000
  H   H9        1.0  0.31352  0.26548  0.27075  1.0000
  H   H10       1.0  0.04203  0.73518  0.72923  1.0000
  H   H11       1.0  0.45788  0.50588  0.27072  1.0000
  H   H12       1.0  0.18654  0.49462  0.72934  1.0000
  H   H13       1.0  0.68648  0.73452  0.72925  1.0000
  H   H14       1.0  0.95798  0.26483  0.27077  1.0000
  H   H15       1.0  0.54212  0.49411  0.72928  1.0000
  H   H16       1.0  0.81346  0.50538  0.27066  1.0000
  C   C1        1.0  0.47994  0.28078  0.28791  1.0000
  C   C2        1.0  0.19129  0.71957  0.71205  1.0000
  C   C3        1.0  0.30870  0.50760  0.28800  1.0000
  C   C4        1.0  0.02009  0.49269  0.71207  1.0000
  C   C5        1.0  0.52006  0.71922  0.71209  1.0000
  C   C6        1.0  0.80871  0.28043  0.28795  1.0000
  C   C7        1.0  0.69130  0.49240  0.71200  1.0000
  C   C8        1.0  0.97991  0.50730  0.28793  1.0000
  C   C9        1.0  0.61140  0.21469  0.22223  1.0000
  C   C10       1.0  0.38860  0.78531  0.77777  1.0000
  C   C11       1.0  0.11143  0.50769  0.22228  1.0000
  C   C12       1.0  0.88857  0.49231  0.77772  1.0000
  C   C13       1.0  0.55517  0.10568  0.11025  1.0000
  C   C14       1.0  0.44483  0.89432  0.88975  1.0000
  C   C15       1.0  0.05523  0.50471  0.11030  1.0000
  C   C16       1.0  0.94477  0.49529  0.88970  1.0000
  C   C17       1.0  0.70542  0.05137  0.05354  1.0000
  C   C18       1.0  0.65178  0.94858  0.94628  1.0000
  C   C19       1.0  0.84823  0.50238  0.05376  1.0000
  C   C20       1.0  0.79452  0.49778  0.94643  1.0000
  C   C21       1.0  0.29458  0.94863  0.94646  1.0000
  C   C22       1.0  0.34822  0.05142  0.05372  1.0000
  C   C23       1.0  0.15178  0.49762  0.94624  1.0000
  C   C24       1.0  0.20549  0.50222  0.05357  1.0000
  N   N1        1.0  0.59177  0.37760  0.38468  1.0000
  N   N2        1.0  0.20625  0.62260  0.61529  1.0000
  N   N3        1.0  0.29369  0.50735  0.38472  1.0000
  N   N4        1.0  0.90830  0.49283  0.61531  1.0000
  N   N5        1.0  0.40823  0.62240  0.61532  1.0000
  N   N6        1.0  0.79375  0.37740  0.38471  1.0000
  N   N7        1.0  0.70631  0.49265  0.61528  1.0000
  N   N8        1.0  0.09170  0.50718  0.38469  1.0000
