data_image0
_chemical_formula_structural       Cu4H16C16N4O16
_chemical_formula_sum              "Cu4 H16 C16 N4 O16"
_cell_length_a       6.85016
_cell_length_b       7.73677
_cell_length_c       12.9088
_cell_angle_alpha    100.293
_cell_angle_beta     90.0073
_cell_angle_gamma    116.297

_space_group_name_H-M_alt    "P 1"
_space_group_IT_number       1

loop_
  _space_group_symop_operation_xyz
  'x, y, z'

loop_
  _atom_site_type_symbol
  _atom_site_label
  _atom_site_symmetry_multiplicity
  _atom_site_fract_x
  _atom_site_fract_y
  _atom_site_fract_z
  _atom_site_occupancy
  Cu  Cu1       1.0  0.48970  0.64899  0.56013  1.0000
  Cu  Cu2       1.0  0.84075  0.35063  0.93994  1.0000
  Cu  Cu3       1.0  0.51029  0.35100  0.43986  1.0000
  Cu  Cu4       1.0  0.15925  0.64937  0.06007  1.0000
  H   H1        1.0  0.81053  0.45078  0.71436  1.0000
  H   H2        1.0  0.36034  0.54867  0.78591  1.0000
  H   H3        1.0  0.18947  0.54922  0.28564  1.0000
  H   H4        1.0  0.63966  0.45132  0.21409  1.0000
  H   H5        1.0  0.02031  0.84051  0.42070  1.0000
  H   H6        1.0  0.18036  0.16046  0.07985  1.0000
  H   H7        1.0  0.97968  0.15946  0.57929  1.0000
  H   H8        1.0  0.81964  0.83954  0.92015  1.0000
  H   H9        1.0  0.75327  0.00006  0.74967  1.0000
  H   H10       1.0  0.24673  0.99995  0.25034  1.0000
  H   H11       1.0  0.12273  0.76944  0.60963  1.0000
  H   H12       1.0  0.35328  0.22955  0.89056  1.0000
  H   H13       1.0  0.87727  0.23057  0.39037  1.0000
  H   H14       1.0  0.64671  0.77047  0.10944  1.0000
  H   H15       1.0  0.04495  0.99963  0.75014  1.0000
  H   H16       1.0  0.95505  0.00039  0.24985  1.0000
  C   C1        1.0  0.71475  0.46289  0.64950  1.0000
  C   C2        1.0  0.25229  0.53681  0.85069  1.0000
  C   C3        1.0  0.28525  0.53710  0.35050  1.0000
  C   C4        1.0  0.74772  0.46318  0.14932  1.0000
  C   C5        1.0  0.86133  0.73868  0.44408  1.0000
  C   C6        1.0  0.12281  0.26183  0.05626  1.0000
  C   C7        1.0  0.13867  0.26129  0.55591  1.0000
  C   C8        1.0  0.87720  0.73818  0.94374  1.0000
  C   C9        1.0  0.59419  0.99988  0.74983  1.0000
  C   C10       1.0  0.40580  0.00013  0.25018  1.0000
  C   C11       1.0  0.24560  0.87356  0.67279  1.0000
  C   C12       1.0  0.37197  0.12568  0.82725  1.0000
  C   C13       1.0  0.75441  0.12645  0.32721  1.0000
  C   C14       1.0  0.62803  0.87433  0.17275  1.0000
  C   C15       1.0  0.20338  0.99962  0.75006  1.0000
  C   C16       1.0  0.79663  0.00039  0.24994  1.0000
  N   N1        1.0  0.44174  0.87329  0.67275  1.0000
  N   N2        1.0  0.56847  0.12620  0.82707  1.0000
  N   N3        1.0  0.55826  0.12671  0.32726  1.0000
  N   N4        1.0  0.43153  0.87380  0.17294  1.0000
  O   O1        1.0  0.66255  0.60334  0.66949  1.0000
  O   O2        1.0  0.05964  0.39619  0.83076  1.0000
  O   O3        1.0  0.33743  0.39666  0.33051  1.0000
  O   O4        1.0  0.94037  0.60380  0.16926  1.0000
  O   O5        1.0  0.77282  0.81936  0.50942  1.0000
  O   O6        1.0  0.95340  0.18061  0.99101  1.0000
  O   O7        1.0  0.22718  0.18062  0.49057  1.0000
  O   O8        1.0  0.04660  0.81940  0.00900  1.0000
  O   O9        1.0  0.67138  0.33563  0.56491  1.0000
  O   O10       1.0  0.33608  0.66448  0.93516  1.0000
  O   O11       1.0  0.32863  0.66437  0.43508  1.0000
  O   O12       1.0  0.66393  0.33554  0.06484  1.0000
  O   O13       1.0  0.79167  0.55770  0.40400  1.0000
  O   O14       1.0  0.23406  0.44298  0.09610  1.0000
  O   O15       1.0  0.20832  0.44228  0.59598  1.0000
  O   O16       1.0  0.76597  0.55703  0.90390  1.0000
