data_image0
_chemical_formula_structural       Cu4H32C24N4O16
_chemical_formula_sum              "Cu4 H32 C24 N4 O16"
_cell_length_a       8.13409
_cell_length_b       9.24562
_cell_length_c       10.8749
_cell_angle_alpha    93.0805
_cell_angle_beta     98.2661
_cell_angle_gamma    102.39

_space_group_name_H-M_alt    "P 1"
_space_group_IT_number       1

loop_
  _space_group_symop_operation_xyz
  'x, y, z'

loop_
  _atom_site_type_symbol
  _atom_site_label
  _atom_site_symmetry_multiplicity
  _atom_site_fract_x
  _atom_site_fract_y
  _atom_site_fract_z
  _atom_site_occupancy
  Cu  Cu1       1.0  0.42720  0.87459  0.53410  1.0000
  Cu  Cu2       1.0  0.57279  0.12542  0.46589  1.0000
  Cu  Cu3       1.0  0.04455  0.49261  0.89099  1.0000
  Cu  Cu4       1.0  0.95548  0.50739  0.10897  1.0000
  H   H1        1.0  0.24225  0.73030  0.74451  1.0000
  H   H2        1.0  0.75775  0.26973  0.25550  1.0000
  H   H3        1.0  0.32295  0.55382  0.40516  1.0000
  H   H4        1.0  0.67700  0.44619  0.59483  1.0000
  H   H5        1.0  0.02637  0.28284  0.64372  1.0000
  H   H6        1.0  0.97364  0.71718  0.35631  1.0000
  H   H7        1.0  0.15637  0.30166  0.44440  1.0000
  H   H8        1.0  0.84360  0.69835  0.55562  1.0000
  H   H9        1.0  0.98596  0.94297  0.24869  1.0000
  H   H10       1.0  0.01403  0.05701  0.75131  1.0000
  H   H11       1.0  0.05608  0.14147  0.25767  1.0000
  H   H12       1.0  0.94389  0.85852  0.74232  1.0000
  H   H13       1.0  0.95093  0.05296  0.37687  1.0000
  H   H14       1.0  0.04906  0.94703  0.62312  1.0000
  H   H15       1.0  0.31852  0.27852  0.78821  1.0000
  H   H16       1.0  0.68147  0.72146  0.21181  1.0000
  H   H17       1.0  0.52808  0.28569  0.86099  1.0000
  H   H18       1.0  0.47193  0.71429  0.13902  1.0000
  H   H19       1.0  0.35868  0.13239  0.87945  1.0000
  H   H20       1.0  0.64134  0.86758  0.12056  1.0000
  H   H21       1.0  0.58691  0.74977  0.88846  1.0000
  H   H22       1.0  0.41315  0.25021  0.11155  1.0000
  H   H23       1.0  0.56469  0.63385  0.74875  1.0000
  H   H24       1.0  0.43525  0.36615  0.25124  1.0000
  H   H25       1.0  0.46238  0.56641  0.87861  1.0000
  H   H26       1.0  0.53768  0.43357  0.12142  1.0000
  H   H27       1.0  0.29826  0.97574  0.15701  1.0000
  H   H28       1.0  0.70172  0.02423  0.84304  1.0000
  H   H29       1.0  0.33787  0.96165  0.99897  1.0000
  H   H30       1.0  0.66213  0.03840  0.00108  1.0000
  H   H31       1.0  0.14578  0.00545  0.03271  1.0000
  H   H32       1.0  0.85421  0.99456  0.96734  1.0000
  C   C1        1.0  0.73154  0.58234  0.90389  1.0000
  C   C2        1.0  0.26851  0.41764  0.09604  1.0000
  C   C3        1.0  0.15335  0.77656  0.04307  1.0000
  C   C4        1.0  0.84666  0.22344  0.95692  1.0000
  C   C5        1.0  0.22243  0.63397  0.67718  1.0000
  C   C6        1.0  0.77756  0.36605  0.32282  1.0000
  C   C7        1.0  0.26775  0.53503  0.49020  1.0000
  C   C8        1.0  0.73221  0.46499  0.50980  1.0000
  C   C9        1.0  0.10588  0.38632  0.62198  1.0000
  C   C10       1.0  0.89411  0.61369  0.37803  1.0000
  C   C11       1.0  0.17439  0.39674  0.51188  1.0000
  C   C12       1.0  0.82558  0.60327  0.48813  1.0000
  C   C13       1.0  0.20946  0.02944  0.38278  1.0000
  C   C14       1.0  0.79052  0.97055  0.61721  1.0000
  C   C15       1.0  0.44253  0.12850  0.69986  1.0000
  C   C16       1.0  0.55747  0.87149  0.30014  1.0000
  C   C17       1.0  0.04046  0.04412  0.31166  1.0000
  C   C18       1.0  0.95952  0.95587  0.68833  1.0000
  C   C19       1.0  0.41000  0.20982  0.81477  1.0000
  C   C20       1.0  0.59000  0.79016  0.18524  1.0000
  C   C21       1.0  0.57581  0.63521  0.85007  1.0000
  C   C22       1.0  0.42422  0.36477  0.14992  1.0000
  C   C23       1.0  0.24099  0.93987  0.05991  1.0000
  C   C24       1.0  0.75900  0.06013  0.94013  1.0000
  N   N1        1.0  0.13149  0.50496  0.70569  1.0000
  N   N2        1.0  0.86852  0.49507  0.29433  1.0000
  N   N3        1.0  0.29121  0.65400  0.57297  1.0000
  N   N4        1.0  0.70877  0.34603  0.42703  1.0000
  O   O1        1.0  0.75295  0.56963  0.02116  1.0000
  O   O2        1.0  0.24711  0.43036  0.97876  1.0000
  O   O3        1.0  0.07896  0.72241  0.13114  1.0000
  O   O4        1.0  0.92106  0.27759  0.86887  1.0000
  O   O5        1.0  0.82982  0.55476  0.82866  1.0000
  O   O6        1.0  0.17022  0.44522  0.17125  1.0000
  O   O7        1.0  0.15982  0.70703  0.94005  1.0000
  O   O8        1.0  0.84018  0.29298  0.05994  1.0000
  O   O9        1.0  0.33990  0.13276  0.37778  1.0000
  O   O10       1.0  0.66010  0.86728  0.62223  1.0000
  O   O11       1.0  0.51716  0.20884  0.62372  1.0000
  O   O12       1.0  0.48285  0.79116  0.37628  1.0000
  O   O13       1.0  0.20853  0.91436  0.44248  1.0000
  O   O14       1.0  0.79147  0.08565  0.55749  1.0000
  O   O15       1.0  0.39271  0.98702  0.68722  1.0000
  O   O16       1.0  0.60728  0.01299  0.31277  1.0000
