data_image0
_chemical_formula_structural       Zn4H24C38N12O14
_chemical_formula_sum              "Zn4 H24 C38 N12 O14"
_cell_length_a       10.4972
_cell_length_b       11.0358
_cell_length_c       10.7714
_cell_angle_alpha    79.5491
_cell_angle_beta     62.5523
_cell_angle_gamma    69.501

_space_group_name_H-M_alt    "P 1"
_space_group_IT_number       1

loop_
  _space_group_symop_operation_xyz
  'x, y, z'

loop_
  _atom_site_type_symbol
  _atom_site_label
  _atom_site_symmetry_multiplicity
  _atom_site_fract_x
  _atom_site_fract_y
  _atom_site_fract_z
  _atom_site_occupancy
  Zn  Zn1       1.0  0.07926  0.22822  0.24843  1.0000
  Zn  Zn2       1.0  0.92074  0.77177  0.75158  1.0000
  Zn  Zn3       1.0  0.04851  0.79639  0.27255  1.0000
  Zn  Zn4       1.0  0.95150  0.20361  0.72745  1.0000
  H   H1        1.0  0.51631  0.16219  0.89270  1.0000
  H   H2        1.0  0.48370  0.83781  0.10730  1.0000
  H   H3        1.0  0.54212  0.86286  0.58318  1.0000
  H   H4        1.0  0.45788  0.13713  0.41683  1.0000
  H   H5        1.0  0.29659  0.96740  0.77866  1.0000
  H   H6        1.0  0.70342  0.03260  0.22135  1.0000
  H   H7        1.0  0.51367  0.73458  0.37401  1.0000
  H   H8        1.0  0.48632  0.26543  0.62600  1.0000
  H   H9        1.0  0.78376  0.68011  0.21318  1.0000
  H   H10       1.0  0.21624  0.31990  0.78682  1.0000
  H   H11       1.0  0.89314  0.44454  0.53643  1.0000
  H   H12       1.0  0.10686  0.55546  0.46356  1.0000
  H   H13       1.0  0.62440  0.49997  0.70016  1.0000
  H   H14       1.0  0.37559  0.50003  0.29984  1.0000
  H   H15       1.0  0.09911  0.68032  0.94857  1.0000
  H   H16       1.0  0.90089  0.31969  0.05143  1.0000
  H   H17       1.0  0.26134  0.73037  0.51030  1.0000
  H   H18       1.0  0.73866  0.26962  0.48969  1.0000
  H   H19       1.0  0.38188  0.61077  0.84853  1.0000
  H   H20       1.0  0.61811  0.38923  0.15147  1.0000
  H   H21       1.0  0.08568  0.97152  0.07071  1.0000
  H   H22       1.0  0.91432  0.02848  0.92929  1.0000
  H   H23       1.0  0.98389  0.89193  0.06736  1.0000
  H   H24       1.0  0.01611  0.10808  0.93264  1.0000
  C   C1        1.0  0.81541  0.86662  0.52625  1.0000
  C   C2        1.0  0.18460  0.13339  0.47375  1.0000
  C   C3        1.0  0.26397  0.70666  0.61153  1.0000
  C   C4        1.0  0.73603  0.29333  0.38847  1.0000
  C   C5        1.0  0.38724  0.65724  0.64234  1.0000
  C   C6        1.0  0.61276  0.34275  0.35766  1.0000
  C   C7        1.0  0.54783  0.62314  0.55007  1.0000
  C   C8        1.0  0.45217  0.37686  0.44992  1.0000
  C   C9        1.0  0.59612  0.67133  0.41094  1.0000
  C   C10       1.0  0.40387  0.32868  0.58906  1.0000
  C   C11       1.0  0.74842  0.64116  0.32012  1.0000
  C   C12       1.0  0.25157  0.35884  0.67988  1.0000
  C   C13       1.0  0.80958  0.51033  0.50254  1.0000
  C   C14       1.0  0.19042  0.48967  0.49746  1.0000
  C   C15       1.0  0.85704  0.56035  0.36506  1.0000
  C   C16       1.0  0.14295  0.43965  0.63494  1.0000
  C   C17       1.0  0.01799  0.52969  0.26774  1.0000
  C   C18       1.0  0.98200  0.47031  0.73226  1.0000
  C   C19       1.0  0.79710  0.06412  0.70289  1.0000
  C   C20       1.0  0.20291  0.93588  0.29710  1.0000
  C   C21       1.0  0.25140  0.11982  0.97892  1.0000
  C   C22       1.0  0.74860  0.88018  0.02108  1.0000
  C   C23       1.0  0.39293  0.06658  0.85207  1.0000
  C   C24       1.0  0.60707  0.93342  0.14792  1.0000
  C   C25       1.0  0.52309  0.09493  0.82564  1.0000
  C   C26       1.0  0.47692  0.90508  0.17436  1.0000
  C   C27       1.0  0.66181  0.03434  0.71829  1.0000
  C   C28       1.0  0.33820  0.96565  0.28172  1.0000
  C   C29       1.0  0.66942  0.94523  0.63454  1.0000
  C   C30       1.0  0.33059  0.05477  0.36546  1.0000
  C   C31       1.0  0.53620  0.92648  0.65336  1.0000
  C   C32       1.0  0.46380  0.07352  0.34665  1.0000
  C   C33       1.0  0.39893  0.98524  0.76234  1.0000
  C   C34       1.0  0.60107  0.01476  0.23766  1.0000
  C   C35       1.0  0.65705  0.54192  0.59442  1.0000
  C   C36       1.0  0.34295  0.45807  0.40558  1.0000
  C   C37       1.0  0.17427  0.67942  0.83826  1.0000
  C   C38       1.0  0.82572  0.32058  0.16174  1.0000
  N   N1        1.0  0.13348  0.71917  0.73365  1.0000
  N   N2        1.0  0.86652  0.28083  0.26634  1.0000
  N   N3        1.0  0.32593  0.64133  0.78711  1.0000
  N   N4        1.0  0.67407  0.35867  0.21288  1.0000
  N   N5        1.0  0.11038  0.41476  0.21014  1.0000
  N   N6        1.0  0.88961  0.58524  0.78986  1.0000
  N   N7        1.0  0.24648  0.43185  0.12333  1.0000
  N   N8        1.0  0.75352  0.56815  0.87667  1.0000
  N   N9        1.0  0.23833  0.55165  0.12774  1.0000
  N   N10       1.0  0.76167  0.44835  0.87227  1.0000
  N   N11       1.0  0.09557  0.61604  0.21834  1.0000
  N   N12       1.0  0.90442  0.38396  0.78167  1.0000
  O   O1        1.0  0.78287  0.18497  0.70360  1.0000
  O   O2        1.0  0.21713  0.81503  0.29640  1.0000
  O   O3        1.0  0.83447  0.88334  0.39927  1.0000
  O   O4        1.0  0.16553  0.11666  0.60073  1.0000
  O   O5        1.0  0.91298  0.78333  0.56221  1.0000
  O   O6        1.0  0.08703  0.21667  0.43778  1.0000
  O   O7        1.0  0.91457  0.97447  0.69630  1.0000
  O   O8        1.0  0.08544  0.02553  0.30369  1.0000
  O   O9        1.0  0.26397  0.17045  0.06837  1.0000
  O   O10       1.0  0.73603  0.82954  0.93164  1.0000
  O   O11       1.0  0.12643  0.11075  0.99586  1.0000
  O   O12       1.0  0.87358  0.88924  0.00414  1.0000
  O   O13       1.0  0.07035  0.88497  0.08740  1.0000
  O   O14       1.0  0.92965  0.11503  0.91260  1.0000
