data_image0
_chemical_formula_structural       Zn2H20C22S4N4Cl4
_chemical_formula_sum              "Zn2 H20 C22 S4 N4 Cl4"
_cell_length_a       5.71505
_cell_length_b       10.2234
_cell_length_c       12.9786
_cell_angle_alpha    72.5675
_cell_angle_beta     75.8167
_cell_angle_gamma    87.5116

_space_group_name_H-M_alt    "P 1"
_space_group_IT_number       1

loop_
  _space_group_symop_operation_xyz
  'x, y, z'

loop_
  _atom_site_type_symbol
  _atom_site_label
  _atom_site_symmetry_multiplicity
  _atom_site_fract_x
  _atom_site_fract_y
  _atom_site_fract_z
  _atom_site_occupancy
  Zn  Zn1       1.0  0.33362  0.68980  0.75909  1.0000
  Zn  Zn2       1.0  0.66637  0.31020  0.24091  1.0000
  H   H1        1.0  0.60691  0.90572  0.95843  1.0000
  H   H2        1.0  0.39309  0.09428  0.04157  1.0000
  H   H3        1.0  0.34076  0.64618  0.99559  1.0000
  H   H4        1.0  0.65926  0.35382  0.00440  1.0000
  H   H5        1.0  0.12916  0.72981  0.15144  1.0000
  H   H6        1.0  0.87085  0.27019  0.84856  1.0000
  H   H7        1.0  0.73639  0.52177  0.58836  1.0000
  H   H8        1.0  0.26360  0.47823  0.41164  1.0000
  H   H9        1.0  0.14195  0.89884  0.38177  1.0000
  H   H10       1.0  0.85805  0.10117  0.61824  1.0000
  H   H11       1.0  0.95495  0.52044  0.73051  1.0000
  H   H12       1.0  0.04502  0.47956  0.26950  1.0000
  H   H13       1.0  0.33882  0.88052  0.53291  1.0000
  H   H14       1.0  0.66116  0.11948  0.46711  1.0000
  H   H15       1.0  0.84433  0.81716  0.80933  1.0000
  H   H16       1.0  0.15566  0.18283  0.19068  1.0000
  H   H17       1.0  0.78705  0.95529  0.31019  1.0000
  H   H18       1.0  0.21297  0.04471  0.68981  1.0000
  H   H19       1.0  0.03913  0.88675  0.23069  1.0000
  H   H20       1.0  0.96087  0.11326  0.76931  1.0000
  C   C1        1.0  0.77113  0.85092  0.96983  1.0000
  C   C2        1.0  0.22889  0.14908  0.03017  1.0000
  C   C3        1.0  0.18009  0.70698  0.98944  1.0000
  C   C4        1.0  0.81990  0.29303  0.01056  1.0000
  C   C5        1.0  0.92041  0.71000  0.47031  1.0000
  C   C6        1.0  0.07959  0.29000  0.52969  1.0000
  C   C7        1.0  0.05958  0.75488  0.07711  1.0000
  C   C8        1.0  0.94045  0.24512  0.92288  1.0000
  C   C9        1.0  0.87159  0.60244  0.57089  1.0000
  C   C10       1.0  0.12841  0.39756  0.42912  1.0000
  C   C11       1.0  0.09200  0.81195  0.45653  1.0000
  C   C12       1.0  0.90801  0.18806  0.54348  1.0000
  C   C13       1.0  0.85075  0.83035  0.06761  1.0000
  C   C14       1.0  0.14923  0.16966  0.93238  1.0000
  C   C15       1.0  0.99295  0.60120  0.65132  1.0000
  C   C16       1.0  0.00704  0.39880  0.34868  1.0000
  C   C17       1.0  0.20453  0.80290  0.54143  1.0000
  C   C18       1.0  0.79545  0.19710  0.45857  1.0000
  C   C19       1.0  0.90313  0.80072  0.88611  1.0000
  C   C20       1.0  0.09685  0.19928  0.11390  1.0000
  C   C21       1.0  0.84457  0.87498  0.26975  1.0000
  C   C22       1.0  0.15546  0.12503  0.73024  1.0000
  S   S1        1.0  0.76429  0.70713  0.37114  1.0000
  S   S2        1.0  0.23571  0.29288  0.62886  1.0000
  S   S3        1.0  0.67793  0.90436  0.16500  1.0000
  S   S4        1.0  0.32208  0.09564  0.83500  1.0000
  N   N1        1.0  0.15782  0.69951  0.63771  1.0000
  N   N2        1.0  0.84217  0.30049  0.36230  1.0000
  N   N3        1.0  0.10701  0.73092  0.89444  1.0000
  N   N4        1.0  0.89300  0.26907  0.10556  1.0000
  Cl  Cl1       1.0  0.58427  0.87896  0.67931  1.0000
  Cl  Cl2       1.0  0.41573  0.12103  0.32068  1.0000
  Cl  Cl3       1.0  0.46107  0.47967  0.82718  1.0000
  Cl  Cl4       1.0  0.53894  0.52033  0.17283  1.0000
