data_image0
_chemical_formula_structural       Cu4H20C24Br4N4
_chemical_formula_sum              "Cu4 H20 C24 Br4 N4"
_cell_length_a       3.80977
_cell_length_b       10.8012
_cell_length_c       14.893
_cell_angle_alpha    89.9997
_cell_angle_beta     90.0019
_cell_angle_gamma    93.5001

_space_group_name_H-M_alt    "P 1"
_space_group_IT_number       1

loop_
  _space_group_symop_operation_xyz
  'x, y, z'

loop_
  _atom_site_type_symbol
  _atom_site_label
  _atom_site_symmetry_multiplicity
  _atom_site_fract_x
  _atom_site_fract_y
  _atom_site_fract_z
  _atom_site_occupancy
  Cu  Cu1       1.0  0.74142  0.45389  0.44399  1.0000
  Cu  Cu2       1.0  0.25862  0.04611  0.94398  1.0000
  Cu  Cu3       1.0  0.25860  0.54610  0.55601  1.0000
  Cu  Cu4       1.0  0.74144  0.95389  0.05601  1.0000
  H   H1        1.0  0.97615  0.64540  0.31530  1.0000
  H   H2        1.0  0.02385  0.85459  0.81529  1.0000
  H   H3        1.0  0.02384  0.35459  0.68471  1.0000
  H   H4        1.0  0.97615  0.14541  0.18471  1.0000
  H   H5        1.0  0.93022  0.68250  0.14981  1.0000
  H   H6        1.0  0.06978  0.81750  0.64980  1.0000
  H   H7        1.0  0.06977  0.31751  0.85020  1.0000
  H   H8        1.0  0.93022  0.18250  0.35020  1.0000
  H   H9        1.0  0.33359  0.32991  0.13053  1.0000
  H   H10       1.0  0.66638  0.17010  0.63053  1.0000
  H   H11       1.0  0.66639  0.67009  0.86947  1.0000
  H   H12       1.0  0.33362  0.82990  0.36946  1.0000
  H   H13       1.0  0.40109  0.30904  0.29532  1.0000
  H   H14       1.0  0.59889  0.19096  0.79531  1.0000
  H   H15       1.0  0.59891  0.69095  0.70468  1.0000
  H   H16       1.0  0.40112  0.80904  0.20468  1.0000
  H   H17       1.0  0.74247  0.61970  0.00709  1.0000
  H   H18       1.0  0.25753  0.88030  0.50708  1.0000
  H   H19       1.0  0.25751  0.38031  0.99292  1.0000
  H   H20       1.0  0.74248  0.11970  0.49291  1.0000
  C   C1        1.0  0.83659  0.57811  0.27144  1.0000
  C   C2        1.0  0.16341  0.92188  0.77143  1.0000
  C   C3        1.0  0.16340  0.42188  0.72857  1.0000
  C   C4        1.0  0.83660  0.07812  0.22857  1.0000
  C   C5        1.0  0.80894  0.59826  0.17995  1.0000
  C   C6        1.0  0.19105  0.90174  0.67994  1.0000
  C   C7        1.0  0.19104  0.40174  0.82006  1.0000
  C   C8        1.0  0.80895  0.09826  0.32006  1.0000
  C   C9        1.0  0.62486  0.51027  0.12501  1.0000
  C   C10       1.0  0.37513  0.98973  0.62501  1.0000
  C   C11       1.0  0.37512  0.48973  0.87499  1.0000
  C   C12       1.0  0.62487  0.01027  0.37499  1.0000
  C   C13       1.0  0.47825  0.40294  0.16818  1.0000
  C   C14       1.0  0.52173  0.09706  0.66818  1.0000
  C   C15       1.0  0.52173  0.59706  0.83182  1.0000
  C   C16       1.0  0.47828  0.90294  0.33182  1.0000
  C   C17       1.0  0.51619  0.39013  0.26009  1.0000
  C   C18       1.0  0.48380  0.10987  0.76008  1.0000
  C   C19       1.0  0.48380  0.60987  0.73991  1.0000
  C   C20       1.0  0.51621  0.89013  0.23991  1.0000
  C   C21       1.0  0.59578  0.53536  0.02977  1.0000
  C   C22       1.0  0.40420  0.96465  0.52976  1.0000
  C   C23       1.0  0.40419  0.46465  0.97024  1.0000
  C   C24       1.0  0.59581  0.03535  0.47023  1.0000
  Br  Br1       1.0  0.79097  0.67490  0.50177  1.0000
  Br  Br2       1.0  0.20903  0.82510  0.00177  1.0000
  Br  Br3       1.0  0.20903  0.32510  0.49823  1.0000
  Br  Br4       1.0  0.79099  0.17490  0.99822  1.0000
  N   N1        1.0  0.69280  0.47555  0.31244  1.0000
  N   N2        1.0  0.30719  0.02445  0.81244  1.0000
  N   N3        1.0  0.30719  0.52444  0.68756  1.0000
  N   N4        1.0  0.69282  0.97556  0.18756  1.0000
