data_image0
_chemical_formula_structural       Co2H34C40N6O8
_chemical_formula_sum              "Co2 H34 C40 N6 O8"
_cell_length_a       9.6807
_cell_length_b       10.1087
_cell_length_c       10.4302
_cell_angle_alpha    78.3269
_cell_angle_beta     84.5066
_cell_angle_gamma    67.717

_space_group_name_H-M_alt    "P 1"
_space_group_IT_number       1

loop_
  _space_group_symop_operation_xyz
  'x, y, z'

loop_
  _atom_site_type_symbol
  _atom_site_label
  _atom_site_symmetry_multiplicity
  _atom_site_fract_x
  _atom_site_fract_y
  _atom_site_fract_z
  _atom_site_occupancy
  Co  Co1       1.0  0.96569  0.36036  0.37620  1.0000
  Co  Co2       1.0  0.03431  0.63964  0.62380  1.0000
  H   H1        1.0  0.29027  0.16496  0.34479  1.0000
  H   H2        1.0  0.70974  0.83504  0.65520  1.0000
  H   H3        1.0  0.50051  0.14014  0.17898  1.0000
  H   H4        1.0  0.49949  0.85986  0.82101  1.0000
  H   H5        1.0  0.78495  0.90240  0.88675  1.0000
  H   H6        1.0  0.21504  0.09760  0.11326  1.0000
  H   H7        1.0  0.81444  0.05973  0.85301  1.0000
  H   H8        1.0  0.18556  0.94028  0.14699  1.0000
  H   H9        1.0  0.21141  0.53863  0.94700  1.0000
  H   H10       1.0  0.78859  0.46137  0.05300  1.0000
  H   H11       1.0  0.01663  0.54472  0.12162  1.0000
  H   H12       1.0  0.98337  0.45528  0.87838  1.0000
  H   H13       1.0  0.54335  0.40869  0.94691  1.0000
  H   H14       1.0  0.45666  0.59130  0.05308  1.0000
  H   H15       1.0  0.58563  0.21988  0.96534  1.0000
  H   H16       1.0  0.41437  0.78012  0.03466  1.0000
  H   H17       1.0  0.34311  0.45195  0.78408  1.0000
  H   H18       1.0  0.65690  0.54804  0.21592  1.0000
  H   H19       1.0  0.40157  0.26144  0.79781  1.0000
  H   H20       1.0  0.59843  0.73855  0.20219  1.0000
  H   H21       1.0  0.53108  0.57632  0.69882  1.0000
  H   H22       1.0  0.46892  0.42368  0.30119  1.0000
  H   H23       1.0  0.73610  0.57115  0.53421  1.0000
  H   H24       1.0  0.26390  0.42885  0.46579  1.0000
  H   H25       1.0  0.82144  0.14261  0.51065  1.0000
  H   H26       1.0  0.17856  0.85739  0.48934  1.0000
  H   H27       1.0  0.62019  0.13094  0.67276  1.0000
  H   H28       1.0  0.37981  0.86906  0.32723  1.0000
  H   H29       1.0  0.92946  0.91616  0.41187  1.0000
  H   H30       1.0  0.07054  0.08384  0.58813  1.0000
  H   H31       1.0  0.83584  0.18303  0.02849  1.0000
  H   H32       1.0  0.16415  0.81697  0.97152  1.0000
  H   H33       1.0  0.81484  0.75460  0.10178  1.0000
  H   H34       1.0  0.18514  0.24541  0.89823  1.0000
  C   C1        1.0  0.27857  0.24478  0.25469  1.0000
  C   C2        1.0  0.72143  0.75522  0.74530  1.0000
  C   C3        1.0  0.39460  0.23207  0.16205  1.0000
  C   C4        1.0  0.60540  0.76793  0.83795  1.0000
  C   C5        1.0  0.37423  0.33691  0.04721  1.0000
  C   C6        1.0  0.62577  0.66309  0.95280  1.0000
  C   C7        1.0  0.23558  0.45243  0.03334  1.0000
  C   C8        1.0  0.76442  0.54757  0.96666  1.0000
  C   C9        1.0  0.12552  0.45670  0.12999  1.0000
  C   C10       1.0  0.87449  0.54330  0.87001  1.0000
  C   C11       1.0  0.49531  0.32647  0.94354  1.0000
  C   C12       1.0  0.50469  0.67352  0.05645  1.0000
  C   C13       1.0  0.43946  0.34946  0.80402  1.0000
  C   C14       1.0  0.56054  0.65054  0.19597  1.0000
  C   C15       1.0  0.55839  0.35269  0.70165  1.0000
  C   C16       1.0  0.44162  0.64731  0.29834  1.0000
  C   C17       1.0  0.59305  0.47733  0.65978  1.0000
  C   C18       1.0  0.40695  0.52267  0.34021  1.0000
  C   C19       1.0  0.70602  0.47601  0.56656  1.0000
  C   C20       1.0  0.29398  0.52399  0.43344  1.0000
  C   C21       1.0  0.75353  0.23799  0.55236  1.0000
  C   C22       1.0  0.24647  0.76201  0.44763  1.0000
  C   C23       1.0  0.64158  0.23151  0.64465  1.0000
  C   C24       1.0  0.35842  0.76849  0.35534  1.0000
  C   C25       1.0  0.88554  0.68434  0.35932  1.0000
  C   C26       1.0  0.11446  0.31565  0.64068  1.0000
  C   C27       1.0  0.87107  0.82236  0.26638  1.0000
  C   C28       1.0  0.12893  0.17763  0.73362  1.0000
  C   C29       1.0  0.89893  0.93144  0.31078  1.0000
  C   C30       1.0  0.10107  0.06856  0.68923  1.0000
  C   C31       1.0  0.88642  0.06042  0.22402  1.0000
  C   C32       1.0  0.11359  0.93958  0.77599  1.0000
  C   C33       1.0  0.91890  0.17429  0.27286  1.0000
  C   C34       1.0  0.08110  0.82571  0.72714  1.0000
  C   C35       1.0  0.84491  0.08162  0.09449  1.0000
  C   C36       1.0  0.15509  0.91839  0.90552  1.0000
  C   C37       1.0  0.81977  0.97121  0.04820  1.0000
  C   C38       1.0  0.18022  0.02879  0.95180  1.0000
  C   C39       1.0  0.83333  0.84158  0.13583  1.0000
  C   C40       1.0  0.16667  0.15843  0.86417  1.0000
  N   N1        1.0  0.14451  0.35459  0.23913  1.0000
  N   N2        1.0  0.85550  0.64541  0.76086  1.0000
  N   N3        1.0  0.78676  0.35827  0.51275  1.0000
  N   N4        1.0  0.21324  0.64173  0.48725  1.0000
  N   N5        1.0  0.77690  0.99258  0.92034  1.0000
  N   N6        1.0  0.22308  0.00743  0.07967  1.0000
  O   O1        1.0  0.88175  0.57827  0.31349  1.0000
  O   O2        1.0  0.11826  0.42173  0.68651  1.0000
  O   O3        1.0  0.89664  0.68109  0.48118  1.0000
  O   O4        1.0  0.10337  0.31891  0.51883  1.0000
  O   O5        1.0  0.01988  0.13482  0.35862  1.0000
  O   O6        1.0  0.98013  0.86518  0.64138  1.0000
  O   O7        1.0  0.84511  0.30907  0.23281  1.0000
  O   O8        1.0  0.15489  0.69093  0.76720  1.0000
