data_image0
_chemical_formula_structural       Cu4H32C28N8O12
_chemical_formula_sum              "Cu4 H32 C28 N8 O12"
_cell_length_a       7.26517
_cell_length_b       9.43249
_cell_length_c       13.1521
_cell_angle_alpha    89.9964
_cell_angle_beta     90.0004
_cell_angle_gamma    107.521

_space_group_name_H-M_alt    "P 1"
_space_group_IT_number       1

loop_
  _space_group_symop_operation_xyz
  'x, y, z'

loop_
  _atom_site_type_symbol
  _atom_site_label
  _atom_site_symmetry_multiplicity
  _atom_site_fract_x
  _atom_site_fract_y
  _atom_site_fract_z
  _atom_site_occupancy
  Cu  Cu1       1.0  0.65351  0.95794  0.91999  1.0000
  Cu  Cu2       1.0  0.65346  0.45790  0.58001  1.0000
  Cu  Cu3       1.0  0.34653  0.04208  0.08001  1.0000
  Cu  Cu4       1.0  0.34650  0.54207  0.41999  1.0000
  H   H1        1.0  0.48692  0.12918  0.84323  1.0000
  H   H2        1.0  0.48680  0.62909  0.65679  1.0000
  H   H3        1.0  0.51317  0.87086  0.15679  1.0000
  H   H4        1.0  0.51313  0.37087  0.34321  1.0000
  H   H5        1.0  0.53938  0.04610  0.74293  1.0000
  H   H6        1.0  0.53929  0.54600  0.75708  1.0000
  H   H7        1.0  0.46069  0.95394  0.25706  1.0000
  H   H8        1.0  0.46064  0.45396  0.24292  1.0000
  H   H9        1.0  0.08267  0.25122  0.80818  1.0000
  H   H10       1.0  0.08259  0.75117  0.69183  1.0000
  H   H11       1.0  0.91737  0.74880  0.19183  1.0000
  H   H12       1.0  0.91734  0.24878  0.30819  1.0000
  H   H13       1.0  0.95949  0.09519  0.73228  1.0000
  H   H14       1.0  0.95938  0.59509  0.76772  1.0000
  H   H15       1.0  0.04059  0.90486  0.26772  1.0000
  H   H16       1.0  0.04052  0.40485  0.23229  1.0000
  H   H17       1.0  0.78307  0.29929  0.85384  1.0000
  H   H18       1.0  0.78295  0.79920  0.64616  1.0000
  H   H19       1.0  0.21701  0.70076  0.14615  1.0000
  H   H20       1.0  0.21700  0.20074  0.35384  1.0000
  H   H21       1.0  0.76647  0.26748  0.71957  1.0000
  H   H22       1.0  0.76636  0.76737  0.78042  1.0000
  H   H23       1.0  0.23361  0.73256  0.28042  1.0000
  H   H24       1.0  0.23357  0.23258  0.21957  1.0000
  H   H25       1.0  0.29476  0.41694  0.00634  1.0000
  H   H26       1.0  0.29472  0.91688  0.49365  1.0000
  H   H27       1.0  0.70526  0.58310  0.99364  1.0000
  H   H28       1.0  0.70524  0.08307  0.50634  1.0000
  H   H29       1.0  0.02070  0.74927  0.93125  1.0000
  H   H30       1.0  0.02068  0.24921  0.56873  1.0000
  H   H31       1.0  0.97933  0.25079  0.06873  1.0000
  H   H32       1.0  0.97929  0.75075  0.43125  1.0000
  C   C1        1.0  0.04534  0.05018  0.95552  1.0000
  C   C2        1.0  0.04531  0.55015  0.54449  1.0000
  C   C3        1.0  0.95468  0.94984  0.04449  1.0000
  C   C4        1.0  0.95464  0.44982  0.45552  1.0000
  C   C5        1.0  0.94844  0.15860  0.80119  1.0000
  C   C6        1.0  0.94833  0.65852  0.69881  1.0000
  C   C7        1.0  0.05163  0.84145  0.19880  1.0000
  C   C8        1.0  0.05159  0.34142  0.30120  1.0000
  C   C9        1.0  0.77302  0.21642  0.79406  1.0000
  C   C10       1.0  0.77289  0.71632  0.70593  1.0000
  C   C11       1.0  0.22708  0.78364  0.20592  1.0000
  C   C12       1.0  0.22703  0.28363  0.29407  1.0000
  C   C13       1.0  0.36714  0.69489  0.93068  1.0000
  C   C14       1.0  0.36709  0.19484  0.56932  1.0000
  C   C15       1.0  0.63292  0.30515  0.06932  1.0000
  C   C16       1.0  0.63287  0.80512  0.43068  1.0000
  C   C17       1.0  0.17632  0.59358  0.96451  1.0000
  C   C18       1.0  0.17628  0.09352  0.53549  1.0000
  C   C19       1.0  0.82372  0.40648  0.03549  1.0000
  C   C20       1.0  0.82368  0.90644  0.46451  1.0000
  C   C21       1.0  0.16542  0.45242  0.00259  1.0000
  C   C22       1.0  0.16539  0.95236  0.49741  1.0000
  C   C23       1.0  0.83463  0.54764  0.99741  1.0000
  C   C24       1.0  0.83459  0.04759  0.50259  1.0000
  C   C25       1.0  0.01029  0.63991  0.96187  1.0000
  C   C26       1.0  0.01024  0.13985  0.53813  1.0000
  C   C27       1.0  0.98975  0.36015  0.03813  1.0000
  C   C28       1.0  0.98971  0.86010  0.46187  1.0000
  N   N1        1.0  0.91694  0.06106  0.88897  1.0000
  N   N2        1.0  0.91681  0.56097  0.61102  1.0000
  N   N3        1.0  0.08318  0.93902  0.11102  1.0000
  N   N4        1.0  0.08311  0.43898  0.38898  1.0000
  N   N5        1.0  0.59308  0.09194  0.81171  1.0000
  N   N6        1.0  0.59297  0.59185  0.68829  1.0000
  N   N7        1.0  0.40700  0.90810  0.18828  1.0000
  N   N8        1.0  0.40696  0.40812  0.31171  1.0000
  O   O1        1.0  0.22850  0.11272  0.95426  1.0000
  O   O2        1.0  0.22849  0.61267  0.54574  1.0000
  O   O3        1.0  0.77150  0.88732  0.04573  1.0000
  O   O4        1.0  0.77147  0.38728  0.45427  1.0000
  O   O5        1.0  0.39341  0.83562  0.94843  1.0000
  O   O6        1.0  0.39334  0.33556  0.55156  1.0000
  O   O7        1.0  0.60667  0.16442  0.05157  1.0000
  O   O8        1.0  0.60661  0.66440  0.44844  1.0000
  O   O9        1.0  0.48979  0.64381  0.89047  1.0000
  O   O10       1.0  0.48975  0.14375  0.60953  1.0000
  O   O11       1.0  0.51026  0.35622  0.10953  1.0000
  O   O12       1.0  0.51022  0.85622  0.39047  1.0000
