data_image0
_chemical_formula_structural       Cu8H24C40N16
_chemical_formula_sum              "Cu8 H24 C40 N16"
_cell_length_a       6.73512
_cell_length_b       9.45272
_cell_length_c       15.3492
_cell_angle_alpha    83.844
_cell_angle_beta     81.4411
_cell_angle_gamma    72.2491

_space_group_name_H-M_alt    "P 1"
_space_group_IT_number       1

loop_
  _space_group_symop_operation_xyz
  'x, y, z'

loop_
  _atom_site_type_symbol
  _atom_site_label
  _atom_site_symmetry_multiplicity
  _atom_site_fract_x
  _atom_site_fract_y
  _atom_site_fract_z
  _atom_site_occupancy
  Cu  Cu1       1.0  0.54312  0.74077  0.64817  1.0000
  Cu  Cu2       1.0  0.45688  0.25922  0.35183  1.0000
  Cu  Cu3       1.0  0.35597  0.91556  0.14870  1.0000
  Cu  Cu4       1.0  0.64404  0.08444  0.85130  1.0000
  Cu  Cu5       1.0  0.65829  0.51694  0.94757  1.0000
  Cu  Cu6       1.0  0.34172  0.48306  0.05243  1.0000
  Cu  Cu7       1.0  0.09720  0.08436  0.44810  1.0000
  Cu  Cu8       1.0  0.90280  0.91564  0.55190  1.0000
  H   H1        1.0  0.93603  0.30301  0.32255  1.0000
  H   H2        1.0  0.06396  0.69699  0.67745  1.0000
  H   H3        1.0  0.76681  0.43471  0.69228  1.0000
  H   H4        1.0  0.23319  0.56529  0.30771  1.0000
  H   H5        1.0  0.08179  0.20903  0.18668  1.0000
  H   H6        1.0  0.91822  0.79097  0.81332  1.0000
  H   H7        1.0  0.90753  0.32881  0.82194  1.0000
  H   H8        1.0  0.09247  0.67118  0.17807  1.0000
  H   H9        1.0  0.39428  0.88580  0.96586  1.0000
  H   H10       1.0  0.60572  0.11420  0.03415  1.0000
  H   H11       1.0  0.54067  0.77914  0.46231  1.0000
  H   H12       1.0  0.45933  0.22086  0.53769  1.0000
  H   H13       1.0  0.96830  0.19726  0.62064  1.0000
  H   H14       1.0  0.03171  0.80274  0.37936  1.0000
  H   H15       1.0  0.13034  0.11468  0.73279  1.0000
  H   H16       1.0  0.86965  0.88532  0.26721  1.0000
  H   H17       1.0  0.76101  0.53116  0.22980  1.0000
  H   H18       1.0  0.23898  0.46883  0.77020  1.0000
  H   H19       1.0  0.83187  0.42876  0.11396  1.0000
  H   H20       1.0  0.16814  0.57125  0.88604  1.0000
  H   H21       1.0  0.56475  0.76515  0.30031  1.0000
  H   H22       1.0  0.43526  0.23485  0.69969  1.0000
  H   H23       1.0  0.37154  0.89696  0.80471  1.0000
  H   H24       1.0  0.62846  0.10304  0.19529  1.0000
  C   C1        1.0  0.02779  0.22785  0.94292  1.0000
  C   C2        1.0  0.97220  0.77215  0.05708  1.0000
  C   C3        1.0  0.16786  0.10112  0.98468  1.0000
  C   C4        1.0  0.83214  0.89888  0.01532  1.0000
  C   C5        1.0  0.71747  0.54861  0.48465  1.0000
  C   C6        1.0  0.28252  0.45139  0.51534  1.0000
  C   C7        1.0  0.84675  0.40768  0.35128  1.0000
  C   C8        1.0  0.15325  0.59231  0.64872  1.0000
  C   C9        1.0  0.83129  0.41240  0.44389  1.0000
  C   C10       1.0  0.16871  0.58760  0.55611  1.0000
  C   C11       1.0  0.78538  0.43042  0.62079  1.0000
  C   C12       1.0  0.21462  0.56958  0.37921  1.0000
  C   C13       1.0  0.06774  0.21260  0.11666  1.0000
  C   C14       1.0  0.93226  0.78740  0.88334  1.0000
  C   C15       1.0  0.01524  0.23092  0.85158  1.0000
  C   C16       1.0  0.98476  0.76908  0.14842  1.0000
  C   C17       1.0  0.29123  0.98228  0.93332  1.0000
  C   C18       1.0  0.70877  0.01772  0.06668  1.0000
  C   C19       1.0  0.62495  0.67609  0.43104  1.0000
  C   C20       1.0  0.37504  0.32391  0.56896  1.0000
  C   C21       1.0  0.89870  0.29773  0.58084  1.0000
  C   C22       1.0  0.10130  0.70227  0.41915  1.0000
  C   C23       1.0  0.13812  0.11357  0.80318  1.0000
  C   C24       1.0  0.86187  0.88643  0.19682  1.0000
  C   C25       1.0  0.75216  0.53340  0.30107  1.0000
  C   C26       1.0  0.24783  0.46660  0.69893  1.0000
  C   C27       1.0  0.92945  0.33615  0.07582  1.0000
  C   C28       1.0  0.07055  0.66385  0.92418  1.0000
  C   C29       1.0  0.64076  0.66759  0.34101  1.0000
  C   C30       1.0  0.35924  0.33241  0.65899  1.0000
  C   C31       1.0  0.27698  0.98898  0.84397  1.0000
  C   C32       1.0  0.72302  0.01102  0.15603  1.0000
  C   C33       1.0  0.54053  0.63626  0.04927  1.0000
  C   C34       1.0  0.45946  0.36375  0.95073  1.0000
  C   C35       1.0  0.21237  0.03351  0.33265  1.0000
  C   C36       1.0  0.78763  0.96649  0.66735  1.0000
  C   C37       1.0  0.64245  0.60472  0.83191  1.0000
  C   C38       1.0  0.35756  0.39528  0.16810  1.0000
  C   C39       1.0  0.22556  0.96958  0.54782  1.0000
  C   C40       1.0  0.77444  0.03043  0.45217  1.0000
  N   N1        1.0  0.90540  0.34467  0.99092  1.0000
  N   N2        1.0  0.09460  0.65533  0.00908  1.0000
  N   N3        1.0  0.92579  0.28773  0.49401  1.0000
  N   N4        1.0  0.07421  0.71227  0.50599  1.0000
  N   N5        1.0  0.69916  0.55561  0.57458  1.0000
  N   N6        1.0  0.30083  0.44438  0.42542  1.0000
  N   N7        1.0  0.18401  0.09525  0.07312  1.0000
  N   N8        1.0  0.81599  0.90475  0.92688  1.0000
  N   N9        1.0  0.48912  0.73797  0.09473  1.0000
  N   N10       1.0  0.51088  0.26202  0.90526  1.0000
  N   N11       1.0  0.35028  0.89415  0.59300  1.0000
  N   N12       1.0  0.64973  0.10584  0.40700  1.0000
  N   N13       1.0  0.27541  0.98234  0.26352  1.0000
  N   N14       1.0  0.72460  0.01766  0.73648  1.0000
  N   N15       1.0  0.61181  0.66364  0.76143  1.0000
  N   N16       1.0  0.38820  0.33636  0.23857  1.0000
