data_image0
_chemical_formula_structural       Cu8H32C32N16
_chemical_formula_sum              "Cu8 H32 C32 N16"
_cell_length_a       7.82978
_cell_length_b       8.89648
_cell_length_c       14.4779
_cell_angle_alpha    76.5481
_cell_angle_beta     88.2925
_cell_angle_gamma    88.5344

_space_group_name_H-M_alt    "P 1"
_space_group_IT_number       1

loop_
  _space_group_symop_operation_xyz
  'x, y, z'

loop_
  _atom_site_type_symbol
  _atom_site_label
  _atom_site_symmetry_multiplicity
  _atom_site_fract_x
  _atom_site_fract_y
  _atom_site_fract_z
  _atom_site_occupancy
  Cu  Cu1       1.0  0.21106  0.37816  0.61731  1.0000
  Cu  Cu2       1.0  0.78894  0.62185  0.38269  1.0000
  Cu  Cu3       1.0  0.46466  0.88842  0.56985  1.0000
  Cu  Cu4       1.0  0.53534  0.11158  0.43015  1.0000
  Cu  Cu5       1.0  0.18647  0.59563  0.80613  1.0000
  Cu  Cu6       1.0  0.81353  0.40436  0.19388  1.0000
  Cu  Cu7       1.0  0.44359  0.09321  0.79786  1.0000
  Cu  Cu8       1.0  0.55640  0.90679  0.20213  1.0000
  H   H1        1.0  0.56046  0.34052  0.63538  1.0000
  H   H2        1.0  0.43954  0.65948  0.36462  1.0000
  H   H3        1.0  0.84004  0.45982  0.57466  1.0000
  H   H4        1.0  0.15996  0.54018  0.42534  1.0000
  H   H5        1.0  0.09535  0.12388  0.77504  1.0000
  H   H6        1.0  0.90465  0.87613  0.22496  1.0000
  H   H7        1.0  0.93798  0.91360  0.87215  1.0000
  H   H8        1.0  0.06202  0.08640  0.12784  1.0000
  H   H9        1.0  0.71681  0.89325  0.85267  1.0000
  H   H10       1.0  0.28319  0.10675  0.14733  1.0000
  H   H11       1.0  0.75790  0.92416  0.01775  1.0000
  H   H12       1.0  0.24210  0.07584  0.98225  1.0000
  H   H13       1.0  0.63907  0.08388  0.95201  1.0000
  H   H14       1.0  0.36093  0.91612  0.04799  1.0000
  H   H15       1.0  0.85860  0.10461  0.97269  1.0000
  H   H16       1.0  0.14140  0.89539  0.02731  1.0000
  H   H17       1.0  0.54069  0.63293  0.73648  1.0000
  H   H18       1.0  0.45931  0.36707  0.26352  1.0000
  H   H19       1.0  0.90988  0.41269  0.85730  1.0000
  H   H20       1.0  0.09011  0.58731  0.14270  1.0000
  H   H21       1.0  0.68392  0.41412  0.84296  1.0000
  H   H22       1.0  0.31607  0.58588  0.15704  1.0000
  H   H23       1.0  0.75064  0.43599  0.00662  1.0000
  H   H24       1.0  0.24935  0.56401  0.99338  1.0000
  H   H25       1.0  0.64548  0.60732  0.94474  1.0000
  H   H26       1.0  0.35452  0.39267  0.05526  1.0000
  H   H27       1.0  0.87021  0.60548  0.96008  1.0000
  H   H28       1.0  0.12978  0.39452  0.03992  1.0000
  H   H29       1.0  0.83923  0.97131  0.56415  1.0000
  H   H30       1.0  0.16078  0.02869  0.43585  1.0000
  H   H31       1.0  0.10052  0.85671  0.65468  1.0000
  H   H32       1.0  0.89948  0.14329  0.34532  1.0000
  C   C1        1.0  0.37560  0.08309  0.57476  1.0000
  C   C2        1.0  0.62440  0.91691  0.42524  1.0000
  C   C3        1.0  0.28823  0.57772  0.58988  1.0000
  C   C4        1.0  0.71177  0.42229  0.41012  1.0000
  C   C5        1.0  0.35072  0.89949  0.81791  1.0000
  C   C6        1.0  0.64928  0.10050  0.18209  1.0000
  C   C7        1.0  0.27917  0.39929  0.82169  1.0000
  C   C8        1.0  0.72083  0.60070  0.17831  1.0000
  C   C9        1.0  0.68004  0.29285  0.66771  1.0000
  C   C10       1.0  0.31997  0.70715  0.33229  1.0000
  C   C11       1.0  0.83493  0.35859  0.63387  1.0000
  C   C12       1.0  0.16506  0.64140  0.36614  1.0000
  C   C13       1.0  0.97480  0.17353  0.74482  1.0000
  C   C14       1.0  0.02519  0.82647  0.25518  1.0000
  C   C15       1.0  0.81984  0.10792  0.78112  1.0000
  C   C16       1.0  0.18015  0.89208  0.21888  1.0000
  C   C17       1.0  0.81304  0.97387  0.86540  1.0000
  C   C18       1.0  0.18695  0.02613  0.13460  1.0000
  C   C19       1.0  0.76471  0.02465  0.95729  1.0000
  C   C20       1.0  0.23529  0.97535  0.04271  1.0000
  C   C21       1.0  0.66643  0.68326  0.71838  1.0000
  C   C22       1.0  0.33357  0.31674  0.28162  1.0000
  C   C23       1.0  0.80936  0.61844  0.76986  1.0000
  C   C24       1.0  0.19064  0.38156  0.23014  1.0000
  C   C25       1.0  0.79215  0.48413  0.85347  1.0000
  C   C26       1.0  0.20785  0.51587  0.14653  1.0000
  C   C27       1.0  0.76308  0.53675  0.94657  1.0000
  C   C28       1.0  0.23691  0.46325  0.05343  1.0000
  C   C29       1.0  0.83166  0.86985  0.62315  1.0000
  C   C30       1.0  0.16835  0.13015  0.37685  1.0000
  C   C31       1.0  0.97476  0.80667  0.67288  1.0000
  C   C32       1.0  0.02525  0.19333  0.32712  1.0000
  N   N1        1.0  0.31118  0.19517  0.59211  1.0000
  N   N2        1.0  0.68882  0.80484  0.40789  1.0000
  N   N3        1.0  0.34472  0.70272  0.57509  1.0000
  N   N4        1.0  0.65529  0.29728  0.42492  1.0000
  N   N5        1.0  0.28538  0.77915  0.82574  1.0000
  N   N6        1.0  0.71462  0.22085  0.17426  1.0000
  N   N7        1.0  0.34485  0.27751  0.82453  1.0000
  N   N8        1.0  0.65515  0.72248  0.17547  1.0000
  N   N9        1.0  0.67093  0.16880  0.74168  1.0000
  N   N10       1.0  0.32907  0.83120  0.25832  1.0000
  N   N11       1.0  0.98365  0.29912  0.67222  1.0000
  N   N12       1.0  0.01635  0.70088  0.32778  1.0000
  N   N13       1.0  0.67632  0.80726  0.64528  1.0000
  N   N14       1.0  0.32368  0.19274  0.35472  1.0000
  N   N15       1.0  0.96519  0.68047  0.74577  1.0000
  N   N16       1.0  0.03481  0.31952  0.25423  1.0000
