data_image0
_chemical_formula_structural       Gd2H24C30N12O24
_chemical_formula_sum              "Gd2 H24 C30 N12 O24"
_cell_length_a       7.96403
_cell_length_b       11.3503
_cell_length_c       12.9993
_cell_angle_alpha    83.5841
_cell_angle_beta     81.014
_cell_angle_gamma    77.5535

_space_group_name_H-M_alt    "P 1"
_space_group_IT_number       1

loop_
  _space_group_symop_operation_xyz
  'x, y, z'

loop_
  _atom_site_type_symbol
  _atom_site_label
  _atom_site_symmetry_multiplicity
  _atom_site_fract_x
  _atom_site_fract_y
  _atom_site_fract_z
  _atom_site_occupancy
  Gd  Gd1       1.0  0.76930  0.83344  0.72259  1.0000
  Gd  Gd2       1.0  0.23071  0.16656  0.27741  1.0000
  H   H1        1.0  0.06329  0.72857  0.42656  1.0000
  H   H2        1.0  0.93671  0.27143  0.57345  1.0000
  H   H3        1.0  0.30436  0.56165  0.37265  1.0000
  H   H4        1.0  0.69564  0.43834  0.62736  1.0000
  H   H5        1.0  0.49873  0.57680  0.66429  1.0000
  H   H6        1.0  0.50127  0.42320  0.33571  1.0000
  H   H7        1.0  0.24567  0.74100  0.70664  1.0000
  H   H8        1.0  0.75435  0.25900  0.29336  1.0000
  H   H9        1.0  0.05103  0.69497  0.94691  1.0000
  H   H10       1.0  0.94897  0.30503  0.05309  1.0000
  H   H11       1.0  0.99086  0.67565  0.14392  1.0000
  H   H12       1.0  0.00914  0.32435  0.85608  1.0000
  H   H13       1.0  0.71397  0.04751  0.12651  1.0000
  H   H14       1.0  0.28603  0.95249  0.87348  1.0000
  H   H15       1.0  0.77830  0.04953  0.93088  1.0000
  H   H16       1.0  0.22170  0.95047  0.06911  1.0000
  H   H17       1.0  0.74219  0.03727  0.47041  1.0000
  H   H18       1.0  0.25783  0.96273  0.52958  1.0000
  H   H19       1.0  0.84640  0.03845  0.27648  1.0000
  H   H20       1.0  0.15362  0.96154  0.72351  1.0000
  H   H21       1.0  0.75297  0.67565  0.29022  1.0000
  H   H22       1.0  0.24702  0.32435  0.70978  1.0000
  H   H23       1.0  0.65290  0.69090  0.48310  1.0000
  H   H24       1.0  0.34710  0.30911  0.51691  1.0000
  C   C1        1.0  0.16201  0.68813  0.47593  1.0000
  C   C2        1.0  0.83800  0.31186  0.52407  1.0000
  C   C3        1.0  0.29973  0.59572  0.44800  1.0000
  C   C4        1.0  0.70028  0.40427  0.55201  1.0000
  C   C5        1.0  0.42575  0.54900  0.51462  1.0000
  C   C6        1.0  0.57425  0.45099  0.48538  1.0000
  C   C7        1.0  0.40453  0.60302  0.60948  1.0000
  C   C8        1.0  0.59548  0.39697  0.39052  1.0000
  C   C9        1.0  0.26562  0.69558  0.63518  1.0000
  C   C10       1.0  0.73440  0.30442  0.36482  1.0000
  C   C11       1.0  0.97524  0.76765  0.99249  1.0000
  C   C12       1.0  0.02476  0.23234  0.00751  1.0000
  C   C13       1.0  0.93993  0.76009  0.10028  1.0000
  C   C14       1.0  0.06007  0.23991  0.89972  1.0000
  C   C15       1.0  0.84494  0.86089  0.15189  1.0000
  C   C16       1.0  0.15506  0.13911  0.84811  1.0000
  C   C17       1.0  0.78758  0.96714  0.09013  1.0000
  C   C18       1.0  0.21243  0.03285  0.90987  1.0000
  C   C19       1.0  0.82176  0.97079  0.98281  1.0000
  C   C20       1.0  0.17824  0.02921  0.01719  1.0000
  C   C21       1.0  0.74485  0.96262  0.42437  1.0000
  C   C22       1.0  0.25515  0.03739  0.57562  1.0000
  C   C23       1.0  0.80026  0.96059  0.31851  1.0000
  C   C24       1.0  0.19972  0.03942  0.68148  1.0000
  C   C25       1.0  0.80127  0.85886  0.26589  1.0000
  C   C26       1.0  0.19871  0.14115  0.73411  1.0000
  C   C27       1.0  0.75180  0.75807  0.32594  1.0000
  C   C28       1.0  0.24818  0.24193  0.67407  1.0000
  C   C29       1.0  0.69578  0.76366  0.43150  1.0000
  C   C30       1.0  0.30421  0.23634  0.56850  1.0000
  N   N1        1.0  0.14453  0.73614  0.56921  1.0000
  N   N2        1.0  0.85549  0.26386  0.43078  1.0000
  N   N3        1.0  0.91531  0.87172  0.93532  1.0000
  N   N4        1.0  0.08469  0.12828  0.06468  1.0000
  N   N5        1.0  0.68760  0.86630  0.47880  1.0000
  N   N6        1.0  0.31240  0.13371  0.52120  1.0000
  N   N7        1.0  0.90026  0.57009  0.71919  1.0000
  N   N8        1.0  0.09973  0.42991  0.28081  1.0000
  N   N9        1.0  0.49965  0.75651  0.87795  1.0000
  N   N10       1.0  0.50035  0.24349  0.12205  1.0000
  N   N11       1.0  0.67289  0.09430  0.73149  1.0000
  N   N12       1.0  0.32711  0.90570  0.26851  1.0000
  O   O1        1.0  0.01165  0.82473  0.59430  1.0000
  O   O2        1.0  0.98836  0.17527  0.40570  1.0000
  O   O3        1.0  0.95090  0.87779  0.83197  1.0000
  O   O4        1.0  0.04911  0.12221  0.16803  1.0000
  O   O5        1.0  0.62031  0.87182  0.57814  1.0000
  O   O6        1.0  0.37969  0.12819  0.42186  1.0000
  O   O7        1.0  0.77841  0.62954  0.66734  1.0000
  O   O8        1.0  0.22156  0.37046  0.33267  1.0000
  O   O9        1.0  0.96718  0.63267  0.77138  1.0000
  O   O10       1.0  0.03282  0.36733  0.22861  1.0000
  O   O11       1.0  0.94836  0.45899  0.71724  1.0000
  O   O12       1.0  0.05163  0.54101  0.28275  1.0000
  O   O13       1.0  0.47190  0.79181  0.78284  1.0000
  O   O14       1.0  0.52810  0.20821  0.21716  1.0000
  O   O15       1.0  0.65418  0.75385  0.89710  1.0000
  O   O16       1.0  0.34581  0.24615  0.10291  1.0000
  O   O17       1.0  0.38490  0.72903  0.94561  1.0000
  O   O18       1.0  0.61510  0.27096  0.05439  1.0000
  O   O19       1.0  0.79284  0.04750  0.66075  1.0000
  O   O20       1.0  0.20717  0.95250  0.33925  1.0000
  O   O21       1.0  0.59307  0.01896  0.79161  1.0000
  O   O22       1.0  0.40694  0.98103  0.20838  1.0000
  O   O23       1.0  0.63630  0.20373  0.74247  1.0000
  O   O24       1.0  0.36369  0.79626  0.25753  1.0000
