data_image0
_chemical_formula_structural       Yb2H12C18O14
_chemical_formula_sum              "Yb2 H12 C18 O14"
_cell_length_a       6.95306
_cell_length_b       7.5713
_cell_length_c       10.2102
_cell_angle_alpha    75.7132
_cell_angle_beta     71.0704
_cell_angle_gamma    88.5022

_space_group_name_H-M_alt    "P 1"
_space_group_IT_number       1

loop_
  _space_group_symop_operation_xyz
  'x, y, z'

loop_
  _atom_site_type_symbol
  _atom_site_label
  _atom_site_symmetry_multiplicity
  _atom_site_fract_x
  _atom_site_fract_y
  _atom_site_fract_z
  _atom_site_occupancy
  Yb  Yb1       1.0  0.30664  0.21813  0.01867  1.0000
  Yb  Yb2       1.0  0.69337  0.78187  0.98133  1.0000
  H   H1        1.0  0.18034  0.14584  0.60229  1.0000
  H   H2        1.0  0.81965  0.85416  0.39772  1.0000
  H   H3        1.0  0.71257  0.87038  0.65058  1.0000
  H   H4        1.0  0.28742  0.12961  0.34942  1.0000
  H   H5        1.0  0.69086  0.28931  0.59389  1.0000
  H   H6        1.0  0.30913  0.71069  0.40611  1.0000
  H   H7        1.0  0.06310  0.69430  0.64854  1.0000
  H   H8        1.0  0.93689  0.30570  0.35146  1.0000
  H   H9        1.0  0.99688  0.91734  0.16229  1.0000
  H   H10       1.0  0.00312  0.08266  0.83771  1.0000
  H   H11       1.0  0.21901  0.84507  0.16170  1.0000
  H   H12       1.0  0.78099  0.15493  0.83830  1.0000
  C   C1        1.0  0.38184  0.02640  0.79288  1.0000
  C   C2        1.0  0.61816  0.97360  0.20712  1.0000
  C   C3        1.0  0.43921  0.00771  0.64344  1.0000
  C   C4        1.0  0.56079  0.99228  0.35656  1.0000
  C   C5        1.0  0.31992  0.08150  0.55774  1.0000
  C   C6        1.0  0.68007  0.91850  0.44227  1.0000
  C   C7        1.0  0.61996  0.92684  0.58431  1.0000
  C   C8        1.0  0.38004  0.07315  0.41569  1.0000
  C   C9        1.0  0.71448  0.47834  0.78243  1.0000
  C   C10       1.0  0.28552  0.52165  0.21757  1.0000
  C   C11       1.0  0.86164  0.49021  0.63626  1.0000
  C   C12       1.0  0.13836  0.50979  0.36374  1.0000
  C   C13       1.0  0.82712  0.38050  0.55270  1.0000
  C   C14       1.0  0.17287  0.61951  0.44730  1.0000
  C   C15       1.0  0.03535  0.61040  0.58293  1.0000
  C   C16       1.0  0.96464  0.38960  0.41707  1.0000
  C   C17       1.0  0.91675  0.43379  0.06070  1.0000
  C   C18       1.0  0.08328  0.56622  0.93930  1.0000
  O   O1        1.0  0.47895  0.94980  0.87593  1.0000
  O   O2        1.0  0.52104  0.05020  0.12407  1.0000
  O   O3        1.0  0.24104  0.13394  0.83430  1.0000
  O   O4        1.0  0.75896  0.86606  0.16570  1.0000
  O   O5        1.0  0.61621  0.32441  0.85230  1.0000
  O   O6        1.0  0.38380  0.67558  0.14770  1.0000
  O   O7        1.0  0.69692  0.61781  0.83118  1.0000
  O   O8        1.0  0.30308  0.38219  0.16882  1.0000
  O   O9        1.0  0.96672  0.27186  0.10022  1.0000
  O   O10       1.0  0.03330  0.72815  0.89977  1.0000
  O   O11       1.0  0.74709  0.49827  0.10988  1.0000
  O   O12       1.0  0.25293  0.50174  0.89011  1.0000
  O   O13       1.0  0.13488  0.95336  0.15972  1.0000
  O   O14       1.0  0.86512  0.04664  0.84028  1.0000
