data_image0
_chemical_formula_structural       Cu2H16C18N4Cl4
_chemical_formula_sum              "Cu2 H16 C18 N4 Cl4"
_cell_length_a       6.21329
_cell_length_b       8.40277
_cell_length_c       10.0114
_cell_angle_alpha    81.0788
_cell_angle_beta     75.2483
_cell_angle_gamma    86.7743

_space_group_name_H-M_alt    "P 1"
_space_group_IT_number       1

loop_
  _space_group_symop_operation_xyz
  'x, y, z'

loop_
  _atom_site_type_symbol
  _atom_site_label
  _atom_site_symmetry_multiplicity
  _atom_site_fract_x
  _atom_site_fract_y
  _atom_site_fract_z
  _atom_site_occupancy
  Cu  Cu1       1.0  0.27397  0.06591  0.43425  1.0000
  Cu  Cu2       1.0  0.72603  0.93410  0.56575  1.0000
  H   H1        1.0  0.06825  0.94228  0.20980  1.0000
  H   H2        1.0  0.93175  0.05772  0.79020  1.0000
  H   H3        1.0  0.21204  0.06390  0.92660  1.0000
  H   H4        1.0  0.78797  0.93609  0.07340  1.0000
  H   H5        1.0  0.48365  0.31195  0.92373  1.0000
  H   H6        1.0  0.51634  0.68805  0.07627  1.0000
  H   H7        1.0  0.83371  0.28284  0.05806  1.0000
  H   H8        1.0  0.16628  0.71717  0.94193  1.0000
  H   H9        1.0  0.04548  0.47538  0.13779  1.0000
  H   H10       1.0  0.95452  0.52462  0.86221  1.0000
  H   H11       1.0  0.84911  0.64412  0.31843  1.0000
  H   H12       1.0  0.15089  0.35587  0.68157  1.0000
  H   H13       1.0  0.43868  0.62616  0.41083  1.0000
  H   H14       1.0  0.56132  0.37383  0.58917  1.0000
  H   H15       1.0  0.22641  0.43062  0.33384  1.0000
  H   H16       1.0  0.77360  0.56937  0.66616  1.0000
  C   C1        1.0  0.17698  0.04171  0.15741  1.0000
  C   C2        1.0  0.82302  0.95829  0.84260  1.0000
  C   C3        1.0  0.25043  0.10440  0.01535  1.0000
  C   C4        1.0  0.74958  0.89560  0.98465  1.0000
  C   C5        1.0  0.39153  0.22848  0.01030  1.0000
  C   C6        1.0  0.60847  0.77152  0.98970  1.0000
  C   C7        1.0  0.51852  0.34760  0.19047  1.0000
  C   C8        1.0  0.48148  0.65241  0.80953  1.0000
  C   C9        1.0  0.74801  0.35957  0.13418  1.0000
  C   C10       1.0  0.25199  0.64042  0.86582  1.0000
  C   C11       1.0  0.86617  0.46681  0.18054  1.0000
  C   C12       1.0  0.13383  0.53319  0.81946  1.0000
  C   C13       1.0  0.75647  0.56144  0.28104  1.0000
  C   C14       1.0  0.24353  0.43856  0.71896  1.0000
  C   C15       1.0  0.52631  0.54985  0.33495  1.0000
  C   C16       1.0  0.47370  0.45013  0.66505  1.0000
  C   C17       1.0  0.40560  0.44201  0.29089  1.0000
  C   C18       1.0  0.59441  0.55799  0.70911  1.0000
  N   N1        1.0  0.26580  0.12324  0.23475  1.0000
  N   N2        1.0  0.73420  0.87677  0.76525  1.0000
  N   N3        1.0  0.39782  0.23720  0.14367  1.0000
  N   N4        1.0  0.60218  0.76281  0.85632  1.0000
  Cl  Cl1       1.0  0.37014  0.04366  0.64250  1.0000
  Cl  Cl2       1.0  0.62985  0.95634  0.35750  1.0000
  Cl  Cl3       1.0  0.95074  0.20393  0.51892  1.0000
  Cl  Cl4       1.0  0.04926  0.79608  0.48107  1.0000
