data_image0
_chemical_formula_structural       Ni4H26C38N14O2
_chemical_formula_sum              "Ni4 H26 C38 N14 O2"
_cell_length_a       9.42131
_cell_length_b       9.42131
_cell_length_c       11.3167
_cell_angle_alpha    83.5561
_cell_angle_beta     83.5558
_cell_angle_gamma    73.1269

_space_group_name_H-M_alt    "P 1"
_space_group_IT_number       1

loop_
  _space_group_symop_operation_xyz
  'x, y, z'

loop_
  _atom_site_type_symbol
  _atom_site_label
  _atom_site_symmetry_multiplicity
  _atom_site_fract_x
  _atom_site_fract_y
  _atom_site_fract_z
  _atom_site_occupancy
  Ni  Ni1       1.0  1.00000  0.50000  1.00000  1.0000
  Ni  Ni2       1.0  0.50001  1.00000  0.50000  1.0000
  Ni  Ni3       1.0  0.75351  0.24649  0.75000  1.0000
  Ni  Ni4       1.0  0.24649  0.75351  0.25000  1.0000
  H   H1        1.0  0.93052  0.96300  0.77648  1.0000
  H   H2        1.0  0.96300  0.93052  0.27648  1.0000
  H   H3        1.0  0.06948  0.03700  0.22352  1.0000
  H   H4        1.0  0.03700  0.06947  0.72352  1.0000
  H   H5        1.0  0.79643  0.01051  0.97581  1.0000
  H   H6        1.0  0.01052  0.79643  0.47580  1.0000
  H   H7        1.0  0.20357  0.98948  0.02419  1.0000
  H   H8        1.0  0.98949  0.20357  0.52420  1.0000
  H   H9        1.0  0.63492  0.96757  0.16051  1.0000
  H   H10       1.0  0.96757  0.63492  0.66050  1.0000
  H   H11       1.0  0.36508  0.03243  0.83949  1.0000
  H   H12       1.0  0.03242  0.36508  0.33949  1.0000
  H   H13       1.0  0.38061  0.14736  0.19347  1.0000
  H   H14       1.0  0.14736  0.38061  0.69347  1.0000
  H   H15       1.0  0.61939  0.85264  0.80653  1.0000
  H   H16       1.0  0.85264  0.61939  0.30653  1.0000
  H   H17       1.0  0.30436  0.36840  0.04762  1.0000
  H   H18       1.0  0.36840  0.30436  0.54761  1.0000
  H   H19       1.0  0.69564  0.63160  0.95239  1.0000
  H   H20       1.0  0.63160  0.69564  0.45239  1.0000
  H   H21       1.0  0.26311  0.56338  0.91796  1.0000
  H   H22       1.0  0.56338  0.26311  0.41795  1.0000
  H   H23       1.0  0.73689  0.43662  0.08204  1.0000
  H   H24       1.0  0.43661  0.73689  0.58205  1.0000
  H   H25       1.0  0.23870  0.76130  0.75000  1.0000
  H   H26       1.0  0.76130  0.23870  0.25000  1.0000
  C   C1        1.0  0.95860  0.67646  0.90442  1.0000
  C   C2        1.0  0.67646  0.95861  0.40442  1.0000
  C   C3        1.0  0.04139  0.32355  0.09558  1.0000
  C   C4        1.0  0.32355  0.04139  0.59558  1.0000
  C   C5        1.0  0.92667  0.41108  0.89320  1.0000
  C   C6        1.0  0.41108  0.92666  0.39320  1.0000
  C   C7        1.0  0.07334  0.58892  0.10679  1.0000
  C   C8        1.0  0.58893  0.07333  0.60679  1.0000
  C   C9        1.0  0.68684  0.08732  0.99542  1.0000
  C   C10       1.0  0.08733  0.68684  0.49542  1.0000
  C   C11       1.0  0.31316  0.91268  0.00458  1.0000
  C   C12       1.0  0.91268  0.31316  0.50458  1.0000
  C   C13       1.0  0.59582  0.06347  0.09740  1.0000
  C   C14       1.0  0.06347  0.59583  0.59740  1.0000
  C   C15       1.0  0.40418  0.93653  0.90260  1.0000
  C   C16       1.0  0.93653  0.40418  0.40260  1.0000
  C   C17       1.0  0.45590  0.16441  0.11635  1.0000
  C   C18       1.0  0.16441  0.45590  0.61634  1.0000
  C   C19       1.0  0.54410  0.83559  0.88365  1.0000
  C   C20       1.0  0.83559  0.54410  0.38365  1.0000
  C   C21       1.0  0.41258  0.28735  0.03425  1.0000
  C   C22       1.0  0.28735  0.41258  0.53425  1.0000
  C   C23       1.0  0.58742  0.71265  0.96575  1.0000
  C   C24       1.0  0.71265  0.58742  0.46575  1.0000
  C   C25       1.0  0.50907  0.30453  0.93425  1.0000
  C   C26       1.0  0.30453  0.50908  0.43425  1.0000
  C   C27       1.0  0.49093  0.69547  0.06575  1.0000
  C   C28       1.0  0.69547  0.49093  0.56575  1.0000
  C   C29       1.0  0.47495  0.43016  0.84190  1.0000
  C   C30       1.0  0.43016  0.47496  0.34190  1.0000
  C   C31       1.0  0.52504  0.56984  0.15810  1.0000
  C   C32       1.0  0.56984  0.52504  0.65810  1.0000
  C   C33       1.0  0.34903  0.55338  0.84404  1.0000
  C   C34       1.0  0.55338  0.34903  0.34404  1.0000
  C   C35       1.0  0.65097  0.44662  0.15596  1.0000
  C   C36       1.0  0.44662  0.65097  0.65596  1.0000
  C   C37       1.0  0.33574  0.66426  0.75000  1.0000
  C   C38       1.0  0.66426  0.33574  0.25000  1.0000
  N   N1        1.0  0.93245  0.78793  0.84256  1.0000
  N   N2        1.0  0.78794  0.93245  0.34256  1.0000
  N   N3        1.0  0.06754  0.21207  0.15743  1.0000
  N   N4        1.0  0.21207  0.06754  0.65744  1.0000
  N   N5        1.0  0.87631  0.35431  0.82770  1.0000
  N   N6        1.0  0.35432  0.87632  0.32770  1.0000
  N   N7        1.0  0.12368  0.64568  0.17230  1.0000
  N   N8        1.0  0.64568  0.12369  0.67230  1.0000
  N   N9        1.0  0.58025  0.41975  0.75000  1.0000
  N   N10       1.0  0.41975  0.58025  0.25000  1.0000
  N   N11       1.0  0.64405  0.20379  0.91521  1.0000
  N   N12       1.0  0.20379  0.64406  0.41521  1.0000
  N   N13       1.0  0.35595  0.79621  0.08479  1.0000
  N   N14       1.0  0.79621  0.35594  0.58480  1.0000
  O   O1        1.0  0.93335  0.06664  0.75000  1.0000
  O   O2        1.0  0.06665  0.93335  0.25000  1.0000
