data_image0
_chemical_formula_structural       Sn2P2H10C12O6
_chemical_formula_sum              "Sn2 P2 H10 C12 O6"
_cell_length_a       4.83937
_cell_length_b       6.78
_cell_length_c       12.6002
_cell_angle_alpha    86.8142
_cell_angle_beta     78.927
_cell_angle_gamma    73.1518

_space_group_name_H-M_alt    "P 1"
_space_group_IT_number       1

loop_
  _space_group_symop_operation_xyz
  'x, y, z'

loop_
  _atom_site_type_symbol
  _atom_site_label
  _atom_site_symmetry_multiplicity
  _atom_site_fract_x
  _atom_site_fract_y
  _atom_site_fract_z
  _atom_site_occupancy
  Sn  Sn1       1.0  0.65756  0.09444  0.89407  1.0000
  Sn  Sn2       1.0  0.55151  0.59436  0.10585  1.0000
  P   P1        1.0  0.15484  0.23505  0.12111  1.0000
  P   P2        1.0  0.27626  0.73499  0.87881  1.0000
  H   H1        1.0  0.85158  0.91591  0.15773  1.0000
  H   H2        1.0  0.00884  0.41625  0.84239  1.0000
  H   H3        1.0  0.72488  0.71452  0.32056  1.0000
  H   H4        1.0  0.04448  0.21462  0.67972  1.0000
  H   H5        1.0  0.83721  0.78752  0.49736  1.0000
  H   H6        1.0  0.33394  0.28697  0.50284  1.0000
  H   H7        1.0  0.06740  0.06457  0.51051  1.0000
  H   H8        1.0  0.57769  0.56382  0.48940  1.0000
  H   H9        1.0  0.20182  0.26497  0.34530  1.0000
  H   H10       1.0  0.54721  0.76457  0.65448  1.0000
  C   C1        1.0  0.03957  0.10108  0.24138  1.0000
  C   C2        1.0  0.28083  0.60092  0.75858  1.0000
  C   C3        1.0  0.90329  0.94649  0.23472  1.0000
  C   C4        1.0  0.13750  0.44658  0.76535  1.0000
  C   C5        1.0  0.82988  0.83462  0.32671  1.0000
  C   C6        1.0  0.15588  0.33457  0.67345  1.0000
  C   C7        1.0  0.89065  0.87633  0.42566  1.0000
  C   C8        1.0  0.31567  0.37597  0.57446  1.0000
  C   C9        1.0  0.02194  0.03200  0.43296  1.0000
  C   C10       1.0  0.45455  0.53149  0.56700  1.0000
  C   C11       1.0  0.09665  0.14414  0.34121  1.0000
  C   C12       1.0  0.43771  0.64386  0.65867  1.0000
  O   O1        1.0  0.41141  0.07428  0.05233  1.0000
  O   O2        1.0  0.46383  0.57417  0.94763  1.0000
  O   O3        1.0  0.89733  0.30979  0.05798  1.0000
  O   O4        1.0  0.95567  0.81001  0.94197  1.0000
  O   O5        1.0  0.24048  0.41665  0.16003  1.0000
  O   O6        1.0  0.40135  0.91631  0.83980  1.0000
