data_image0
_chemical_formula_structural       Ag2H26C40N4O10
_chemical_formula_sum              "Ag2 H26 C40 N4 O10"
_cell_length_a       7.92366
_cell_length_b       9.80766
_cell_length_c       11.9361
_cell_angle_alpha    71.4163
_cell_angle_beta     76.3045
_cell_angle_gamma    79.1212

_space_group_name_H-M_alt    "P 1"
_space_group_IT_number       1

loop_
  _space_group_symop_operation_xyz
  'x, y, z'

loop_
  _atom_site_type_symbol
  _atom_site_label
  _atom_site_symmetry_multiplicity
  _atom_site_fract_x
  _atom_site_fract_y
  _atom_site_fract_z
  _atom_site_occupancy
  Ag  Ag1       1.0  0.39841  0.86894  0.03132  1.0000
  Ag  Ag2       1.0  0.60159  0.13106  0.96869  1.0000
  H   H1        1.0  0.53255  0.26386  0.29019  1.0000
  H   H2        1.0  0.46743  0.73614  0.70980  1.0000
  H   H3        1.0  0.45618  0.45763  0.39594  1.0000
  H   H4        1.0  0.54382  0.54237  0.60406  1.0000
  H   H5        1.0  0.23588  0.43183  0.58194  1.0000
  H   H6        1.0  0.76413  0.56816  0.41807  1.0000
  H   H7        1.0  0.08989  0.20417  0.67671  1.0000
  H   H8        1.0  0.91012  0.79582  0.32329  1.0000
  H   H9        1.0  0.33043  0.76697  0.34751  1.0000
  H   H10       1.0  0.66956  0.23303  0.65249  1.0000
  H   H11       1.0  0.58082  0.62590  0.21668  1.0000
  H   H12       1.0  0.41918  0.37411  0.78331  1.0000
  H   H13       1.0  0.78556  0.39946  0.22640  1.0000
  H   H14       1.0  0.21444  0.60054  0.77359  1.0000
  H   H15       1.0  0.80045  0.48539  0.84402  1.0000
  H   H16       1.0  0.19956  0.51461  0.15597  1.0000
  H   H17       1.0  0.59950  0.70843  0.85226  1.0000
  H   H18       1.0  0.40051  0.29158  0.14773  1.0000
  H   H19       1.0  0.90891  0.19962  0.23265  1.0000
  H   H20       1.0  0.09109  0.80037  0.76735  1.0000
  H   H21       1.0  0.12804  0.98873  0.22444  1.0000
  H   H22       1.0  0.87196  0.01126  0.77556  1.0000
  H   H23       1.0  0.00283  0.32483  0.84184  1.0000
  H   H24       1.0  0.99719  0.67517  0.15816  1.0000
  H   H25       1.0  0.22299  0.10599  0.85200  1.0000
  H   H26       1.0  0.77702  0.89401  0.14800  1.0000
  C   C1        1.0  0.24071  0.91340  0.48191  1.0000
  C   C2        1.0  0.75929  0.08660  0.51809  1.0000
  C   C3        1.0  0.35270  0.99787  0.38938  1.0000
  C   C4        1.0  0.64728  0.00212  0.61062  1.0000
  C   C5        1.0  0.34966  0.12792  0.42248  1.0000
  C   C6        1.0  0.65033  0.87208  0.57752  1.0000
  C   C7        1.0  0.43453  0.25332  0.37241  1.0000
  C   C8        1.0  0.56547  0.74668  0.62760  1.0000
  C   C9        1.0  0.39247  0.35933  0.43230  1.0000
  C   C10       1.0  0.60754  0.64066  0.56770  1.0000
  C   C11       1.0  0.26863  0.34355  0.54052  1.0000
  C   C12       1.0  0.73136  0.65644  0.45948  1.0000
  C   C13       1.0  0.18629  0.21857  0.59345  1.0000
  C   C14       1.0  0.81371  0.78142  0.40656  1.0000
  C   C15       1.0  0.23119  0.11342  0.53276  1.0000
  C   C16       1.0  0.76880  0.88658  0.46724  1.0000
  C   C17       1.0  0.19424  0.76468  0.51044  1.0000
  C   C18       1.0  0.80575  0.23531  0.48956  1.0000
  C   C19       1.0  0.45759  0.96759  0.27681  1.0000
  C   C20       1.0  0.54240  0.03240  0.72319  1.0000
  C   C21       1.0  0.63119  0.58806  0.13711  1.0000
  C   C22       1.0  0.36882  0.41195  0.86288  1.0000
  C   C23       1.0  0.74509  0.46097  0.14125  1.0000
  C   C24       1.0  0.25491  0.53904  0.85875  1.0000
  C   C25       1.0  0.80987  0.41760  0.03593  1.0000
  C   C26       1.0  0.19014  0.58241  0.96406  1.0000
  C   C27       1.0  0.75577  0.50909  0.93013  1.0000
  C   C28       1.0  0.24422  0.49091  0.06987  1.0000
  C   C29       1.0  0.64236  0.63494  0.93313  1.0000
  C   C30       1.0  0.35764  0.36507  0.06686  1.0000
  C   C31       1.0  0.93363  0.28411  0.03669  1.0000
  C   C32       1.0  0.06638  0.71590  0.96331  1.0000
  C   C33       1.0  0.97117  0.18498  0.14492  1.0000
  C   C34       1.0  0.02883  0.81502  0.85508  1.0000
  C   C35       1.0  0.09586  0.06572  0.14148  1.0000
  C   C36       1.0  0.90414  0.93429  0.85852  1.0000
  C   C37       1.0  0.02310  0.25283  0.92953  1.0000
  C   C38       1.0  0.97692  0.74718  0.07047  1.0000
  C   C39       1.0  0.14708  0.13162  0.93330  1.0000
  C   C40       1.0  0.85293  0.86838  0.06670  1.0000
  N   N1        1.0  0.57903  0.67420  0.03508  1.0000
  N   N2        1.0  0.42098  0.32582  0.96490  1.0000
  N   N3        1.0  0.18511  0.03965  0.03763  1.0000
  N   N4        1.0  0.81489  0.96035  0.96237  1.0000
  O   O1        1.0  0.16631  0.98228  0.56946  1.0000
  O   O2        1.0  0.83369  0.01772  0.43054  1.0000
  O   O3        1.0  0.24608  0.70185  0.42336  1.0000
  O   O4        1.0  0.75391  0.29815  0.57665  1.0000
  O   O5        1.0  0.11236  0.70496  0.61103  1.0000
  O   O6        1.0  0.88764  0.29502  0.38898  1.0000
  O   O7        1.0  0.44169  0.84925  0.25576  1.0000
  O   O8        1.0  0.55830  0.15074  0.74425  1.0000
  O   O9        1.0  0.55429  0.05978  0.20661  1.0000
  O   O10       1.0  0.44570  0.94021  0.79340  1.0000
