data_image0
_chemical_formula_structural       Ag4H24C32N20O4
_chemical_formula_sum              "Ag4 H24 C32 N20 O4"
_cell_length_a       7.18813
_cell_length_b       9.89526
_cell_length_c       12.7607
_cell_angle_alpha    90.0005
_cell_angle_beta     106.982
_cell_angle_gamma    90.0003

_space_group_name_H-M_alt    "P 1"
_space_group_IT_number       1

loop_
  _space_group_symop_operation_xyz
  'x, y, z'

loop_
  _atom_site_type_symbol
  _atom_site_label
  _atom_site_symmetry_multiplicity
  _atom_site_fract_x
  _atom_site_fract_y
  _atom_site_fract_z
  _atom_site_occupancy
  Ag  Ag1       1.0  0.04155  0.15645  0.10682  1.0000
  Ag  Ag2       1.0  0.95845  0.65645  0.39318  1.0000
  Ag  Ag3       1.0  0.95845  0.84355  0.89318  1.0000
  Ag  Ag4       1.0  0.04154  0.34355  0.60682  1.0000
  H   H1        1.0  0.10350  0.48425  0.85311  1.0000
  H   H2        1.0  0.89650  0.98425  0.64689  1.0000
  H   H3        1.0  0.89650  0.51575  0.14689  1.0000
  H   H4        1.0  0.10350  0.01575  0.35311  1.0000
  H   H5        1.0  0.33796  0.55032  0.21409  1.0000
  H   H6        1.0  0.66204  0.05032  0.28592  1.0000
  H   H7        1.0  0.66204  0.44968  0.78592  1.0000
  H   H8        1.0  0.33796  0.94968  0.71408  1.0000
  H   H9        1.0  0.46986  0.78363  0.26903  1.0000
  H   H10       1.0  0.53015  0.28363  0.23097  1.0000
  H   H11       1.0  0.53015  0.21637  0.73097  1.0000
  H   H12       1.0  0.46985  0.71637  0.76902  1.0000
  H   H13       1.0  0.49638  0.94566  0.12673  1.0000
  H   H14       1.0  0.50363  0.44566  0.37327  1.0000
  H   H15       1.0  0.50363  0.05434  0.87327  1.0000
  H   H16       1.0  0.49637  0.55434  0.62673  1.0000
  H   H17       1.0  0.41133  0.87361  0.93100  1.0000
  H   H18       1.0  0.58867  0.37361  0.56900  1.0000
  H   H19       1.0  0.58868  0.12639  0.06900  1.0000
  H   H20       1.0  0.41132  0.62639  0.43099  1.0000
  H   H21       1.0  0.29293  0.64260  0.87832  1.0000
  H   H22       1.0  0.70706  0.14259  0.62168  1.0000
  H   H23       1.0  0.70707  0.35740  0.12168  1.0000
  H   H24       1.0  0.29293  0.85740  0.37832  1.0000
  C   C1        1.0  0.35471  0.62303  0.15333  1.0000
  C   C2        1.0  0.64529  0.12302  0.34667  1.0000
  C   C3        1.0  0.64529  0.37697  0.84667  1.0000
  C   C4        1.0  0.35471  0.87697  0.65332  1.0000
  C   C5        1.0  0.42441  0.75281  0.18336  1.0000
  C   C6        1.0  0.57559  0.25280  0.31664  1.0000
  C   C7        1.0  0.57560  0.24719  0.81664  1.0000
  C   C8        1.0  0.42440  0.74719  0.68335  1.0000
  C   C9        1.0  0.44223  0.84397  0.10314  1.0000
  C   C10       1.0  0.55777  0.34396  0.39686  1.0000
  C   C11       1.0  0.55778  0.15603  0.89686  1.0000
  C   C12       1.0  0.44223  0.65603  0.60313  1.0000
  C   C13       1.0  0.39180  0.80462  0.99344  1.0000
  C   C14       1.0  0.60820  0.30462  0.50656  1.0000
  C   C15       1.0  0.60821  0.19538  0.00656  1.0000
  C   C16       1.0  0.39179  0.69538  0.49343  1.0000
  C   C17       1.0  0.32311  0.67391  0.96332  1.0000
  C   C18       1.0  0.67688  0.17391  0.53668  1.0000
  C   C19       1.0  0.67689  0.32609  0.03668  1.0000
  C   C20       1.0  0.32311  0.82609  0.46332  1.0000
  C   C21       1.0  0.30334  0.58224  0.04308  1.0000
  C   C22       1.0  0.69666  0.08224  0.45692  1.0000
  C   C23       1.0  0.69667  0.41777  0.95692  1.0000
  C   C24       1.0  0.30333  0.91777  0.54308  1.0000
  C   C25       1.0  0.24063  0.43932  0.01874  1.0000
  C   C26       1.0  0.75936  0.93931  0.48125  1.0000
  C   C27       1.0  0.75937  0.56068  0.98126  1.0000
  C   C28       1.0  0.24062  0.06068  0.51874  1.0000
  C   C29       1.0  0.08778  0.27874  0.87406  1.0000
  C   C30       1.0  0.91223  0.77874  0.62594  1.0000
  C   C31       1.0  0.91223  0.72126  0.12594  1.0000
  C   C32       1.0  0.08777  0.22126  0.37406  1.0000
  N   N1        1.0  0.14422  0.40785  0.91127  1.0000
  N   N2        1.0  0.85578  0.90785  0.58873  1.0000
  N   N3        1.0  0.85578  0.59215  0.08873  1.0000
  N   N4        1.0  0.14421  0.09215  0.41127  1.0000
  N   N5        1.0  0.04530  0.24369  0.76729  1.0000
  N   N6        1.0  0.95470  0.74369  0.73271  1.0000
  N   N7        1.0  0.95470  0.75631  0.23271  1.0000
  N   N8        1.0  0.04529  0.25631  0.26729  1.0000
  N   N9        1.0  0.99667  0.11206  0.76343  1.0000
  N   N10       1.0  0.00333  0.61206  0.73657  1.0000
  N   N11       1.0  0.00333  0.88794  0.23657  1.0000
  N   N12       1.0  0.99667  0.38795  0.26343  1.0000
  N   N13       1.0  0.00875  0.06993  0.86256  1.0000
  N   N14       1.0  0.99125  0.56993  0.63744  1.0000
  N   N15       1.0  0.99125  0.93007  0.13744  1.0000
  N   N16       1.0  0.00875  0.43007  0.36256  1.0000
  N   N17       1.0  0.06599  0.17185  0.93486  1.0000
  N   N18       1.0  0.93401  0.67185  0.56515  1.0000
  N   N19       1.0  0.93402  0.82815  0.06515  1.0000
  N   N20       1.0  0.06598  0.32815  0.43485  1.0000
  O   O1        1.0  0.27728  0.35374  0.09308  1.0000
  O   O2        1.0  0.72272  0.85374  0.40693  1.0000
  O   O3        1.0  0.72271  0.64626  0.90693  1.0000
  O   O4        1.0  0.27726  0.14626  0.59308  1.0000
