data_image0
_chemical_formula_structural       Cu2H20C20N20O12
_chemical_formula_sum              "Cu2 H20 C20 N20 O12"
_cell_length_a       8.10384
_cell_length_b       8.10384
_cell_length_c       12.0071
_cell_angle_alpha    90.0001
_cell_angle_beta     90.0002
_cell_angle_gamma    105.438

_space_group_name_H-M_alt    "P 1"
_space_group_IT_number       1

loop_
  _space_group_symop_operation_xyz
  'x, y, z'

loop_
  _atom_site_type_symbol
  _atom_site_label
  _atom_site_symmetry_multiplicity
  _atom_site_fract_x
  _atom_site_fract_y
  _atom_site_fract_z
  _atom_site_occupancy
  Cu  Cu1       1.0  0.76021  0.76021  0.63683  1.0000
  Cu  Cu2       1.0  0.23979  0.23979  0.13683  1.0000
  H   H1        1.0  0.61452  0.81137  0.18722  1.0000
  H   H2        1.0  0.38548  0.18863  0.68723  1.0000
  H   H3        1.0  0.18863  0.38548  0.68723  1.0000
  H   H4        1.0  0.81137  0.61452  0.18722  1.0000
  H   H5        1.0  0.73415  0.37071  0.93317  1.0000
  H   H6        1.0  0.26585  0.62929  0.43317  1.0000
  H   H7        1.0  0.62929  0.26585  0.43317  1.0000
  H   H8        1.0  0.37071  0.73415  0.93317  1.0000
  H   H9        1.0  0.76513  0.20680  0.02169  1.0000
  H   H10       1.0  0.23488  0.79320  0.52169  1.0000
  H   H11       1.0  0.79320  0.23487  0.52169  1.0000
  H   H12       1.0  0.20680  0.76513  0.02169  1.0000
  H   H13       1.0  0.80232  0.92363  0.45767  1.0000
  H   H14       1.0  0.19768  0.07636  0.95767  1.0000
  H   H15       1.0  0.07637  0.19768  0.95767  1.0000
  H   H16       1.0  0.92363  0.80232  0.45767  1.0000
  H   H17       1.0  0.46308  0.58364  0.73993  1.0000
  H   H18       1.0  0.53692  0.41636  0.23993  1.0000
  H   H19       1.0  0.41636  0.53692  0.23993  1.0000
  H   H20       1.0  0.58364  0.46308  0.73993  1.0000
  C   C1        1.0  0.75958  0.86954  0.93133  1.0000
  C   C2        1.0  0.24042  0.13047  0.43133  1.0000
  C   C3        1.0  0.13047  0.24042  0.43133  1.0000
  C   C4        1.0  0.86954  0.75959  0.93133  1.0000
  C   C5        1.0  0.68705  0.79529  0.11320  1.0000
  C   C6        1.0  0.31295  0.20470  0.61321  1.0000
  C   C7        1.0  0.20471  0.31296  0.61321  1.0000
  C   C8        1.0  0.79530  0.68705  0.11320  1.0000
  C   C9        1.0  0.68956  0.23376  0.95202  1.0000
  C   C10       1.0  0.31044  0.76624  0.45202  1.0000
  C   C11       1.0  0.76624  0.31044  0.45202  1.0000
  C   C12       1.0  0.23376  0.68956  0.95202  1.0000
  C   C13       1.0  0.49850  0.18671  0.98118  1.0000
  C   C14       1.0  0.50150  0.81328  0.48117  1.0000
  C   C15       1.0  0.81328  0.50150  0.48117  1.0000
  C   C16       1.0  0.18672  0.49850  0.98118  1.0000
  C   C17       1.0  0.74252  0.98435  0.84004  1.0000
  C   C18       1.0  0.25747  0.01565  0.34004  1.0000
  C   C19       1.0  0.01564  0.25747  0.34004  1.0000
  C   C20       1.0  0.98435  0.74252  0.84004  1.0000
  N   N1        1.0  0.66925  0.88458  0.02256  1.0000
  N   N2        1.0  0.33075  0.11542  0.52256  1.0000
  N   N3        1.0  0.11542  0.33075  0.52256  1.0000
  N   N4        1.0  0.88458  0.66925  0.02256  1.0000
  N   N5        1.0  0.74588  0.95978  0.72983  1.0000
  N   N6        1.0  0.25413  0.04023  0.22983  1.0000
  N   N7        1.0  0.04023  0.25413  0.22983  1.0000
  N   N8        1.0  0.95978  0.74588  0.72983  1.0000
  N   N9        1.0  0.72454  0.10099  0.67901  1.0000
  N   N10       1.0  0.27546  0.89901  0.17901  1.0000
  N   N11       1.0  0.89901  0.27546  0.17901  1.0000
  N   N12       1.0  0.10099  0.72454  0.67901  1.0000
  N   N13       1.0  0.70778  0.21168  0.75317  1.0000
  N   N14       1.0  0.29221  0.78832  0.25317  1.0000
  N   N15       1.0  0.78831  0.29221  0.25317  1.0000
  N   N16       1.0  0.21169  0.70779  0.75317  1.0000
  N   N17       1.0  0.71908  0.14261  0.85384  1.0000
  N   N18       1.0  0.28092  0.85739  0.35384  1.0000
  N   N19       1.0  0.85739  0.28092  0.35384  1.0000
  N   N20       1.0  0.14261  0.71908  0.85384  1.0000
  O   O1        1.0  0.46950  0.25608  0.07250  1.0000
  O   O2        1.0  0.53050  0.74393  0.57249  1.0000
  O   O3        1.0  0.74392  0.53050  0.57249  1.0000
  O   O4        1.0  0.25608  0.46950  0.07250  1.0000
  O   O5        1.0  0.39351  0.09250  0.91627  1.0000
  O   O6        1.0  0.60649  0.90749  0.41626  1.0000
  O   O7        1.0  0.90749  0.60649  0.41626  1.0000
  O   O8        1.0  0.09251  0.39351  0.91626  1.0000
  O   O9        1.0  0.91163  0.91163  0.49213  1.0000
  O   O10       1.0  0.08838  0.08838  0.99213  1.0000
  O   O11       1.0  0.54080  0.54080  0.78723  1.0000
  O   O12       1.0  0.45920  0.45920  0.28723  1.0000
