data_image0
_chemical_formula_structural       Sm2B4H48C16O4
_chemical_formula_sum              "Sm2 B4 H48 C16 O4"
_cell_length_a       3.96502
_cell_length_b       7.91509
_cell_length_c       18.6647
_cell_angle_alpha    90.0018
_cell_angle_beta     87.9039
_cell_angle_gamma    89.9982

_space_group_name_H-M_alt    "P 1"
_space_group_IT_number       1

loop_
  _space_group_symop_operation_xyz
  'x, y, z'

loop_
  _atom_site_type_symbol
  _atom_site_label
  _atom_site_symmetry_multiplicity
  _atom_site_fract_x
  _atom_site_fract_y
  _atom_site_fract_z
  _atom_site_occupancy
  Sm  Sm1       1.0  0.00000  1.00000  0.00000  1.0000
  Sm  Sm2       1.0  0.49999  0.50000  0.50000  1.0000
  B   B1        1.0  0.48050  0.19603  0.07032  1.0000
  B   B2        1.0  0.01948  0.69611  0.42965  1.0000
  B   B3        1.0  0.51950  0.80397  0.92967  1.0000
  B   B4        1.0  0.98051  0.30389  0.57035  1.0000
  H   H1        1.0  0.13291  0.43265  0.94152  1.0000
  H   H2        1.0  0.36704  0.93273  0.55847  1.0000
  H   H3        1.0  0.86712  0.56736  0.05847  1.0000
  H   H4        1.0  0.63294  0.06728  0.44153  1.0000
  H   H5        1.0  0.69995  0.41009  0.92014  1.0000
  H   H6        1.0  0.80000  0.91013  0.57988  1.0000
  H   H7        1.0  0.30007  0.58991  0.07985  1.0000
  H   H8        1.0  0.19999  0.08989  0.42013  1.0000
  H   H9        1.0  0.89557  0.56415  0.81605  1.0000
  H   H10       1.0  0.60422  0.06418  0.68394  1.0000
  H   H11       1.0  0.10445  0.43583  0.18394  1.0000
  H   H12       1.0  0.39574  0.93584  0.31606  1.0000
  H   H13       1.0  0.30575  0.47697  0.81861  1.0000
  H   H14       1.0  0.19421  0.97703  0.68139  1.0000
  H   H15       1.0  0.69427  0.52302  0.18138  1.0000
  H   H16       1.0  0.80576  0.02298  0.31861  1.0000
  H   H17       1.0  0.87610  0.03506  0.81735  1.0000
  H   H18       1.0  0.62381  0.53512  0.68268  1.0000
  H   H19       1.0  0.12394  0.96492  0.18266  1.0000
  H   H20       1.0  0.37616  0.46492  0.31733  1.0000
  H   H21       1.0  0.30079  0.10929  0.81237  1.0000
  H   H22       1.0  0.19911  0.60937  0.68764  1.0000
  H   H23       1.0  0.69924  0.89070  0.18763  1.0000
  H   H24       1.0  0.80087  0.39063  0.31237  1.0000
  H   H25       1.0  0.66323  0.29859  0.77136  1.0000
  H   H26       1.0  0.83660  0.79865  0.72866  1.0000
  H   H27       1.0  0.33680  0.70138  0.22864  1.0000
  H   H28       1.0  0.16339  0.20137  0.27134  1.0000
  H   H29       1.0  0.06172  0.29895  0.72550  1.0000
  H   H30       1.0  0.43819  0.79900  0.77449  1.0000
  H   H31       1.0  0.93831  0.70102  0.27449  1.0000
  H   H32       1.0  0.56180  0.20101  0.22552  1.0000
  H   H33       1.0  0.57691  0.21762  0.00708  1.0000
  H   H34       1.0  0.92295  0.71774  0.49289  1.0000
  H   H35       1.0  0.42310  0.78237  0.99292  1.0000
  H   H36       1.0  0.07704  0.28227  0.50711  1.0000
  H   H37       1.0  0.57649  0.30894  0.10818  1.0000
  H   H38       1.0  0.92355  0.80898  0.39178  1.0000
  H   H39       1.0  0.42351  0.69106  0.89182  1.0000
  H   H40       1.0  0.07644  0.19101  0.60822  1.0000
  H   H41       1.0  0.58510  0.05751  0.09132  1.0000
  H   H42       1.0  0.91495  0.55757  0.40866  1.0000
  H   H43       1.0  0.41490  0.94248  0.90868  1.0000
  H   H44       1.0  0.08505  0.44242  0.59134  1.0000
  H   H45       1.0  0.16856  0.20006  0.07590  1.0000
  H   H46       1.0  0.33141  0.70013  0.42410  1.0000
  H   H47       1.0  0.83144  0.79994  0.92409  1.0000
  H   H48       1.0  0.66858  0.29987  0.57590  1.0000
  C   C1        1.0  0.96104  0.38363  0.90175  1.0000
  C   C2        1.0  0.53890  0.88371  0.59826  1.0000
  C   C3        1.0  0.03897  0.61639  0.09825  1.0000
  C   C4        1.0  0.46105  0.11629  0.40174  1.0000
  C   C5        1.0  0.03620  0.44783  0.82610  1.0000
  C   C6        1.0  0.46369  0.94787  0.67391  1.0000
  C   C7        1.0  0.96383  0.55214  0.17389  1.0000
  C   C8        1.0  0.53629  0.05216  0.32609  1.0000
  C   C9        1.0  0.03688  0.14670  0.82338  1.0000
  C   C10       1.0  0.46306  0.64674  0.67666  1.0000
  C   C11       1.0  0.96317  0.85329  0.17662  1.0000
  C   C12       1.0  0.53694  0.35326  0.32334  1.0000
  C   C13       1.0  0.93658  0.29860  0.77899  1.0000
  C   C14       1.0  0.56326  0.79871  0.72102  1.0000
  C   C15       1.0  0.06343  0.70138  0.22101  1.0000
  C   C16       1.0  0.43671  0.20131  0.27899  1.0000
  O   O1        1.0  0.00426  0.19995  0.89808  1.0000
  O   O2        1.0  0.49567  0.70004  0.60196  1.0000
  O   O3        1.0  0.99577  0.80006  0.10192  1.0000
  O   O4        1.0  0.50432  0.29997  0.39804  1.0000
