data_image0
_chemical_formula_structural       Ag2H16C28N10
_chemical_formula_sum              "Ag2 H16 C28 N10"
_cell_length_a       7.27414
_cell_length_b       9.24299
_cell_length_c       10.0014
_cell_angle_alpha    86.5921
_cell_angle_beta     81.3581
_cell_angle_gamma    66.783

_space_group_name_H-M_alt    "P 1"
_space_group_IT_number       1

loop_
  _space_group_symop_operation_xyz
  'x, y, z'

loop_
  _atom_site_type_symbol
  _atom_site_label
  _atom_site_symmetry_multiplicity
  _atom_site_fract_x
  _atom_site_fract_y
  _atom_site_fract_z
  _atom_site_occupancy
  Ag  Ag1       1.0  0.07639  0.84657  0.25017  1.0000
  Ag  Ag2       1.0  0.92362  0.15344  0.74982  1.0000
  H   H1        1.0  0.93908  0.61502  0.42547  1.0000
  H   H2        1.0  0.55436  0.38499  0.92487  1.0000
  H   H3        1.0  0.06093  0.38498  0.57453  1.0000
  H   H4        1.0  0.44565  0.61500  0.07513  1.0000
  H   H5        1.0  0.72567  0.60459  0.64055  1.0000
  H   H6        1.0  0.32990  0.39534  0.13969  1.0000
  H   H7        1.0  0.27434  0.39541  0.35944  1.0000
  H   H8        1.0  0.67010  0.60465  0.86030  1.0000
  H   H9        1.0  0.57454  0.10406  0.68281  1.0000
  H   H10       1.0  0.67896  0.89577  0.18215  1.0000
  H   H11       1.0  0.42545  0.89593  0.31719  1.0000
  H   H12       1.0  0.32104  0.10422  0.81785  1.0000
  H   H13       1.0  0.78439  0.09402  0.46269  1.0000
  H   H14       1.0  0.87906  0.90583  0.96221  1.0000
  H   H15       1.0  0.21560  0.90599  0.53731  1.0000
  H   H16       1.0  0.12094  0.09416  0.03780  1.0000
  C   C1        1.0  0.56098  0.55961  0.31193  1.0000
  C   C2        1.0  0.12236  0.44067  0.81100  1.0000
  C   C3        1.0  0.43903  0.44039  0.68809  1.0000
  C   C4        1.0  0.87762  0.55935  0.18900  1.0000
  C   C5        1.0  0.84257  0.31289  0.25046  1.0000
  C   C6        1.0  0.15742  0.68711  0.74953  1.0000
  C   C7        1.0  0.75995  0.47809  0.25039  1.0000
  C   C8        1.0  0.24003  0.52193  0.74962  1.0000
  C   C9        1.0  0.85515  0.72060  0.48629  1.0000
  C   C10       1.0  0.57593  0.27941  0.98567  1.0000
  C   C11       1.0  0.14486  0.27940  0.51371  1.0000
  C   C12       1.0  0.42407  0.72059  0.01433  1.0000
  C   C13       1.0  0.73747  0.71558  0.60785  1.0000
  C   C14       1.0  0.45292  0.28435  0.10706  1.0000
  C   C15       1.0  0.26253  0.28442  0.39214  1.0000
  C   C16       1.0  0.54707  0.71565  0.89294  1.0000
  C   C17       1.0  0.63331  0.85397  0.68431  1.0000
  C   C18       1.0  0.48740  0.14599  0.18359  1.0000
  C   C19       1.0  0.36669  0.14602  0.31568  1.0000
  C   C20       1.0  0.51260  0.85401  0.81641  1.0000
  C   C21       1.0  0.64975  0.99228  0.62970  1.0000
  C   C22       1.0  0.64246  0.00764  0.12914  1.0000
  C   C23       1.0  0.35024  0.00772  0.37029  1.0000
  C   C24       1.0  0.35755  0.99235  0.87086  1.0000
  C   C25       1.0  0.76866  0.98798  0.50647  1.0000
  C   C26       1.0  0.75724  0.01196  0.00598  1.0000
  C   C27       1.0  0.23133  0.01203  0.49352  1.0000
  C   C28       1.0  0.24278  0.98803  0.99402  1.0000
  N   N1        1.0  0.39286  0.62738  0.36184  1.0000
  N   N2        1.0  0.02194  0.37300  0.86080  1.0000
  N   N3        1.0  0.60713  0.37263  0.63818  1.0000
  N   N4        1.0  0.97807  0.62699  0.13922  1.0000
  N   N5        1.0  0.91189  0.17477  0.25032  1.0000
  N   N6        1.0  0.08811  0.82525  0.74968  1.0000
  N   N7        1.0  0.87223  0.85387  0.43565  1.0000
  N   N8        1.0  0.72664  0.14611  0.93519  1.0000
  N   N9        1.0  0.12777  0.14614  0.56435  1.0000
  N   N10       1.0  0.27337  0.85388  0.06481  1.0000
