data_image0
_chemical_formula_structural       Ag2H12C16N8
_chemical_formula_sum              "Ag2 H12 C16 N8"
_cell_length_a       7.13312
_cell_length_b       8.09599
_cell_length_c       8.45659
_cell_angle_alpha    88.6804
_cell_angle_beta     70.5452
_cell_angle_gamma    72.7229

_space_group_name_H-M_alt    "P 1"
_space_group_IT_number       1

loop_
  _space_group_symop_operation_xyz
  'x, y, z'

loop_
  _atom_site_type_symbol
  _atom_site_label
  _atom_site_symmetry_multiplicity
  _atom_site_fract_x
  _atom_site_fract_y
  _atom_site_fract_z
  _atom_site_occupancy
  Ag  Ag1       1.0  0.96587  0.61479  0.79374  1.0000
  Ag  Ag2       1.0  0.03414  0.38521  0.20626  1.0000
  H   H1        1.0  0.41853  0.12919  0.65611  1.0000
  H   H2        1.0  0.58146  0.87082  0.34389  1.0000
  H   H3        1.0  0.19636  0.29846  0.78289  1.0000
  H   H4        1.0  0.80365  0.70153  0.21709  1.0000
  H   H5        1.0  0.43322  0.24126  0.82718  1.0000
  H   H6        1.0  0.56677  0.75873  0.17281  1.0000
  H   H7        1.0  0.22674  0.86798  0.36887  1.0000
  H   H8        1.0  0.77326  0.13202  0.63113  1.0000
  H   H9        1.0  0.18884  0.91742  0.58168  1.0000
  H   H10       1.0  0.81116  0.08259  0.41833  1.0000
  H   H11       1.0  0.03687  0.80109  0.53250  1.0000
  H   H12       1.0  0.96310  0.19891  0.46752  1.0000
  C   C1        1.0  0.65971  0.19244  0.05605  1.0000
  C   C2        1.0  0.34030  0.80757  0.94395  1.0000
  C   C3        1.0  0.77169  0.02448  0.97889  1.0000
  C   C4        1.0  0.22833  0.97551  0.02110  1.0000
  C   C5        1.0  0.72710  0.33099  0.98447  1.0000
  C   C6        1.0  0.27291  0.66902  0.01553  1.0000
  C   C7        1.0  0.48909  0.21589  0.20597  1.0000
  C   C8        1.0  0.51094  0.78410  0.79401  1.0000
  C   C9        1.0  0.43654  0.38583  0.61000  1.0000
  C   C10       1.0  0.56344  0.61419  0.38999  1.0000
  C   C11       1.0  0.36699  0.25700  0.72542  1.0000
  C   C12       1.0  0.63298  0.74298  0.27459  1.0000
  C   C13       1.0  0.35355  0.65053  0.49485  1.0000
  C   C14       1.0  0.64646  0.34946  0.50516  1.0000
  C   C15       1.0  0.19285  0.81751  0.49319  1.0000
  C   C16       1.0  0.80717  0.18248  0.50681  1.0000
  N   N1        1.0  0.86612  0.88345  0.91596  1.0000
  N   N2        1.0  0.13388  0.11656  0.08405  1.0000
  N   N3        1.0  0.78847  0.44314  0.91863  1.0000
  N   N4        1.0  0.21153  0.55686  0.08137  1.0000
  N   N5        1.0  0.34570  0.23192  0.33052  1.0000
  N   N6        1.0  0.65429  0.76808  0.66948  1.0000
  N   N7        1.0  0.29410  0.53649  0.60380  1.0000
  N   N8        1.0  0.70591  0.46352  0.39619  1.0000
