data_image0
_chemical_formula_structural       Ag2H18C23N12
_chemical_formula_sum              "Ag2 H18 C23 N12"
_cell_length_a       7.78877
_cell_length_b       8.26966
_cell_length_c       10.317
_cell_angle_alpha    103.444
_cell_angle_beta     94.3408
_cell_angle_gamma    89.616

_space_group_name_H-M_alt    "P 1"
_space_group_IT_number       1

loop_
  _space_group_symop_operation_xyz
  'x, y, z'

loop_
  _atom_site_type_symbol
  _atom_site_label
  _atom_site_symmetry_multiplicity
  _atom_site_fract_x
  _atom_site_fract_y
  _atom_site_fract_z
  _atom_site_occupancy
  Ag  Ag1       1.0  0.18755  0.15211  0.46425  1.0000
  Ag  Ag2       1.0  0.34708  0.32668  0.12204  1.0000
  H   H1        1.0  0.95405  0.17941  0.96271  1.0000
  H   H2        1.0  0.85921  0.60036  0.81530  1.0000
  H   H3        1.0  0.01702  0.47362  0.61286  1.0000
  H   H4        1.0  0.22836  0.97985  0.69295  1.0000
  H   H5        1.0  0.01285  0.90749  0.68096  1.0000
  H   H6        1.0  0.13301  0.95436  0.83948  1.0000
  H   H7        1.0  0.57230  0.31787  0.61629  1.0000
  H   H8        1.0  0.67271  0.89052  0.75320  1.0000
  H   H9        1.0  0.52641  0.01355  0.96133  1.0000
  H   H10       1.0  0.30844  0.51154  0.89342  1.0000
  H   H11       1.0  0.39881  0.54025  0.74586  1.0000
  H   H12       1.0  0.52326  0.58467  0.90224  1.0000
  H   H13       1.0  0.01668  0.40434  0.30678  1.0000
  H   H14       1.0  0.50703  0.06215  0.28899  1.0000
  H   H15       1.0  0.79044  0.99615  0.40047  1.0000
  H   H16       1.0  0.59378  0.56639  0.19310  1.0000
  H   H17       1.0  0.75959  0.48987  0.08508  1.0000
  H   H18       1.0  0.81441  0.61973  0.24590  1.0000
  C   C1        1.0  0.47769  0.66974  0.47666  1.0000
  C   C2        1.0  0.39396  0.80854  0.44799  1.0000
  C   C3        1.0  0.38185  0.52527  0.47060  1.0000
  C   C4        1.0  0.65603  0.67551  0.51216  1.0000
  C   C5        1.0  0.05722  0.81144  0.10167  1.0000
  C   C6        1.0  0.15565  0.95504  0.11121  1.0000
  C   C7        1.0  0.13605  0.66989  0.12951  1.0000
  C   C8        1.0  0.88130  0.81294  0.05914  1.0000
  C   C9        1.0  0.04718  0.16761  0.76771  1.0000
  C   C10       1.0  0.96603  0.24472  0.88312  1.0000
  C   C11       1.0  0.91564  0.47710  0.80300  1.0000
  C   C12       1.0  0.00103  0.40617  0.69038  1.0000
  C   C13       1.0  0.10951  0.99286  0.74496  1.0000
  C   C14       1.0  0.48782  0.32477  0.81307  1.0000
  C   C15       1.0  0.56394  0.24989  0.69455  1.0000
  C   C16       1.0  0.61749  0.01452  0.76867  1.0000
  C   C17       1.0  0.53778  0.08347  0.88483  1.0000
  C   C18       1.0  0.42546  0.49976  0.83926  1.0000
  C   C19       1.0  0.90185  0.32813  0.30336  1.0000
  C   C20       1.0  0.74359  0.37069  0.24624  1.0000
  C   C21       1.0  0.62141  0.13929  0.29390  1.0000
  C   C22       1.0  0.77789  0.10134  0.35354  1.0000
  C   C23       1.0  0.72642  0.52057  0.19006  1.0000
  N   N1        1.0  0.32247  0.92435  0.42345  1.0000
  N   N2        1.0  0.30219  0.40420  0.46684  1.0000
  N   N3        1.0  0.80479  0.68076  0.54182  1.0000
  N   N4        1.0  0.23409  0.07702  0.11596  1.0000
  N   N5        1.0  0.20532  0.55239  0.15298  1.0000
  N   N6        1.0  0.73528  0.81681  0.02236  1.0000
  N   N7        1.0  0.06586  0.25232  0.67279  1.0000
  N   N8        1.0  0.89944  0.39680  0.90052  1.0000
  N   N9        1.0  0.47355  0.23789  0.90727  1.0000
  N   N10       1.0  0.62959  0.09703  0.67186  1.0000
  N   N11       1.0  0.91914  0.19523  0.35633  1.0000
  N   N12       1.0  0.60427  0.27279  0.24070  1.0000
