data_image0
_chemical_formula_structural       Ni2H32C28N8O8
_chemical_formula_sum              "Ni2 H32 C28 N8 O8"
_cell_length_a       8.38232
_cell_length_b       8.42159
_cell_length_c       11.7911
_cell_angle_alpha    90.0002
_cell_angle_beta     89.9974
_cell_angle_gamma    113.2

_space_group_name_H-M_alt    "P 1"
_space_group_IT_number       1

loop_
  _space_group_symop_operation_xyz
  'x, y, z'

loop_
  _atom_site_type_symbol
  _atom_site_label
  _atom_site_symmetry_multiplicity
  _atom_site_fract_x
  _atom_site_fract_y
  _atom_site_fract_z
  _atom_site_occupancy
  Ni  Ni1       1.0  0.00001  0.00001  0.50000  1.0000
  Ni  Ni2       1.0  0.50000  0.49999  0.00000  1.0000
  H   H1        1.0  0.85655  0.38162  0.77603  1.0000
  H   H2        1.0  0.64343  0.11838  0.27602  1.0000
  H   H3        1.0  0.14345  0.61838  0.22397  1.0000
  H   H4        1.0  0.35657  0.88162  0.72398  1.0000
  H   H5        1.0  0.92392  0.68177  0.64735  1.0000
  H   H6        1.0  0.57606  0.81823  0.14736  1.0000
  H   H7        1.0  0.07609  0.31824  0.35265  1.0000
  H   H8        1.0  0.42392  0.18175  0.85265  1.0000
  H   H9        1.0  0.83248  0.92387  0.72913  1.0000
  H   H10       1.0  0.66752  0.57613  0.22912  1.0000
  H   H11       1.0  0.16752  0.07614  0.27087  1.0000
  H   H12       1.0  0.33248  0.42386  0.77088  1.0000
  H   H13       1.0  0.79016  0.05665  0.83317  1.0000
  H   H14       1.0  0.70983  0.44335  0.33316  1.0000
  H   H15       1.0  0.20983  0.94335  0.16683  1.0000
  H   H16       1.0  0.29016  0.55665  0.66685  1.0000
  H   H17       1.0  0.00407  0.06444  0.81575  1.0000
  H   H18       1.0  0.49592  0.43556  0.31575  1.0000
  H   H19       1.0  0.99592  0.93556  0.18425  1.0000
  H   H20       1.0  0.50408  0.56444  0.68426  1.0000
  H   H21       1.0  0.44939  0.69775  0.36828  1.0000
  H   H22       1.0  0.05059  0.80224  0.86828  1.0000
  H   H23       1.0  0.55064  0.30224  0.63171  1.0000
  H   H24       1.0  0.94940  0.19777  0.13171  1.0000
  H   H25       1.0  0.41139  0.88644  0.39619  1.0000
  H   H26       1.0  0.08858  0.61356  0.89619  1.0000
  H   H27       1.0  0.58861  0.11355  0.60380  1.0000
  H   H28       1.0  0.91142  0.38646  0.10380  1.0000
  H   H29       1.0  0.43034  0.75520  0.51094  1.0000
  H   H30       1.0  0.06960  0.74479  0.01094  1.0000
  H   H31       1.0  0.56967  0.24478  0.48905  1.0000
  H   H32       1.0  0.93040  0.25524  0.98905  1.0000
  C   C1        1.0  0.95275  0.44092  0.60748  1.0000
  C   C2        1.0  0.54726  0.05908  0.10748  1.0000
  C   C3        1.0  0.04728  0.55910  0.39252  1.0000
  C   C4        1.0  0.45272  0.94090  0.89253  1.0000
  C   C5        1.0  0.99511  0.33852  0.52591  1.0000
  C   C6        1.0  0.50489  0.16148  0.02590  1.0000
  C   C7        1.0  0.00490  0.66149  0.47410  1.0000
  C   C8        1.0  0.49510  0.83851  0.97411  1.0000
  C   C9        1.0  0.95539  0.60415  0.58458  1.0000
  C   C10       1.0  0.54460  0.89585  0.08458  1.0000
  C   C11       1.0  0.04462  0.39586  0.41542  1.0000
  C   C12       1.0  0.45540  0.10414  0.91542  1.0000
  C   C13       1.0  0.92109  0.18890  0.68460  1.0000
  C   C14       1.0  0.57891  0.31110  0.18459  1.0000
  C   C15       1.0  0.07892  0.81110  0.31540  1.0000
  C   C16       1.0  0.42109  0.68889  0.81541  1.0000
  C   C17       1.0  0.88441  0.05055  0.77060  1.0000
  C   C18       1.0  0.61559  0.44945  0.27059  1.0000
  C   C19       1.0  0.11559  0.94945  0.22940  1.0000
  C   C20       1.0  0.38441  0.55055  0.72942  1.0000
  C   C21       1.0  0.47907  0.80703  0.42703  1.0000
  C   C22       1.0  0.02090  0.69297  0.92703  1.0000
  C   C23       1.0  0.52094  0.19296  0.57296  1.0000
  C   C24       1.0  0.97909  0.30705  0.07296  1.0000
  C   C25       1.0  0.67273  0.91078  0.42759  1.0000
  C   C26       1.0  0.82725  0.58922  0.92760  1.0000
  C   C27       1.0  0.32728  0.08923  0.57241  1.0000
  C   C28       1.0  0.17275  0.41078  0.07240  1.0000
  N   N1        1.0  0.90945  0.34272  0.70547  1.0000
  N   N2        1.0  0.59054  0.15728  0.20547  1.0000
  N   N3        1.0  0.09055  0.65728  0.29453  1.0000
  N   N4        1.0  0.40944  0.84272  0.79453  1.0000
  N   N5        1.0  0.97264  0.18258  0.57764  1.0000
  N   N6        1.0  0.52737  0.31742  0.07763  1.0000
  N   N7        1.0  0.02737  0.81742  0.42237  1.0000
  N   N8        1.0  0.47262  0.68257  0.92237  1.0000
  O   O1        1.0  0.74304  0.02585  0.35418  1.0000
  O   O2        1.0  0.75692  0.47413  0.85420  1.0000
  O   O3        1.0  0.25697  0.97416  0.64582  1.0000
  O   O4        1.0  0.24308  0.52586  0.14581  1.0000
  O   O5        1.0  0.75849  0.87044  0.50577  1.0000
  O   O6        1.0  0.74150  0.62958  0.00578  1.0000
  O   O7        1.0  0.24153  0.12956  0.49423  1.0000
  O   O8        1.0  0.25849  0.37042  0.99423  1.0000
