data_image0
_chemical_formula_structural       Tl4H12C24N8O20
_chemical_formula_sum              "Tl4 H12 C24 N8 O20"
_cell_length_a       4.12881
_cell_length_b       9.29375
_cell_length_c       20.9829
_cell_angle_alpha    89.9994
_cell_angle_beta     90
_cell_angle_gamma    85.8353

_space_group_name_H-M_alt    "P 1"
_space_group_IT_number       1

loop_
  _space_group_symop_operation_xyz
  'x, y, z'

loop_
  _atom_site_type_symbol
  _atom_site_label
  _atom_site_symmetry_multiplicity
  _atom_site_fract_x
  _atom_site_fract_y
  _atom_site_fract_z
  _atom_site_occupancy
  Tl  Tl1       1.0  0.48396  0.23321  0.47219  1.0000
  Tl  Tl2       1.0  0.48397  0.73319  0.02781  1.0000
  Tl  Tl3       1.0  0.51604  0.76683  0.52781  1.0000
  Tl  Tl4       1.0  0.51605  0.26681  0.97219  1.0000
  H   H1        1.0  0.42017  0.92105  0.69091  1.0000
  H   H2        1.0  0.42019  0.42104  0.80909  1.0000
  H   H3        1.0  0.57980  0.07896  0.30910  1.0000
  H   H4        1.0  0.57982  0.57895  0.19089  1.0000
  H   H5        1.0  0.28214  0.23886  0.72599  1.0000
  H   H6        1.0  0.28216  0.73884  0.77401  1.0000
  H   H7        1.0  0.71784  0.76116  0.27402  1.0000
  H   H8        1.0  0.71785  0.26115  0.22598  1.0000
  H   H9        1.0  0.59468  0.97943  0.80399  1.0000
  H   H10       1.0  0.59469  0.47942  0.69601  1.0000
  H   H11       1.0  0.40531  0.02057  0.19602  1.0000
  H   H12       1.0  0.40534  0.52058  0.30398  1.0000
  C   C1        1.0  0.70652  0.07269  0.64257  1.0000
  C   C2        1.0  0.70653  0.57267  0.85743  1.0000
  C   C3        1.0  0.29348  0.92733  0.35743  1.0000
  C   C4        1.0  0.29349  0.42731  0.14256  1.0000
  C   C5        1.0  0.51850  0.02526  0.70125  1.0000
  C   C6        1.0  0.51851  0.52524  0.79875  1.0000
  C   C7        1.0  0.48148  0.97477  0.29876  1.0000
  C   C8        1.0  0.48149  0.47475  0.20124  1.0000
  C   C9        1.0  0.70416  0.02176  0.76124  1.0000
  C   C10       1.0  0.70418  0.52175  0.73876  1.0000
  C   C11       1.0  0.29581  0.97825  0.23877  1.0000
  C   C12       1.0  0.29582  0.47826  0.26122  1.0000
  C   C13       1.0  0.98806  0.08402  0.76747  1.0000
  C   C14       1.0  0.98807  0.58401  0.73253  1.0000
  C   C15       1.0  0.01191  0.91599  0.23254  1.0000
  C   C16       1.0  0.01194  0.41598  0.26746  1.0000
  C   C17       1.0  0.18680  0.13569  0.71371  1.0000
  C   C18       1.0  0.18681  0.63568  0.78629  1.0000
  C   C19       1.0  0.81318  0.86432  0.28630  1.0000
  C   C20       1.0  0.81320  0.36431  0.21371  1.0000
  C   C21       1.0  0.98699  0.15262  0.65465  1.0000
  C   C22       1.0  0.98698  0.65261  0.84535  1.0000
  C   C23       1.0  0.01302  0.84739  0.34536  1.0000
  C   C24       1.0  0.01302  0.34738  0.15464  1.0000
  N   N1        1.0  0.07535  0.12405  0.83195  1.0000
  N   N2        1.0  0.07537  0.62405  0.66805  1.0000
  N   N3        1.0  0.92463  0.87594  0.16806  1.0000
  N   N4        1.0  0.92466  0.37595  0.33194  1.0000
  N   N5        1.0  0.09802  0.25067  0.61205  1.0000
  N   N6        1.0  0.09803  0.75065  0.88795  1.0000
  N   N7        1.0  0.90198  0.74934  0.38796  1.0000
  N   N8        1.0  0.90198  0.24932  0.11205  1.0000
  O   O1        1.0  0.60135  0.03996  0.58871  1.0000
  O   O2        1.0  0.60137  0.53992  0.91129  1.0000
  O   O3        1.0  0.39863  0.96008  0.41129  1.0000
  O   O4        1.0  0.39864  0.46005  0.08870  1.0000
  O   O5        1.0  0.29066  0.21232  0.83719  1.0000
  O   O6        1.0  0.29067  0.71231  0.66282  1.0000
  O   O7        1.0  0.70932  0.78768  0.16282  1.0000
  O   O8        1.0  0.70935  0.28768  0.33718  1.0000
  O   O9        1.0  0.92687  0.07937  0.87844  1.0000
  O   O10       1.0  0.92687  0.57939  0.62157  1.0000
  O   O11       1.0  0.07314  0.92061  0.12157  1.0000
  O   O12       1.0  0.07316  0.42062  0.37842  1.0000
  O   O13       1.0  0.96780  0.27205  0.55728  1.0000
  O   O14       1.0  0.96783  0.77202  0.94272  1.0000
  O   O15       1.0  0.03218  0.72797  0.44273  1.0000
  O   O16       1.0  0.03220  0.22793  0.05728  1.0000
  O   O17       1.0  0.33255  0.32399  0.62804  1.0000
  O   O18       1.0  0.33256  0.82398  0.87196  1.0000
  O   O19       1.0  0.66743  0.67602  0.37197  1.0000
  O   O20       1.0  0.66743  0.17600  0.12804  1.0000
