data_image0
_chemical_formula_structural       Tl2H8C12N2O6
_chemical_formula_sum              "Tl2 H8 C12 N2 O6"
_cell_length_a       3.8284
_cell_length_b       9.3821
_cell_length_c       10.1879
_cell_angle_alpha    83.5068
_cell_angle_beta     86.5718
_cell_angle_gamma    79.2436

_space_group_name_H-M_alt    "P 1"
_space_group_IT_number       1

loop_
  _space_group_symop_operation_xyz
  'x, y, z'

loop_
  _atom_site_type_symbol
  _atom_site_label
  _atom_site_symmetry_multiplicity
  _atom_site_fract_x
  _atom_site_fract_y
  _atom_site_fract_z
  _atom_site_occupancy
  Tl  Tl1       1.0  0.27315  0.86577  0.14410  1.0000
  Tl  Tl2       1.0  0.72691  0.13422  0.85591  1.0000
  H   H1        1.0  0.26669  0.64524  0.93484  1.0000
  H   H2        1.0  0.73337  0.35474  0.06515  1.0000
  H   H3        1.0  0.20648  0.58976  0.52259  1.0000
  H   H4        1.0  0.79349  0.41025  0.47740  1.0000
  H   H5        1.0  0.28368  0.84790  0.46189  1.0000
  H   H6        1.0  0.71621  0.15212  0.53811  1.0000
  H   H7        1.0  0.34318  0.00502  0.63584  1.0000
  H   H8        1.0  0.65675  0.99498  0.36417  1.0000
  C   C1        1.0  0.31176  0.83898  0.79967  1.0000
  C   C2        1.0  0.68827  0.16102  0.20033  1.0000
  C   C3        1.0  0.27255  0.69236  0.83239  1.0000
  C   C4        1.0  0.72749  0.30763  0.16760  1.0000
  C   C5        1.0  0.23405  0.60790  0.73184  1.0000
  C   C6        1.0  0.76597  0.39210  0.26816  1.0000
  C   C7        1.0  0.23780  0.65947  0.59752  1.0000
  C   C8        1.0  0.76215  0.34053  0.40248  1.0000
  C   C9        1.0  0.27996  0.80349  0.56546  1.0000
  C   C10       1.0  0.71996  0.19652  0.43455  1.0000
  C   C11       1.0  0.31430  0.89186  0.66329  1.0000
  C   C12       1.0  0.68567  0.10815  0.33671  1.0000
  N   N1        1.0  0.18721  0.45816  0.76873  1.0000
  N   N2        1.0  0.81281  0.54183  0.23126  1.0000
  O   O1        1.0  0.33540  0.92606  0.89187  1.0000
  O   O2        1.0  0.66468  0.07393  0.10813  1.0000
  O   O3        1.0  0.20623  0.40799  0.88790  1.0000
  O   O4        1.0  0.79379  0.59201  0.11209  1.0000
  O   O5        1.0  0.13518  0.38295  0.68058  1.0000
  O   O6        1.0  0.86485  0.61704  0.31942  1.0000
