data_image0
_chemical_formula_structural       Hg2H16C4I4N4
_chemical_formula_sum              "Hg2 H16 C4 I4 N4"
_cell_length_a       6.71852
_cell_length_b       6.8852
_cell_length_c       9.45968
_cell_angle_alpha    90.2228
_cell_angle_beta     82.4085
_cell_angle_gamma    73.8345

_space_group_name_H-M_alt    "P 1"
_space_group_IT_number       1

loop_
  _space_group_symop_operation_xyz
  'x, y, z'

loop_
  _atom_site_type_symbol
  _atom_site_label
  _atom_site_symmetry_multiplicity
  _atom_site_fract_x
  _atom_site_fract_y
  _atom_site_fract_z
  _atom_site_occupancy
  Hg  Hg1       1.0  0.44368  0.82763  0.24660  1.0000
  Hg  Hg2       1.0  0.55633  0.17237  0.75342  1.0000
  H   H1        1.0  0.01748  0.89633  0.64236  1.0000
  H   H2        1.0  0.98250  0.10373  0.35764  1.0000
  H   H3        1.0  0.17755  0.04831  0.56738  1.0000
  H   H4        1.0  0.82245  0.95173  0.43260  1.0000
  H   H5        1.0  0.95020  0.01665  0.16271  1.0000
  H   H6        1.0  0.04982  0.98329  0.83728  1.0000
  H   H7        1.0  0.12323  0.13187  0.06014  1.0000
  H   H8        1.0  0.87679  0.86811  0.93986  1.0000
  H   H9        1.0  0.34031  0.69720  0.52200  1.0000
  H   H10       1.0  0.65964  0.30282  0.47802  1.0000
  H   H11       1.0  0.15389  0.66685  0.43451  1.0000
  H   H12       1.0  0.84608  0.33321  0.56550  1.0000
  H   H13       1.0  0.17218  0.69333  0.08390  1.0000
  H   H14       1.0  0.82788  0.30663  0.91609  1.0000
  H   H15       1.0  0.32970  0.78726  0.97179  1.0000
  H   H16       1.0  0.67035  0.21270  0.02820  1.0000
  C   C1        1.0  0.08664  0.94564  0.54162  1.0000
  C   C2        1.0  0.91333  0.05442  0.45837  1.0000
  C   C3        1.0  0.05903  0.00123  0.06335  1.0000
  C   C4        1.0  0.94098  0.99872  0.93666  1.0000
  I   I1        1.0  0.83913  0.57190  0.23232  1.0000
  I   I2        1.0  0.16087  0.42812  0.76768  1.0000
  I   I3        1.0  0.40258  0.24680  0.27168  1.0000
  I   I4        1.0  0.59743  0.75320  0.72832  1.0000
  N   N1        1.0  0.23126  0.76900  0.45883  1.0000
  N   N2        1.0  0.76868  0.23101  0.54117  1.0000
  N   N3        1.0  0.23127  0.81516  0.06740  1.0000
  N   N4        1.0  0.76874  0.18481  0.93261  1.0000
