data_image0
_chemical_formula_structural       Na2H22C18O14
_chemical_formula_sum              "Na2 H22 C18 O14"
_cell_length_a       4.94318
_cell_length_b       5.77635
_cell_length_c       18.1688
_cell_angle_alpha    83.5467
_cell_angle_beta     86.6717
_cell_angle_gamma    81.1724

_space_group_name_H-M_alt    "P 1"
_space_group_IT_number       1

loop_
  _space_group_symop_operation_xyz
  'x, y, z'

loop_
  _atom_site_type_symbol
  _atom_site_label
  _atom_site_symmetry_multiplicity
  _atom_site_fract_x
  _atom_site_fract_y
  _atom_site_fract_z
  _atom_site_occupancy
  Na  Na1       1.0  0.57667  0.93053  0.40484  1.0000
  Na  Na2       1.0  0.42333  0.06946  0.59516  1.0000
  H   H1        1.0  0.05772  0.42471  0.05925  1.0000
  H   H2        1.0  0.94227  0.57530  0.94076  1.0000
  H   H3        1.0  0.36715  0.49862  0.15176  1.0000
  H   H4        1.0  0.63285  0.50139  0.84825  1.0000
  H   H5        1.0  0.16852  0.88691  0.29184  1.0000
  H   H6        1.0  0.83148  0.11309  0.70816  1.0000
  H   H7        1.0  0.86917  0.80616  0.19614  1.0000
  H   H8        1.0  0.13082  0.19384  0.80387  1.0000
  H   H9        1.0  0.72497  0.42228  0.22393  1.0000
  H   H10       1.0  0.27503  0.57771  0.77607  1.0000
  H   H11       1.0  0.44444  0.58165  0.27172  1.0000
  H   H12       1.0  0.55556  0.41834  0.72828  1.0000
  H   H13       1.0  0.57032  0.17149  0.97514  1.0000
  H   H14       1.0  0.42970  0.82852  0.02485  1.0000
  H   H15       1.0  0.28427  0.36244  0.46439  1.0000
  H   H16       1.0  0.71573  0.63755  0.53561  1.0000
  H   H17       1.0  0.08962  0.20561  0.43702  1.0000
  H   H18       1.0  0.91037  0.79438  0.56297  1.0000
  H   H19       1.0  0.11280  0.63925  0.39460  1.0000
  H   H20       1.0  0.88720  0.36074  0.60540  1.0000
  H   H21       1.0  0.12087  0.73221  0.47039  1.0000
  H   H22       1.0  0.87913  0.26778  0.52961  1.0000
  C   C1        1.0  0.94433  0.10768  0.12076  1.0000
  C   C2        1.0  0.05566  0.89233  0.87925  1.0000
  C   C3        1.0  0.08437  0.30336  0.10949  1.0000
  C   C4        1.0  0.91563  0.69666  0.89052  1.0000
  C   C5        1.0  0.25987  0.34639  0.16218  1.0000
  C   C6        1.0  0.74013  0.65362  0.83782  1.0000
  C   C7        1.0  0.29354  0.19221  0.22754  1.0000
  C   C8        1.0  0.70646  0.80779  0.77246  1.0000
  C   C9        1.0  0.15146  0.99820  0.23950  1.0000
  C   C10       1.0  0.84854  0.00179  0.76050  1.0000
  C   C11       1.0  0.98094  0.95559  0.18654  1.0000
  C   C12       1.0  0.01905  0.04441  0.81346  1.0000
  C   C13       1.0  0.75388  0.05737  0.06704  1.0000
  C   C14       1.0  0.24611  0.94263  0.93296  1.0000
  C   C15       1.0  0.59442  0.42001  0.27523  1.0000
  C   C16       1.0  0.40558  0.57999  0.72476  1.0000
  C   C17       1.0  0.77917  0.41785  0.33949  1.0000
  C   C18       1.0  0.22084  0.58213  0.66051  1.0000
  O   O1        1.0  0.63904  0.87687  0.07725  1.0000
  O   O2        1.0  0.36097  0.12316  0.92274  1.0000
  O   O3        1.0  0.71377  0.21561  0.00869  1.0000
  O   O4        1.0  0.28624  0.78440  0.99131  1.0000
  O   O5        1.0  0.45696  0.21699  0.28358  1.0000
  O   O6        1.0  0.54305  0.78300  0.71642  1.0000
  O   O7        1.0  0.86524  0.61272  0.34311  1.0000
  O   O8        1.0  0.13477  0.38728  0.65689  1.0000
  O   O9        1.0  0.83823  0.22952  0.38179  1.0000
  O   O10       1.0  0.16177  0.77048  0.61821  1.0000
  O   O11       1.0  0.23709  0.20003  0.47380  1.0000
  O   O12       1.0  0.76290  0.79996  0.52620  1.0000
  O   O13       1.0  0.24767  0.67068  0.43091  1.0000
  O   O14       1.0  0.75233  0.32931  0.56908  1.0000
