data_image0
_chemical_formula_structural       Zn4H28C12N4Cl8O8
_chemical_formula_sum              "Zn4 H28 C12 N4 Cl8 O8"
_cell_length_a       6.95227
_cell_length_b       7.5855
_cell_length_c       12.7692
_cell_angle_alpha    90.0001
_cell_angle_beta     90.0005
_cell_angle_gamma    90.0003

_space_group_name_H-M_alt    "P 1"
_space_group_IT_number       1

loop_
  _space_group_symop_operation_xyz
  'x, y, z'

loop_
  _atom_site_type_symbol
  _atom_site_label
  _atom_site_symmetry_multiplicity
  _atom_site_fract_x
  _atom_site_fract_y
  _atom_site_fract_z
  _atom_site_occupancy
  Zn  Zn1       1.0  0.60406  0.45733  0.27196  1.0000
  Zn  Zn2       1.0  0.39593  0.95732  0.72804  1.0000
  Zn  Zn3       1.0  0.10406  0.45733  0.22805  1.0000
  Zn  Zn4       1.0  0.89593  0.95732  0.77195  1.0000
  H   H1        1.0  0.44236  0.48899  0.57014  1.0000
  H   H2        1.0  0.55764  0.98898  0.42986  1.0000
  H   H3        1.0  0.94235  0.48898  0.92986  1.0000
  H   H4        1.0  0.05765  0.98898  0.07014  1.0000
  H   H5        1.0  0.29775  0.66566  0.57652  1.0000
  H   H6        1.0  0.70225  0.16566  0.42348  1.0000
  H   H7        1.0  0.79775  0.66566  0.92348  1.0000
  H   H8        1.0  0.20225  0.16566  0.07652  1.0000
  H   H9        1.0  0.30183  0.54561  0.46767  1.0000
  H   H10       1.0  0.69817  0.04561  0.53233  1.0000
  H   H11       1.0  0.80183  0.54561  0.03233  1.0000
  H   H12       1.0  0.19818  0.04561  0.96767  1.0000
  H   H13       1.0  0.85385  0.38131  0.60149  1.0000
  H   H14       1.0  0.14615  0.88131  0.39851  1.0000
  H   H15       1.0  0.35384  0.38132  0.89852  1.0000
  H   H16       1.0  0.64615  0.88132  0.10149  1.0000
  H   H17       1.0  0.91832  0.60271  0.58874  1.0000
  H   H18       1.0  0.08169  0.10271  0.41126  1.0000
  H   H19       1.0  0.41831  0.60271  0.91126  1.0000
  H   H20       1.0  0.58170  0.10271  0.08874  1.0000
  H   H21       1.0  0.17091  0.41687  0.67647  1.0000
  H   H22       1.0  0.82909  0.91688  0.32353  1.0000
  H   H23       1.0  0.67090  0.41689  0.82353  1.0000
  H   H24       1.0  0.32910  0.91688  0.17647  1.0000
  H   H25       1.0  0.19395  0.28634  0.56301  1.0000
  H   H26       1.0  0.80605  0.78634  0.43699  1.0000
  H   H27       1.0  0.69394  0.28634  0.93698  1.0000
  H   H28       1.0  0.30606  0.78634  0.06302  1.0000
  C   C1        1.0  0.91391  0.46372  0.44382  1.0000
  C   C2        1.0  0.08609  0.96372  0.55617  1.0000
  C   C3        1.0  0.41391  0.46373  0.05618  1.0000
  C   C4        1.0  0.58609  0.96372  0.94382  1.0000
  C   C5        1.0  0.95404  0.46939  0.56035  1.0000
  C   C6        1.0  0.04595  0.96939  0.43965  1.0000
  C   C7        1.0  0.45404  0.46940  0.93965  1.0000
  C   C8        1.0  0.54596  0.96939  0.06035  1.0000
  C   C9        1.0  0.15737  0.41832  0.59114  1.0000
  C   C10       1.0  0.84263  0.91832  0.40885  1.0000
  C   C11       1.0  0.65737  0.41832  0.90886  1.0000
  C   C12       1.0  0.34264  0.91832  0.09115  1.0000
  N   N1        1.0  0.30943  0.53756  0.54879  1.0000
  N   N2        1.0  0.69057  0.03756  0.45121  1.0000
  N   N3        1.0  0.80943  0.53756  0.95121  1.0000
  N   N4        1.0  0.19057  0.03756  0.04879  1.0000
  Cl  Cl1       1.0  0.45286  0.71383  0.32950  1.0000
  Cl  Cl2       1.0  0.54713  0.21383  0.67050  1.0000
  Cl  Cl3       1.0  0.95286  0.71383  0.17050  1.0000
  Cl  Cl4       1.0  0.04714  0.21382  0.82950  1.0000
  Cl  Cl5       1.0  0.36095  0.24733  0.30021  1.0000
  Cl  Cl6       1.0  0.63905  0.74732  0.69979  1.0000
  Cl  Cl7       1.0  0.86095  0.24733  0.19979  1.0000
  Cl  Cl8       1.0  0.13905  0.74732  0.80020  1.0000
  O   O1        1.0  0.74412  0.42047  0.41459  1.0000
  O   O2        1.0  0.25588  0.92047  0.58541  1.0000
  O   O3        1.0  0.24412  0.42047  0.08542  1.0000
  O   O4        1.0  0.75588  0.92047  0.91458  1.0000
  O   O5        1.0  0.05242  0.50568  0.38387  1.0000
  O   O6        1.0  0.94758  0.00567  0.61613  1.0000
  O   O7        1.0  0.55241  0.50567  0.11613  1.0000
  O   O8        1.0  0.44759  0.00565  0.88387  1.0000
