data_image0
_chemical_formula_structural       NaH20AuC16S6N4O4
_chemical_formula_sum              "Na1 H20 Au1 C16 S6 N4 O4"
_cell_length_a       7.32476
_cell_length_b       9.16395
_cell_length_c       10.1377
_cell_angle_alpha    63.1618
_cell_angle_beta     76.7004
_cell_angle_gamma    85.6336

_space_group_name_H-M_alt    "P 1"
_space_group_IT_number       1

loop_
  _space_group_symop_operation_xyz
  'x, y, z'

loop_
  _atom_site_type_symbol
  _atom_site_label
  _atom_site_symmetry_multiplicity
  _atom_site_fract_x
  _atom_site_fract_y
  _atom_site_fract_z
  _atom_site_occupancy
  Na  Na1       1.0  0.00000  0.00000  1.00000  1.0000
  H   H1        1.0  0.88004  0.60136  0.29021  1.0000
  H   H2        1.0  0.11995  0.39864  0.70979  1.0000
  H   H3        1.0  0.51498  0.39449  0.39590  1.0000
  H   H4        1.0  0.48501  0.60551  0.60410  1.0000
  H   H5        1.0  0.90476  0.68599  0.88846  1.0000
  H   H6        1.0  0.09524  0.31401  0.11153  1.0000
  H   H7        1.0  0.66852  0.62249  0.98867  1.0000
  H   H8        1.0  0.33148  0.37751  0.01133  1.0000
  H   H9        1.0  0.85701  0.54072  0.08437  1.0000
  H   H10       1.0  0.14299  0.45928  0.91563  1.0000
  H   H11       1.0  0.76896  0.28286  0.12791  1.0000
  H   H12       1.0  0.23104  0.71714  0.87209  1.0000
  H   H13       1.0  0.53261  0.20182  0.20672  1.0000
  H   H14       1.0  0.46739  0.79819  0.79328  1.0000
  H   H15       1.0  0.63592  0.25651  0.01222  1.0000
  H   H16       1.0  0.36408  0.74349  0.98778  1.0000
  H   H17       1.0  0.69389  0.76549  0.12179  1.0000
  H   H18       1.0  0.30612  0.23451  0.87821  1.0000
  H   H19       1.0  0.73407  0.98647  0.26922  1.0000
  H   H20       1.0  0.26593  0.01354  0.73078  1.0000
  Au  Au1       1.0  1.00000  0.00000  0.50000  1.0000
  C   C1        1.0  0.05311  0.39066  0.36931  1.0000
  C   C2        1.0  0.94689  0.60934  0.63069  1.0000
  C   C3        1.0  0.01776  0.55642  0.31036  1.0000
  C   C4        1.0  0.98224  0.44358  0.68964  1.0000
  C   C5        1.0  0.16376  0.66735  0.27703  1.0000
  C   C6        1.0  0.83624  0.33265  0.72297  1.0000
  C   C7        1.0  0.34632  0.60896  0.30638  1.0000
  C   C8        1.0  0.65368  0.39104  0.69362  1.0000
  C   C9        1.0  0.37896  0.43975  0.37067  1.0000
  C   C10       1.0  0.62104  0.56025  0.62933  1.0000
  C   C11       1.0  0.23391  0.33216  0.40119  1.0000
  C   C12       1.0  0.76608  0.66784  0.59881  1.0000
  C   C13       1.0  0.80677  0.65136  0.99829  1.0000
  C   C14       1.0  0.19323  0.34864  0.00171  1.0000
  C   C15       1.0  0.66365  0.20462  0.12631  1.0000
  C   C16       1.0  0.33635  0.79538  0.87369  1.0000
  S   S1        1.0  0.36161  0.90349  0.19507  1.0000
  S   S2        1.0  0.63840  0.09651  0.80493  1.0000
  S   S3        1.0  0.87136  0.25706  0.40213  1.0000
  S   S4        1.0  0.12864  0.74294  0.59787  1.0000
  S   S5        1.0  0.27959  0.12258  0.47689  1.0000
  S   S6        1.0  0.72041  0.87742  0.52311  1.0000
  N   N1        1.0  0.15629  0.83254  0.21317  1.0000
  N   N2        1.0  0.84371  0.16746  0.78683  1.0000
  N   N3        1.0  0.47147  0.73246  0.26337  1.0000
  N   N4        1.0  0.52853  0.26754  0.73663  1.0000
  O   O1        1.0  0.79933  0.78638  0.03357  1.0000
  O   O2        1.0  0.20068  0.21362  0.96643  1.0000
  O   O3        1.0  0.72995  0.04274  0.16081  1.0000
  O   O4        1.0  0.27005  0.95726  0.83919  1.0000
