data_image0
_chemical_formula_structural       Zn2H24Pb2C20N4O16
_chemical_formula_sum              "Zn2 H24 Pb2 C20 N4 O16"
_cell_length_a       7.4836
_cell_length_b       8.30732
_cell_length_c       11.6826
_cell_angle_alpha    103.291
_cell_angle_beta     107.165
_cell_angle_gamma    97.7829

_space_group_name_H-M_alt    "P 1"
_space_group_IT_number       1

loop_
  _space_group_symop_operation_xyz
  'x, y, z'

loop_
  _atom_site_type_symbol
  _atom_site_label
  _atom_site_symmetry_multiplicity
  _atom_site_fract_x
  _atom_site_fract_y
  _atom_site_fract_z
  _atom_site_occupancy
  Zn  Zn1       1.0  0.09614  0.65339  0.66423  1.0000
  Zn  Zn2       1.0  0.90377  0.34654  0.33566  1.0000
  H   H1        1.0  0.51485  0.52962  0.58677  1.0000
  H   H2        1.0  0.48536  0.47035  0.41332  1.0000
  H   H3        1.0  0.65836  0.69814  0.71551  1.0000
  H   H4        1.0  0.34161  0.30198  0.28456  1.0000
  H   H5        1.0  0.29758  0.35674  0.77224  1.0000
  H   H6        1.0  0.70228  0.64330  0.22772  1.0000
  H   H7        1.0  0.47790  0.33982  0.70353  1.0000
  H   H8        1.0  0.52202  0.66019  0.29648  1.0000
  H   H9        1.0  0.54240  0.79900  0.87429  1.0000
  H   H10       1.0  0.45769  0.20096  0.12572  1.0000
  H   H11       1.0  0.60784  0.61422  0.90860  1.0000
  H   H12       1.0  0.39207  0.38565  0.09135  1.0000
  H   H13       1.0  0.28664  0.52237  0.92611  1.0000
  H   H14       1.0  0.71339  0.47766  0.07395  1.0000
  H   H15       1.0  0.41094  0.72040  0.03335  1.0000
  H   H16       1.0  0.58909  0.27967  0.96663  1.0000
  H   H17       1.0  0.36150  0.96028  0.92898  1.0000
  H   H18       1.0  0.63852  0.03968  0.07104  1.0000
  H   H19       1.0  0.19780  0.95511  0.01235  1.0000
  H   H20       1.0  0.80218  0.04485  0.98764  1.0000
  H   H21       1.0  0.89705  0.72407  0.88239  1.0000
  H   H22       1.0  0.10300  0.27599  0.11776  1.0000
  H   H23       1.0  0.03076  0.62788  0.98808  1.0000
  H   H24       1.0  0.96931  0.37203  0.01192  1.0000
  Pb  Pb1       1.0  0.82523  0.08748  0.60592  1.0000
  Pb  Pb2       1.0  0.17501  0.91268  0.39430  1.0000
  C   C1        1.0  0.42633  0.76310  0.59231  1.0000
  C   C2        1.0  0.57367  0.23680  0.40763  1.0000
  C   C3        1.0  0.50796  0.63797  0.65817  1.0000
  C   C4        1.0  0.49206  0.36202  0.34184  1.0000
  C   C5        1.0  0.35100  0.39436  0.70215  1.0000
  C   C6        1.0  0.64892  0.60568  0.29783  1.0000
  C   C7        1.0  0.19437  0.31124  0.57720  1.0000
  C   C8        1.0  0.80557  0.68885  0.42278  1.0000
  C   C9        1.0  0.48508  0.66571  0.86490  1.0000
  C   C10       1.0  0.51491  0.33426  0.13509  1.0000
  C   C11       1.0  0.34102  0.65504  0.93276  1.0000
  C   C12       1.0  0.65898  0.34496  0.06724  1.0000
  C   C13       1.0  0.21323  0.90853  0.91997  1.0000
  C   C14       1.0  0.78678  0.09144  0.08003  1.0000
  C   C15       1.0  0.08558  0.98240  0.82619  1.0000
  C   C16       1.0  0.91449  0.01757  0.17379  1.0000
  C   C17       1.0  0.90351  0.47032  0.79521  1.0000
  C   C18       1.0  0.09643  0.52972  0.20478  1.0000
  C   C19       1.0  0.00050  0.64192  0.89330  1.0000
  C   C20       1.0  0.99951  0.35808  0.10672  1.0000
  N   N1        1.0  0.39578  0.57957  0.73044  1.0000
  N   N2        1.0  0.60419  0.42045  0.26955  1.0000
  N   N3        1.0  0.17495  0.72349  0.87692  1.0000
  N   N4        1.0  0.82504  0.27649  0.12307  1.0000
  O   O1        1.0  0.51458  0.82078  0.52816  1.0000
  O   O2        1.0  0.48541  0.17908  0.47176  1.0000
  O   O3        1.0  0.27163  0.80466  0.60253  1.0000
  O   O4        1.0  0.72839  0.19529  0.39743  1.0000
  O   O5        1.0  0.13697  0.40194  0.50636  1.0000
  O   O6        1.0  0.86303  0.59813  0.49360  1.0000
  O   O7        1.0  0.12797  0.15270  0.55563  1.0000
  O   O8        1.0  0.87189  0.84740  0.44437  1.0000
  O   O9        1.0  0.94379  0.44247  0.69309  1.0000
  O   O10       1.0  0.05612  0.55756  0.30689  1.0000
  O   O11       1.0  0.78831  0.36714  0.81674  1.0000
  O   O12       1.0  0.21161  0.63289  0.18324  1.0000
  O   O13       1.0  0.97414  0.87518  0.72247  1.0000
  O   O14       1.0  0.02591  0.12478  0.27753  1.0000
  O   O15       1.0  0.09652  0.13929  0.85330  1.0000
  O   O16       1.0  0.90358  0.86069  0.14664  1.0000
