data_image0
_chemical_formula_structural       NaH18AuC18S6N6O2
_chemical_formula_sum              "Na1 H18 Au1 C18 S6 N6 O2"
_cell_length_a       8.4931
_cell_length_b       8.72855
_cell_length_c       8.99553
_cell_angle_alpha    107.163
_cell_angle_beta     94.5097
_cell_angle_gamma    97.807

_space_group_name_H-M_alt    "P 1"
_space_group_IT_number       1

loop_
  _space_group_symop_operation_xyz
  'x, y, z'

loop_
  _atom_site_type_symbol
  _atom_site_label
  _atom_site_symmetry_multiplicity
  _atom_site_fract_x
  _atom_site_fract_y
  _atom_site_fract_z
  _atom_site_occupancy
  Na  Na1       1.0  0.50000  0.00000  0.50000  1.0000
  H   H1        1.0  0.53250  0.40652  0.76566  1.0000
  H   H2        1.0  0.46749  0.59348  0.23436  1.0000
  H   H3        1.0  0.14991  0.67047  0.50394  1.0000
  H   H4        1.0  0.85010  0.32953  0.49606  1.0000
  H   H5        1.0  0.70479  0.24223  0.90972  1.0000
  H   H6        1.0  0.29520  0.75775  0.09024  1.0000
  H   H7        1.0  0.89957  0.30042  0.09500  1.0000
  H   H8        1.0  0.10041  0.69958  0.90498  1.0000
  H   H9        1.0  0.06776  0.20348  0.04151  1.0000
  H   H10       1.0  0.93222  0.79652  0.95851  1.0000
  H   H11       1.0  0.07874  0.41273  0.06173  1.0000
  H   H12       1.0  0.92124  0.58726  0.93828  1.0000
  H   H13       1.0  0.98935  0.19824  0.62796  1.0000
  H   H14       1.0  0.01068  0.80178  0.37205  1.0000
  H   H15       1.0  0.13167  0.35383  0.77036  1.0000
  H   H16       1.0  0.86835  0.64617  0.22967  1.0000
  H   H17       1.0  0.12669  0.14584  0.75867  1.0000
  H   H18       1.0  0.87333  0.85416  0.24134  1.0000
  Au  Au1       1.0  0.50000  0.00001  0.00000  1.0000
  C   C1        1.0  0.33320  0.70332  0.69565  1.0000
  C   C2        1.0  0.66679  0.29668  0.30435  1.0000
  C   C3        1.0  0.44133  0.62794  0.77196  1.0000
  C   C4        1.0  0.55866  0.37206  0.22805  1.0000
  C   C5        1.0  0.45083  0.46410  0.70894  1.0000
  C   C6        1.0  0.54915  0.53590  0.29107  1.0000
  C   C7        1.0  0.34924  0.37165  0.57104  1.0000
  C   C8        1.0  0.65075  0.62835  0.42897  1.0000
  C   C9        1.0  0.23751  0.44696  0.49743  1.0000
  C   C10       1.0  0.76249  0.55305  0.50257  1.0000
  C   C11       1.0  0.23155  0.61357  0.56098  1.0000
  C   C12       1.0  0.76845  0.38642  0.43902  1.0000
  C   C13       1.0  0.77770  0.22165  0.81106  1.0000
  C   C14       1.0  0.22232  0.77833  0.18892  1.0000
  C   C15       1.0  0.99808  0.29494  0.02295  1.0000
  C   C16       1.0  0.00191  0.70506  0.97706  1.0000
  C   C17       1.0  0.05255  0.23658  0.74713  1.0000
  C   C18       1.0  0.94747  0.76342  0.25288  1.0000
  S   S1        1.0  0.32561  0.91194  0.76781  1.0000
  S   S2        1.0  0.67439  0.08806  0.23218  1.0000
  S   S3        1.0  0.56289  0.73887  0.94797  1.0000
  S   S4        1.0  0.43710  0.26114  0.05202  1.0000
  S   S5        1.0  0.19701  0.16578  0.34884  1.0000
  S   S6        1.0  0.80299  0.83423  0.65117  1.0000
  N   N1        1.0  0.14441  0.34126  0.36955  1.0000
  N   N2        1.0  0.85559  0.65875  0.63045  1.0000
  N   N3        1.0  0.33761  0.21028  0.49624  1.0000
  N   N4        1.0  0.66238  0.78972  0.50376  1.0000
  N   N5        1.0  0.93594  0.25201  0.85813  1.0000
  N   N6        1.0  0.06406  0.74799  0.14187  1.0000
  O   O1        1.0  0.71435  0.17372  0.67173  1.0000
  O   O2        1.0  0.28567  0.82627  0.32824  1.0000
