data_image0
_chemical_formula_structural       Na2H20Au2C32S12N12
_chemical_formula_sum              "Na2 H20 Au2 C32 S12 N12"
_cell_length_a       8.36213
_cell_length_b       10.0774
_cell_length_c       13.0951
_cell_angle_alpha    90.0001
_cell_angle_beta     103.569
_cell_angle_gamma    89.9994

_space_group_name_H-M_alt    "P 1"
_space_group_IT_number       1

loop_
  _space_group_symop_operation_xyz
  'x, y, z'

loop_
  _atom_site_type_symbol
  _atom_site_label
  _atom_site_symmetry_multiplicity
  _atom_site_fract_x
  _atom_site_fract_y
  _atom_site_fract_z
  _atom_site_occupancy
  Na  Na1       1.0  0.00000  1.00000  0.00000  1.0000
  Na  Na2       1.0  0.50000  0.50000  1.00000  1.0000
  H   H1        1.0  0.23075  0.62062  0.19187  1.0000
  H   H2        1.0  0.26924  0.12063  0.80812  1.0000
  H   H3        1.0  0.76925  0.37937  0.80813  1.0000
  H   H4        1.0  0.73075  0.87937  0.19188  1.0000
  H   H5        1.0  0.92889  0.18809  0.19497  1.0000
  H   H6        1.0  0.57111  0.68810  0.80503  1.0000
  H   H7        1.0  0.07111  0.81191  0.80503  1.0000
  H   H8        1.0  0.42889  0.31191  0.19497  1.0000
  H   H9        1.0  0.06171  0.08333  0.61507  1.0000
  H   H10       1.0  0.43829  0.58332  0.38493  1.0000
  H   H11       1.0  0.93829  0.91668  0.38493  1.0000
  H   H12       1.0  0.56172  0.41668  0.61507  1.0000
  H   H13       1.0  0.84387  0.09175  0.56300  1.0000
  H   H14       1.0  0.65613  0.59174  0.43699  1.0000
  H   H15       1.0  0.15613  0.90826  0.43700  1.0000
  H   H16       1.0  0.34387  0.40826  0.56300  1.0000
  H   H17       1.0  0.94026  0.93445  0.59818  1.0000
  H   H18       1.0  0.55974  0.43445  0.40181  1.0000
  H   H19       1.0  0.05974  0.06555  0.40182  1.0000
  H   H20       1.0  0.44026  0.56555  0.59818  1.0000
  Au  Au1       1.0  0.00000  0.50000  0.50000  1.0000
  Au  Au2       1.0  0.50000  0.00000  0.50000  1.0000
  C   C1        1.0  0.09600  0.49439  0.27559  1.0000
  C   C2        1.0  0.40399  0.99438  0.72440  1.0000
  C   C3        1.0  0.90399  0.50561  0.72441  1.0000
  C   C4        1.0  0.59601  0.00561  0.27560  1.0000
  C   C5        1.0  0.16660  0.52670  0.19257  1.0000
  C   C6        1.0  0.33339  0.02670  0.80742  1.0000
  C   C7        1.0  0.83340  0.47330  0.80743  1.0000
  C   C8        1.0  0.66661  0.97329  0.19257  1.0000
  C   C9        1.0  0.01049  0.37044  0.27707  1.0000
  C   C10       1.0  0.48951  0.87045  0.72292  1.0000
  C   C11       1.0  0.98952  0.62956  0.72293  1.0000
  C   C12       1.0  0.51049  0.12956  0.27708  1.0000
  C   C13       1.0  0.06374  0.31333  0.10984  1.0000
  C   C14       1.0  0.43626  0.81333  0.89016  1.0000
  C   C15       1.0  0.93626  0.68667  0.89016  1.0000
  C   C16       1.0  0.56374  0.18666  0.10984  1.0000
  C   C17       1.0  0.99340  0.28178  0.19430  1.0000
  C   C18       1.0  0.50660  0.78178  0.80571  1.0000
  C   C19       1.0  0.00660  0.71822  0.80571  1.0000
  C   C20       1.0  0.49340  0.21822  0.19429  1.0000
  C   C21       1.0  0.15271  0.43613  0.10890  1.0000
  C   C22       1.0  0.34729  0.93613  0.89110  1.0000
  C   C23       1.0  0.84729  0.56387  0.89110  1.0000
  C   C24       1.0  0.65271  0.06387  0.10890  1.0000
  C   C25       1.0  0.91846  0.05327  0.72450  1.0000
  C   C26       1.0  0.58155  0.55327  0.27549  1.0000
  C   C27       1.0  0.08155  0.94673  0.27551  1.0000
  C   C28       1.0  0.41846  0.44673  0.72450  1.0000
  C   C29       1.0  0.94234  0.04029  0.61928  1.0000
  C   C30       1.0  0.55767  0.54029  0.38071  1.0000
  C   C31       1.0  0.05767  0.95971  0.38072  1.0000
  C   C32       1.0  0.44234  0.45971  0.61928  1.0000
  S   S1        1.0  0.92616  0.32559  0.38233  1.0000
  S   S2        1.0  0.57383  0.82559  0.61767  1.0000
  S   S3        1.0  0.07384  0.67441  0.61767  1.0000
  S   S4        1.0  0.42616  0.17442  0.38233  1.0000
  S   S5        1.0  0.15978  0.31731  0.95118  1.0000
  S   S6        1.0  0.34022  0.81731  0.04882  1.0000
  S   S7        1.0  0.84021  0.68269  0.04883  1.0000
  S   S8        1.0  0.65978  0.18269  0.95118  1.0000
  S   S9        1.0  0.11291  0.60939  0.37730  1.0000
  S   S10       1.0  0.38708  0.10939  0.62269  1.0000
  S   S11       1.0  0.88709  0.39061  0.62270  1.0000
  S   S12       1.0  0.61292  0.89061  0.37731  1.0000
  N   N1        1.0  0.06028  0.23748  0.02402  1.0000
  N   N2        1.0  0.43972  0.73749  0.97598  1.0000
  N   N3        1.0  0.93972  0.76252  0.97598  1.0000
  N   N4        1.0  0.56028  0.26251  0.02402  1.0000
  N   N5        1.0  0.21496  0.44893  0.02254  1.0000
  N   N6        1.0  0.28504  0.94893  0.97746  1.0000
  N   N7        1.0  0.78503  0.55107  0.97746  1.0000
  N   N8        1.0  0.71496  0.05107  0.02254  1.0000
  N   N9        1.0  0.90392  0.06098  0.81064  1.0000
  N   N10       1.0  0.59608  0.56098  0.18936  1.0000
  N   N11       1.0  0.09608  0.93901  0.18936  1.0000
  N   N12       1.0  0.40392  0.43902  0.81064  1.0000
