data_image0
_chemical_formula_structural       Cu3H34C44N4O12
_chemical_formula_sum              "Cu3 H34 C44 N4 O12"
_cell_length_a       8.76739
_cell_length_b       10.0657
_cell_length_c       11.8343
_cell_angle_alpha    89.6045
_cell_angle_beta     68.7847
_cell_angle_gamma    86.1522

_space_group_name_H-M_alt    "P 1"
_space_group_IT_number       1

loop_
  _space_group_symop_operation_xyz
  'x, y, z'

loop_
  _atom_site_type_symbol
  _atom_site_label
  _atom_site_symmetry_multiplicity
  _atom_site_fract_x
  _atom_site_fract_y
  _atom_site_fract_z
  _atom_site_occupancy
  Cu  Cu1       1.0  0.50000  0.50000  0.50000  1.0000
  Cu  Cu2       1.0  0.62458  0.23934  0.23889  1.0000
  Cu  Cu3       1.0  0.37543  0.76066  0.76111  1.0000
  H   H1        1.0  0.18079  0.44485  0.89552  1.0000
  H   H2        1.0  0.81922  0.55515  0.10449  1.0000
  H   H3        1.0  0.15827  0.27688  0.86342  1.0000
  H   H4        1.0  0.84173  0.72312  0.13658  1.0000
  H   H5        1.0  0.03114  0.35169  0.00295  1.0000
  H   H6        1.0  0.96887  0.64831  0.99705  1.0000
  H   H7        1.0  0.08929  0.63774  0.54526  1.0000
  H   H8        1.0  0.91072  0.36227  0.45475  1.0000
  H   H9        1.0  0.90431  0.73736  0.61944  1.0000
  H   H10       1.0  0.09570  0.26264  0.38057  1.0000
  H   H11       1.0  0.91023  0.61103  0.51533  1.0000
  H   H12       1.0  0.08977  0.38898  0.48468  1.0000
  H   H13       1.0  0.44744  0.42298  0.95254  1.0000
  H   H14       1.0  0.55256  0.57702  0.04747  1.0000
  H   H15       1.0  0.52777  0.25548  0.91554  1.0000
  H   H16       1.0  0.47223  0.74452  0.08447  1.0000
  H   H17       1.0  0.47368  0.35563  0.80938  1.0000
  H   H18       1.0  0.52632  0.64437  0.19062  1.0000
  H   H19       1.0  0.36219  0.26825  0.12789  1.0000
  H   H20       1.0  0.63781  0.73177  0.87211  1.0000
  H   H21       1.0  0.14278  0.12332  0.11714  1.0000
  H   H22       1.0  0.85720  0.87671  0.88287  1.0000
  H   H23       1.0  0.12363  0.89904  0.21178  1.0000
  H   H24       1.0  0.87635  0.10099  0.78822  1.0000
  H   H25       1.0  0.31638  0.82827  0.31743  1.0000
  H   H26       1.0  0.68361  0.17173  0.68256  1.0000
  H   H27       1.0  0.52698  0.77007  0.36714  1.0000
  H   H28       1.0  0.47301  0.22993  0.63285  1.0000
  H   H29       1.0  0.74182  0.74027  0.45601  1.0000
  H   H30       1.0  0.25816  0.25972  0.54398  1.0000
  H   H31       1.0  0.90589  0.93497  0.46336  1.0000
  H   H32       1.0  0.09410  0.06500  0.53664  1.0000
  H   H33       1.0  0.84353  0.15324  0.37713  1.0000
  H   H34       1.0  0.15648  0.84675  0.62287  1.0000
  C   C1        1.0  0.75624  0.28889  0.00365  1.0000
  C   C2        1.0  0.24378  0.71111  0.99635  1.0000
  C   C3        1.0  0.80861  0.37124  0.89084  1.0000
  C   C4        1.0  0.19140  0.62876  0.10916  1.0000
  C   C5        1.0  0.96854  0.41471  0.84862  1.0000
  C   C6        1.0  0.03147  0.58529  0.15138  1.0000
  C   C7        1.0  0.09075  0.37066  0.90607  1.0000
  C   C8        1.0  0.90925  0.62934  0.09393  1.0000
  C   C9        1.0  0.01194  0.50140  0.75022  1.0000
  C   C10       1.0  0.98807  0.49860  0.24978  1.0000
  C   C11       1.0  0.18108  0.55164  0.70373  1.0000
  C   C12       1.0  0.81893  0.44835  0.29628  1.0000
  C   C13       1.0  0.90491  0.53975  0.69009  1.0000
  C   C14       1.0  0.09510  0.46025  0.30992  1.0000
  C   C15       1.0  0.95557  0.63587  0.58696  1.0000
  C   C16       1.0  0.04443  0.36413  0.41305  1.0000
  C   C17       1.0  0.75107  0.48452  0.72841  1.0000
  C   C18       1.0  0.24892  0.51548  0.27160  1.0000
  C   C19       1.0  0.64849  0.51172  0.65256  1.0000
  C   C20       1.0  0.35151  0.48828  0.34744  1.0000
  C   C21       1.0  0.69878  0.40359  0.83106  1.0000
  C   C22       1.0  0.30123  0.59640  0.16894  1.0000
  C   C23       1.0  0.52817  0.35605  0.87923  1.0000
  C   C24       1.0  0.47183  0.64395  0.12078  1.0000
  C   C25       1.0  0.34822  0.16907  0.16616  1.0000
  C   C26       1.0  0.65178  0.83094  0.83384  1.0000
  C   C27       1.0  0.22658  0.08904  0.16208  1.0000
  C   C28       1.0  0.77341  0.91098  0.83792  1.0000
  C   C29       1.0  0.21512  0.96461  0.21632  1.0000
  C   C30       1.0  0.78487  0.03541  0.78367  1.0000
  C   C31       1.0  0.32422  0.92431  0.27328  1.0000
  C   C32       1.0  0.67577  0.07570  0.72671  1.0000
  C   C33       1.0  0.44573  0.00840  0.27155  1.0000
  C   C34       1.0  0.55427  0.99160  0.72844  1.0000
  C   C35       1.0  0.56961  0.97782  0.32692  1.0000
  C   C36       1.0  0.43038  0.02218  0.67307  1.0000
  C   C37       1.0  0.59815  0.85345  0.37117  1.0000
  C   C38       1.0  0.40184  0.14655  0.62882  1.0000
  C   C39       1.0  0.72024  0.83671  0.42061  1.0000
  C   C40       1.0  0.27975  0.16328  0.57937  1.0000
  C   C41       1.0  0.81024  0.94431  0.42484  1.0000
  C   C42       1.0  0.18976  0.05566  0.57515  1.0000
  C   C43       1.0  0.77664  0.06550  0.37829  1.0000
  C   C44       1.0  0.22336  0.93448  0.62171  1.0000
  N   N1        1.0  0.45547  0.12839  0.21822  1.0000
  N   N2        1.0  0.54453  0.87162  0.78178  1.0000
  N   N3        1.0  0.65945  0.08139  0.33071  1.0000
  N   N4        1.0  0.34055  0.91860  0.66929  1.0000
  O   O1        1.0  0.64729  0.35115  0.09746  1.0000
  O   O2        1.0  0.35273  0.64886  0.90254  1.0000
  O   O3        1.0  0.81772  0.17378  0.00470  1.0000
  O   O4        1.0  0.18228  0.82622  0.99530  1.0000
  O   O5        1.0  0.29256  0.47108  0.63356  1.0000
  O   O6        1.0  0.70743  0.52891  0.36644  1.0000
  O   O7        1.0  0.19476  0.66878  0.73677  1.0000
  O   O8        1.0  0.80526  0.33121  0.26325  1.0000
  O   O9        1.0  0.59857  0.62883  0.63819  1.0000
  O   O10       1.0  0.40143  0.37117  0.36181  1.0000
  O   O11       1.0  0.62346  0.41068  0.59613  1.0000
  O   O12       1.0  0.37654  0.58932  0.40388  1.0000
