data_image0
_chemical_formula_structural       SrB2H28C24N16O2
_chemical_formula_sum              "Sr1 B2 H28 C24 N16 O2"
_cell_length_a       9.38901
_cell_length_b       9.88227
_cell_length_c       10.4398
_cell_angle_alpha    93.9745
_cell_angle_beta     107.525
_cell_angle_gamma    118.538

_space_group_name_H-M_alt    "P 1"
_space_group_IT_number       1

loop_
  _space_group_symop_operation_xyz
  'x, y, z'

loop_
  _atom_site_type_symbol
  _atom_site_label
  _atom_site_symmetry_multiplicity
  _atom_site_fract_x
  _atom_site_fract_y
  _atom_site_fract_z
  _atom_site_occupancy
  Sr  Sr1       1.0  0.50000  0.50000  0.50000  1.0000
  B   B1        1.0  0.76435  0.12449  0.85483  1.0000
  B   B2        1.0  0.23565  0.87551  0.14517  1.0000
  H   H1        1.0  0.13186  0.24783  0.01799  1.0000
  H   H2        1.0  0.86814  0.75217  0.98201  1.0000
  H   H3        1.0  0.51773  0.88386  0.95308  1.0000
  H   H4        1.0  0.48227  0.11614  0.04691  1.0000
  H   H5        1.0  0.82135  0.16621  0.59855  1.0000
  H   H6        1.0  0.17865  0.83379  0.40145  1.0000
  H   H7        1.0  0.79902  0.39358  0.74355  1.0000
  H   H8        1.0  0.20098  0.60642  0.25645  1.0000
  H   H9        1.0  0.24852  0.10322  0.57023  1.0000
  H   H10       1.0  0.75148  0.89678  0.42977  1.0000
  H   H11       1.0  0.38230  0.93897  0.71552  1.0000
  H   H12       1.0  0.61770  0.06103  0.28448  1.0000
  H   H13       1.0  0.78937  0.40859  0.98419  1.0000
  H   H14       1.0  0.21063  0.59141  0.01581  1.0000
  H   H15       1.0  0.87485  0.04970  0.11764  1.0000
  H   H16       1.0  0.12514  0.95030  0.88236  1.0000
  H   H17       1.0  0.41397  0.57674  0.83301  1.0000
  H   H18       1.0  0.58603  0.42326  0.16699  1.0000
  H   H19       1.0  0.91504  0.47694  0.27125  1.0000
  H   H20       1.0  0.08496  0.52306  0.72875  1.0000
  H   H21       1.0  0.33478  0.30919  0.85934  1.0000
  H   H22       1.0  0.66522  0.69081  0.14066  1.0000
  H   H23       1.0  0.79454  0.89562  0.69658  1.0000
  H   H24       1.0  0.20546  0.10439  0.30342  1.0000
  H   H25       1.0  0.91942  0.70018  0.60719  1.0000
  H   H26       1.0  0.08058  0.29982  0.39281  1.0000
  H   H27       1.0  0.84697  0.70160  0.44546  1.0000
  H   H28       1.0  0.15303  0.29840  0.55454  1.0000
  C   C1        1.0  0.09787  0.24027  0.90776  1.0000
  C   C2        1.0  0.90213  0.75973  0.09224  1.0000
  C   C3        1.0  0.56007  0.84089  0.88266  1.0000
  C   C4        1.0  0.43993  0.15911  0.11733  1.0000
  C   C5        1.0  0.93554  0.19867  0.69015  1.0000
  C   C6        1.0  0.06446  0.80134  0.30985  1.0000
  C   C7        1.0  0.66626  0.29289  0.71421  1.0000
  C   C8        1.0  0.33373  0.70711  0.28579  1.0000
  C   C9        1.0  0.38391  0.13927  0.62659  1.0000
  C   C10       1.0  0.61609  0.86073  0.37341  1.0000
  C   C11       1.0  0.44892  0.05695  0.69926  1.0000
  C   C12       1.0  0.55108  0.94305  0.30074  1.0000
  C   C13       1.0  0.82692  0.34526  0.05446  1.0000
  C   C14       1.0  0.17309  0.65474  0.94554  1.0000
  C   C15       1.0  0.87067  0.15782  0.12278  1.0000
  C   C16       1.0  0.12933  0.84218  0.87722  1.0000
  C   C17       1.0  0.51020  0.68886  0.82270  1.0000
  C   C18       1.0  0.48980  0.31114  0.17730  1.0000
  C   C19       1.0  0.89095  0.37839  0.19715  1.0000
  C   C20       1.0  0.10905  0.62161  0.80285  1.0000
  C   C21       1.0  0.19741  0.27120  0.82770  1.0000
  C   C22       1.0  0.80259  0.72880  0.17230  1.0000
  C   C23       1.0  0.70572  0.84924  0.75059  1.0000
  C   C24       1.0  0.29428  0.15076  0.24941  1.0000
  N   N1        1.0  0.63014  0.15561  0.75502  1.0000
  N   N2        1.0  0.36986  0.84439  0.24498  1.0000
  N   N3        1.0  0.68549  0.94347  0.83616  1.0000
  N   N4        1.0  0.31451  0.05653  0.16384  1.0000
  N   N5        1.0  0.81286  0.20319  0.00696  1.0000
  N   N6        1.0  0.18714  0.79681  0.99304  1.0000
  N   N7        1.0  0.93019  0.19431  0.81925  1.0000
  N   N8        1.0  0.06981  0.80570  0.18075  1.0000
  N   N9        1.0  0.52141  0.28744  0.63603  1.0000
  N   N10       1.0  0.47859  0.71256  0.36397  1.0000
  N   N11       1.0  0.60249  0.69496  0.73985  1.0000
  N   N12       1.0  0.39751  0.30504  0.26015  1.0000
  N   N13       1.0  0.91820  0.26029  0.23908  1.0000
  N   N14       1.0  0.08179  0.73971  0.76092  1.0000
  N   N15       1.0  0.09440  0.24508  0.69143  1.0000
  N   N16       1.0  0.90560  0.75492  0.30857  1.0000
  O   O1        1.0  0.80973  0.66610  0.52427  1.0000
  O   O2        1.0  0.19027  0.33389  0.47573  1.0000
