data_image0
_chemical_formula_structural       CaB2H28C24N16O2
_chemical_formula_sum              "Ca1 B2 H28 C24 N16 O2"
_cell_length_a       9.37154
_cell_length_b       9.73534
_cell_length_c       10.3179
_cell_angle_alpha    93.2886
_cell_angle_beta     108.331
_cell_angle_gamma    118.358

_space_group_name_H-M_alt    "P 1"
_space_group_IT_number       1

loop_
  _space_group_symop_operation_xyz
  'x, y, z'

loop_
  _atom_site_type_symbol
  _atom_site_label
  _atom_site_symmetry_multiplicity
  _atom_site_fract_x
  _atom_site_fract_y
  _atom_site_fract_z
  _atom_site_occupancy
  Ca  Ca1       1.0  0.50000  0.50000  0.50000  1.0000
  B   B1        1.0  0.23239  0.87331  0.15020  1.0000
  B   B2        1.0  0.76761  0.12669  0.84980  1.0000
  H   H1        1.0  0.90297  0.68640  0.60564  1.0000
  H   H2        1.0  0.09703  0.31360  0.39437  1.0000
  H   H3        1.0  0.82836  0.67993  0.44051  1.0000
  H   H4        1.0  0.17165  0.32007  0.55949  1.0000
  H   H5        1.0  0.22439  0.59719  0.01834  1.0000
  H   H6        1.0  0.77561  0.40280  0.98166  1.0000
  H   H7        1.0  0.20562  0.10183  0.31551  1.0000
  H   H8        1.0  0.79437  0.89817  0.68449  1.0000
  H   H9        1.0  0.59136  0.43017  0.18537  1.0000
  H   H10       1.0  0.40864  0.56983  0.81463  1.0000
  H   H11       1.0  0.09470  0.53196  0.72667  1.0000
  H   H12       1.0  0.90530  0.46805  0.27333  1.0000
  H   H13       1.0  0.19733  0.59924  0.26627  1.0000
  H   H14       1.0  0.80268  0.40076  0.73373  1.0000
  H   H15       1.0  0.16824  0.82144  0.40629  1.0000
  H   H16       1.0  0.83177  0.17856  0.59371  1.0000
  H   H17       1.0  0.75017  0.88327  0.42690  1.0000
  H   H18       1.0  0.24983  0.11673  0.57309  1.0000
  H   H19       1.0  0.11120  0.94974  0.88455  1.0000
  H   H20       1.0  0.88880  0.05026  0.11546  1.0000
  H   H21       1.0  0.65682  0.68536  0.13362  1.0000
  H   H22       1.0  0.34318  0.31464  0.86638  1.0000
  H   H23       1.0  0.47983  0.12072  0.05428  1.0000
  H   H24       1.0  0.52017  0.87928  0.94572  1.0000
  H   H25       1.0  0.61448  0.05365  0.28411  1.0000
  H   H26       1.0  0.38552  0.94635  0.71589  1.0000
  H   H27       1.0  0.86605  0.75280  0.97923  1.0000
  H   H28       1.0  0.13395  0.24721  0.02077  1.0000
  C   C1        1.0  0.18040  0.65941  0.94721  1.0000
  C   C2        1.0  0.81960  0.34059  0.05279  1.0000
  C   C3        1.0  0.29483  0.15078  0.26189  1.0000
  C   C4        1.0  0.70517  0.84922  0.73810  1.0000
  C   C5        1.0  0.49294  0.31583  0.19265  1.0000
  C   C6        1.0  0.50706  0.68417  0.80735  1.0000
  C   C7        1.0  0.11463  0.62785  0.80250  1.0000
  C   C8        1.0  0.88537  0.37215  0.19750  1.0000
  C   C9        1.0  0.33037  0.69920  0.29275  1.0000
  C   C10       1.0  0.66963  0.30080  0.70725  1.0000
  C   C11       1.0  0.05553  0.79178  0.31197  1.0000
  C   C12       1.0  0.94447  0.20822  0.68803  1.0000
  C   C13       1.0  0.61409  0.84939  0.37362  1.0000
  C   C14       1.0  0.38591  0.15061  0.62638  1.0000
  C   C15       1.0  0.12236  0.84367  0.87879  1.0000
  C   C16       1.0  0.87764  0.15633  0.12122  1.0000
  C   C17       1.0  0.79443  0.72197  0.16808  1.0000
  C   C18       1.0  0.20557  0.27803  0.83192  1.0000
  C   C19       1.0  0.43916  0.16263  0.12733  1.0000
  C   C20       1.0  0.56084  0.83737  0.87267  1.0000
  C   C21       1.0  0.54817  0.93497  0.30247  1.0000
  C   C22       1.0  0.45183  0.06503  0.69753  1.0000
  C   C23       1.0  0.89743  0.75686  0.09037  1.0000
  C   C24       1.0  0.10258  0.24314  0.90964  1.0000
  N   N1        1.0  0.47643  0.70136  0.36741  1.0000
  N   N2        1.0  0.52358  0.29864  0.63258  1.0000
  N   N3        1.0  0.89465  0.74356  0.30682  1.0000
  N   N4        1.0  0.10535  0.25645  0.69318  1.0000
  N   N5        1.0  0.36615  0.83868  0.25114  1.0000
  N   N6        1.0  0.63385  0.16132  0.74885  1.0000
  N   N7        1.0  0.40154  0.30737  0.27718  1.0000
  N   N8        1.0  0.59846  0.69262  0.72282  1.0000
  N   N9        1.0  0.07817  0.74383  0.76044  1.0000
  N   N10       1.0  0.92183  0.25617  0.23956  1.0000
  N   N11       1.0  0.31203  0.05709  0.17191  1.0000
  N   N12       1.0  0.68797  0.94291  0.82809  1.0000
  N   N13       1.0  0.18624  0.79844  0.99589  1.0000
  N   N14       1.0  0.81376  0.20156  0.00411  1.0000
  N   N15       1.0  0.06449  0.80101  0.18288  1.0000
  N   N16       1.0  0.93551  0.19899  0.81712  1.0000
  O   O1        1.0  0.79096  0.64158  0.51959  1.0000
  O   O2        1.0  0.20905  0.35842  0.48041  1.0000
