data_image0
_chemical_formula_structural       Ca2H28C32Cl12O18
_chemical_formula_sum              "Ca2 H28 C32 Cl12 O18"
_cell_length_a       7.75575
_cell_length_b       7.89059
_cell_length_c       19.3994
_cell_angle_alpha    83.8358
_cell_angle_beta     82.0552
_cell_angle_gamma    85.0589

_space_group_name_H-M_alt    "P 1"
_space_group_IT_number       1

loop_
  _space_group_symop_operation_xyz
  'x, y, z'

loop_
  _atom_site_type_symbol
  _atom_site_label
  _atom_site_symmetry_multiplicity
  _atom_site_fract_x
  _atom_site_fract_y
  _atom_site_fract_z
  _atom_site_occupancy
  Ca  Ca1       1.0  0.66961  0.14686  0.51873  1.0000
  Ca  Ca2       1.0  0.33040  0.85314  0.48126  1.0000
  H   H1        1.0  0.09062  0.22808  0.47792  1.0000
  H   H2        1.0  0.90939  0.77191  0.52209  1.0000
  H   H3        1.0  0.94040  0.37032  0.46677  1.0000
  H   H4        1.0  0.05961  0.62967  0.53323  1.0000
  H   H5        1.0  0.82297  0.51988  0.54681  1.0000
  H   H6        1.0  0.17704  0.48011  0.45319  1.0000
  H   H7        1.0  0.67955  0.52142  0.49776  1.0000
  H   H8        1.0  0.32045  0.47857  0.50225  1.0000
  H   H9        1.0  0.37922  0.38922  0.59924  1.0000
  H   H10       1.0  0.62079  0.61075  0.40077  1.0000
  H   H11       1.0  0.30160  0.22654  0.57136  1.0000
  H   H12       1.0  0.69841  0.77344  0.42864  1.0000
  H   H13       1.0  0.09617  0.02358  0.94099  1.0000
  H   H14       1.0  0.90382  0.97645  0.05901  1.0000
  H   H15       1.0  0.08473  0.51558  0.87861  1.0000
  H   H16       1.0  0.91527  0.48443  0.12140  1.0000
  H   H17       1.0  0.16656  0.86673  0.66339  1.0000
  H   H18       1.0  0.83344  0.13325  0.33661  1.0000
  H   H19       1.0  0.18228  0.07947  0.68309  1.0000
  H   H20       1.0  0.81771  0.92051  0.31691  1.0000
  H   H21       1.0  0.59850  0.06312  0.88086  1.0000
  H   H22       1.0  0.40150  0.93687  0.11914  1.0000
  H   H23       1.0  0.59582  0.52102  0.94386  1.0000
  H   H24       1.0  0.40417  0.47895  0.05613  1.0000
  H   H25       1.0  0.65327  0.58638  0.66699  1.0000
  H   H26       1.0  0.34676  0.41365  0.33301  1.0000
  H   H27       1.0  0.68031  0.80832  0.67204  1.0000
  H   H28       1.0  0.31968  0.19171  0.32795  1.0000
  C   C1        1.0  0.09432  0.76280  0.91622  1.0000
  C   C2        1.0  0.90569  0.23723  0.08379  1.0000
  C   C3        1.0  0.07592  0.93999  0.90224  1.0000
  C   C4        1.0  0.92408  0.06004  0.09776  1.0000
  C   C5        1.0  0.06884  0.65356  0.86714  1.0000
  C   C6        1.0  0.93116  0.34646  0.13287  1.0000
  C   C7        1.0  0.02979  0.00830  0.83751  1.0000
  C   C8        1.0  0.97020  0.99172  0.16249  1.0000
  C   C9        1.0  0.02286  0.72558  0.80266  1.0000
  C   C10       1.0  0.97713  0.27444  0.19735  1.0000
  C   C11       1.0  0.00142  0.90319  0.78675  1.0000
  C   C12       1.0  0.99857  0.09682  0.21325  1.0000
  C   C13       1.0  0.09233  0.99073  0.66974  1.0000
  C   C14       1.0  0.90766  0.00926  0.33026  1.0000
  C   C15       1.0  0.03139  0.05720  0.60038  1.0000
  C   C16       1.0  0.96862  0.94279  0.39962  1.0000
  C   C17       1.0  0.60212  0.79448  0.91875  1.0000
  C   C18       1.0  0.39788  0.20550  0.08125  1.0000
  C   C19       1.0  0.57945  0.93449  0.86959  1.0000
  C   C20       1.0  0.42054  0.06550  0.13040  1.0000
  C   C21       1.0  0.57785  0.62891  0.90505  1.0000
  C   C22       1.0  0.42215  0.37108  0.09495  1.0000
  C   C23       1.0  0.53034  0.90571  0.80545  1.0000
  C   C24       1.0  0.46966  0.09429  0.19455  1.0000
  C   C25       1.0  0.53014  0.60388  0.84048  1.0000
  C   C26       1.0  0.46985  0.39612  0.15951  1.0000
  C   C27       1.0  0.50529  0.74098  0.78951  1.0000
  C   C28       1.0  0.49470  0.25901  0.21049  1.0000
  C   C29       1.0  0.58592  0.71487  0.66857  1.0000
  C   C30       1.0  0.41409  0.28515  0.33142  1.0000
  C   C31       1.0  0.49548  0.76116  0.60374  1.0000
  C   C32       1.0  0.50454  0.23884  0.39626  1.0000
  Cl  Cl1       1.0  0.14717  0.67843  0.99737  1.0000
  Cl  Cl2       1.0  0.85284  0.32161  0.00263  1.0000
  Cl  Cl3       1.0  0.00653  0.22607  0.81777  1.0000
  Cl  Cl4       1.0  0.99346  0.77395  0.18223  1.0000
  Cl  Cl5       1.0  0.99027  0.59748  0.73981  1.0000
  Cl  Cl6       1.0  0.00970  0.40252  0.26021  1.0000
  Cl  Cl7       1.0  0.65946  0.82385  0.99950  1.0000
  Cl  Cl8       1.0  0.34053  0.17612  0.00050  1.0000
  Cl  Cl9       1.0  0.49732  0.07463  0.74342  1.0000
  Cl  Cl10      1.0  0.50267  0.92538  0.25658  1.0000
  Cl  Cl11      1.0  0.50099  0.40175  0.82117  1.0000
  Cl  Cl12      1.0  0.49900  0.59825  0.17882  1.0000
  O   O1        1.0  0.94859  0.97260  0.72448  1.0000
  O   O2        1.0  0.05141  0.02740  0.27552  1.0000
  O   O3        1.0  0.15755  0.07821  0.54948  1.0000
  O   O4        1.0  0.84247  0.92179  0.45052  1.0000
  O   O5        1.0  0.87310  0.08897  0.59495  1.0000
  O   O6        1.0  0.12692  0.91103  0.40505  1.0000
  O   O7        1.0  0.44930  0.71424  0.72795  1.0000
  O   O8        1.0  0.55070  0.28577  0.27204  1.0000
  O   O9        1.0  0.53491  0.89692  0.56426  1.0000
  O   O10       1.0  0.46510  0.10308  0.43573  1.0000
  O   O11       1.0  0.38264  0.66665  0.59025  1.0000
  O   O12       1.0  0.61736  0.33335  0.40975  1.0000
  O   O13       1.0  0.05298  0.32193  0.44352  1.0000
  O   O14       1.0  0.94702  0.67805  0.55649  1.0000
  O   O15       1.0  0.75292  0.44105  0.52593  1.0000
  O   O16       1.0  0.24708  0.55894  0.47408  1.0000
  O   O17       1.0  0.40115  0.30041  0.56674  1.0000
  O   O18       1.0  0.59886  0.69957  0.43326  1.0000
