data_image0
_chemical_formula_structural       Pu4P8H16C4O28
_chemical_formula_sum              "Pu4 P8 H16 C4 O28"
_cell_length_a       5.22269
_cell_length_b       8.18329
_cell_length_c       16.7384
_cell_angle_alpha    90.0442
_cell_angle_beta     95.9615
_cell_angle_gamma    89.9867

_space_group_name_H-M_alt    "P 1"
_space_group_IT_number       1

loop_
  _space_group_symop_operation_xyz
  'x, y, z'

loop_
  _atom_site_type_symbol
  _atom_site_label
  _atom_site_symmetry_multiplicity
  _atom_site_fract_x
  _atom_site_fract_y
  _atom_site_fract_z
  _atom_site_occupancy
  Pu  Pu1       1.0  0.16572  0.86991  0.36328  1.0000
  Pu  Pu2       1.0  0.33403  0.36955  0.13666  1.0000
  Pu  Pu3       1.0  0.83432  0.12999  0.63673  1.0000
  Pu  Pu4       1.0  0.66584  0.63034  0.86329  1.0000
  P   P1        1.0  0.86319  0.19879  0.25622  1.0000
  P   P2        1.0  0.63676  0.69884  0.24374  1.0000
  P   P3        1.0  0.13681  0.80119  0.74378  1.0000
  P   P4        1.0  0.36319  0.30113  0.75621  1.0000
  P   P5        1.0  0.68113  0.12901  0.42371  1.0000
  P   P6        1.0  0.81866  0.62859  0.07634  1.0000
  P   P7        1.0  0.31916  0.87114  0.57635  1.0000
  P   P8        1.0  0.18110  0.37150  0.92366  1.0000
  H   H1        1.0  0.00433  0.29855  0.38499  1.0000
  H   H2        1.0  0.49498  0.79811  0.11504  1.0000
  H   H3        1.0  0.99632  0.70142  0.61499  1.0000
  H   H4        1.0  0.50440  0.20175  0.88493  1.0000
  H   H5        1.0  0.69787  0.38381  0.35085  1.0000
  H   H6        1.0  0.80129  0.88374  0.14905  1.0000
  H   H7        1.0  0.30295  0.61641  0.64923  1.0000
  H   H8        1.0  0.19786  0.11644  0.85084  1.0000
  H   H9        1.0  0.27467  0.52679  0.43411  1.0000
  H   H10       1.0  0.22532  0.02562  0.06590  1.0000
  H   H11       1.0  0.72582  0.47275  0.56595  1.0000
  H   H12       1.0  0.77419  0.97408  0.93407  1.0000
  H   H13       1.0  0.25499  0.49602  0.34010  1.0000
  H   H14       1.0  0.24342  0.99602  0.15994  1.0000
  H   H15       1.0  0.74560  0.50395  0.65991  1.0000
  H   H16       1.0  0.75612  0.00404  0.84007  1.0000
  C   C1        1.0  0.81099  0.27060  0.35557  1.0000
  C   C2        1.0  0.68850  0.77044  0.14437  1.0000
  C   C3        1.0  0.18953  0.72949  0.64445  1.0000
  C   C4        1.0  0.31097  0.22963  0.85558  1.0000
  O   O1        1.0  0.60991  0.18803  0.20095  1.0000
  O   O2        1.0  0.89022  0.68818  0.29891  1.0000
  O   O3        1.0  0.38991  0.81188  0.79919  1.0000
  O   O4        1.0  0.10993  0.31167  0.70091  1.0000
  O   O5        1.0  0.83442  0.96711  0.42150  1.0000
  O   O6        1.0  0.66523  0.46683  0.07840  1.0000
  O   O7        1.0  0.16575  0.03300  0.57854  1.0000
  O   O8        1.0  0.33473  0.53318  0.92163  1.0000
  O   O9        1.0  0.39338  0.09587  0.39670  1.0000
  O   O10       1.0  0.10631  0.59557  0.10352  1.0000
  O   O11       1.0  0.60703  0.90425  0.60334  1.0000
  O   O12       1.0  0.89337  0.40453  0.89646  1.0000
  O   O13       1.0  0.98704  0.02774  0.26546  1.0000
  O   O14       1.0  0.51311  0.52780  0.23448  1.0000
  O   O15       1.0  0.01350  0.97238  0.73460  1.0000
  O   O16       1.0  0.48615  0.47238  0.76547  1.0000
  O   O17       1.0  0.05423  0.32274  0.22611  1.0000
  O   O18       1.0  0.44582  0.82283  0.27400  1.0000
  O   O19       1.0  0.94562  0.67713  0.77371  1.0000
  O   O20       1.0  0.55434  0.17704  0.72618  1.0000
  O   O21       1.0  0.33571  0.56329  0.38410  1.0000
  O   O22       1.0  0.16397  0.06313  0.11571  1.0000
  O   O23       1.0  0.66415  0.43683  0.61596  1.0000
  O   O24       1.0  0.83595  0.93696  0.88425  1.0000
  O   O25       1.0  0.71571  0.21302  0.50601  1.0000
  O   O26       1.0  0.78514  0.71234  0.99400  1.0000
  O   O27       1.0  0.28479  0.78712  0.49405  1.0000
  O   O28       1.0  0.21455  0.28757  0.00596  1.0000
