data_image0
_chemical_formula_structural       CdH36C38S2N4O6
_chemical_formula_sum              "Cd1 H36 C38 S2 N4 O6"
_cell_length_a       8.79933
_cell_length_b       10.8347
_cell_length_c       11.2489
_cell_angle_alpha    113.771
_cell_angle_beta     93.7072
_cell_angle_gamma    106.781

_space_group_name_H-M_alt    "P 1"
_space_group_IT_number       1

loop_
  _space_group_symop_operation_xyz
  'x, y, z'

loop_
  _atom_site_type_symbol
  _atom_site_label
  _atom_site_symmetry_multiplicity
  _atom_site_fract_x
  _atom_site_fract_y
  _atom_site_fract_z
  _atom_site_occupancy
  Cd  Cd1       1.0  0.50000  0.50000  1.00000  1.0000
  H   H1        1.0  0.99426  0.15889  0.16778  1.0000
  H   H2        1.0  0.00573  0.84112  0.83222  1.0000
  H   H3        1.0  0.43008  0.52026  0.39009  1.0000
  H   H4        1.0  0.56992  0.47974  0.60991  1.0000
  H   H5        1.0  0.28153  0.63500  0.54988  1.0000
  H   H6        1.0  0.71848  0.36501  0.45013  1.0000
  H   H7        1.0  0.83965  0.27381  0.32532  1.0000
  H   H8        1.0  0.16036  0.72620  0.67470  1.0000
  H   H9        1.0  0.32059  0.46781  0.72674  1.0000
  H   H10       1.0  0.67942  0.53218  0.27326  1.0000
  H   H11       1.0  0.22173  0.29819  0.48689  1.0000
  H   H12       1.0  0.77828  0.70181  0.51311  1.0000
  H   H13       1.0  0.37600  0.99228  0.56947  1.0000
  H   H14       1.0  0.62399  0.00772  0.43053  1.0000
  H   H15       1.0  0.46063  0.17131  0.80816  1.0000
  H   H16       1.0  0.53936  0.82868  0.19185  1.0000
  H   H17       1.0  0.30209  0.95129  0.33710  1.0000
  H   H18       1.0  0.69792  0.04871  0.66290  1.0000
  H   H19       1.0  0.26548  0.08625  0.30199  1.0000
  H   H20       1.0  0.73453  0.91375  0.69801  1.0000
  H   H21       1.0  0.98723  0.02052  0.36029  1.0000
  H   H22       1.0  0.01277  0.97948  0.63971  1.0000
  H   H23       1.0  0.02514  0.87843  0.38065  1.0000
  H   H24       1.0  0.97485  0.12157  0.61934  1.0000
  H   H25       1.0  0.86379  0.78477  0.15569  1.0000
  H   H26       1.0  0.13621  0.21523  0.84430  1.0000
  H   H27       1.0  0.99904  0.91931  0.12559  1.0000
  H   H28       1.0  0.00097  0.08069  0.87441  1.0000
  H   H29       1.0  0.18967  0.85808  0.99980  1.0000
  H   H30       1.0  0.81033  0.14192  0.00020  1.0000
  H   H31       1.0  0.35438  0.70125  0.91288  1.0000
  H   H32       1.0  0.64563  0.29875  0.08711  1.0000
  H   H33       1.0  0.19805  0.48442  0.13804  1.0000
  H   H34       1.0  0.80195  0.51558  0.86195  1.0000
  H   H35       1.0  0.02135  0.62778  0.22911  1.0000
  H   H36       1.0  0.97865  0.37222  0.77088  1.0000
  C   C1        1.0  0.05511  0.26458  0.25069  1.0000
  C   C2        1.0  0.94489  0.73543  0.74932  1.0000
  C   C3        1.0  0.29993  0.46777  0.37479  1.0000
  C   C4        1.0  0.70008  0.53224  0.62522  1.0000
  C   C5        1.0  0.21373  0.53269  0.46521  1.0000
  C   C6        1.0  0.78628  0.46732  0.53480  1.0000
  C   C7        1.0  0.04576  0.46579  0.45106  1.0000
  C   C8        1.0  0.95424  0.53421  0.54895  1.0000
  C   C9        1.0  0.96910  0.33045  0.34133  1.0000
  C   C10       1.0  0.03091  0.66955  0.65868  1.0000
  C   C11       1.0  0.22121  0.33335  0.26691  1.0000
  C   C12       1.0  0.77879  0.66665  0.73309  1.0000
  C   C13       1.0  0.32742  0.36004  0.68862  1.0000
  C   C14       1.0  0.67258  0.63995  0.31138  1.0000
  C   C15       1.0  0.27437  0.26566  0.55456  1.0000
  C   C16       1.0  0.72563  0.73434  0.44544  1.0000
  C   C17       1.0  0.29266  0.13083  0.50683  1.0000
  C   C18       1.0  0.70734  0.86916  0.49317  1.0000
  C   C19       1.0  0.36055  0.09639  0.60025  1.0000
  C   C20       1.0  0.63945  0.90360  0.39975  1.0000
  C   C21       1.0  0.40879  0.19589  0.73326  1.0000
  C   C22       1.0  0.59121  0.80411  0.26674  1.0000
  C   C23       1.0  0.23662  0.02793  0.36270  1.0000
  C   C24       1.0  0.76338  0.97207  0.63730  1.0000
  C   C25       1.0  0.05316  0.94457  0.32664  1.0000
  C   C26       1.0  0.94684  0.05543  0.67335  1.0000
  C   C27       1.0  0.99213  0.85072  0.17643  1.0000
  C   C28       1.0  0.00787  0.14928  0.82356  1.0000
  C   C29       1.0  0.08856  0.75480  0.11991  1.0000
  C   C30       1.0  0.91144  0.24520  0.88008  1.0000
  C   C31       1.0  0.18376  0.77284  0.02917  1.0000
  C   C32       1.0  0.81624  0.22716  0.97082  1.0000
  C   C33       1.0  0.27760  0.68696  0.98215  1.0000
  C   C34       1.0  0.72240  0.31304  0.01784  1.0000
  C   C35       1.0  0.19075  0.56716  0.10874  1.0000
  C   C36       1.0  0.80925  0.43284  0.89126  1.0000
  C   C37       1.0  0.09302  0.64806  0.15911  1.0000
  C   C38       1.0  0.90698  0.35194  0.84088  1.0000
  S   S1        1.0  0.33386  0.25022  0.15166  1.0000
  S   S2        1.0  0.66613  0.74978  0.84834  1.0000
  N   N1        1.0  0.39458  0.32655  0.77716  1.0000
  N   N2        1.0  0.60541  0.67344  0.22284  1.0000
  N   N3        1.0  0.28262  0.58604  0.02184  1.0000
  N   N4        1.0  0.71738  0.41395  0.97815  1.0000
  O   O1        1.0  0.23294  0.09908  0.07795  1.0000
  O   O2        1.0  0.76705  0.90092  0.92205  1.0000
  O   O3        1.0  0.35374  0.32535  0.06522  1.0000
  O   O4        1.0  0.64626  0.67465  0.93478  1.0000
  O   O5        1.0  0.48898  0.27922  0.23270  1.0000
  O   O6        1.0  0.51101  0.72077  0.76729  1.0000
