data_image0
_chemical_formula_structural       In4H44C36I8
_chemical_formula_sum              "In4 H44 C36 I8"
_cell_length_a       7.6279
_cell_length_b       8.128
_cell_length_c       19.5363
_cell_angle_alpha    90.0003
_cell_angle_beta     90.0004
_cell_angle_gamma    90.6706

_space_group_name_H-M_alt    "P 1"
_space_group_IT_number       1

loop_
  _space_group_symop_operation_xyz
  'x, y, z'

loop_
  _atom_site_type_symbol
  _atom_site_label
  _atom_site_symmetry_multiplicity
  _atom_site_fract_x
  _atom_site_fract_y
  _atom_site_fract_z
  _atom_site_occupancy
  In  In1       1.0  0.25594  0.44435  0.45708  1.0000
  In  In2       1.0  0.24411  0.55559  0.95706  1.0000
  In  In3       1.0  0.74403  0.55564  0.54291  1.0000
  In  In4       1.0  0.75584  0.44442  0.04294  1.0000
  H   H1        1.0  0.07819  0.94022  0.30672  1.0000
  H   H2        1.0  0.42182  0.05979  0.80671  1.0000
  H   H3        1.0  0.92180  0.05975  0.69328  1.0000
  H   H4        1.0  0.57818  0.94024  0.19329  1.0000
  H   H5        1.0  0.32576  0.33041  0.19224  1.0000
  H   H6        1.0  0.17419  0.66959  0.69224  1.0000
  H   H7        1.0  0.67423  0.66958  0.80776  1.0000
  H   H8        1.0  0.82576  0.33043  0.30777  1.0000
  H   H9        1.0  0.97925  0.15721  0.45000  1.0000
  H   H10       1.0  0.52076  0.84278  0.94999  1.0000
  H   H11       1.0  0.02074  0.84277  0.55000  1.0000
  H   H12       1.0  0.47926  0.15722  0.05000  1.0000
  H   H13       1.0  0.18889  0.08140  0.47196  1.0000
  H   H14       1.0  0.31112  0.91859  0.97196  1.0000
  H   H15       1.0  0.81110  0.91858  0.52804  1.0000
  H   H16       1.0  0.68891  0.08140  0.02804  1.0000
  H   H17       1.0  0.04020  0.95647  0.42485  1.0000
  H   H18       1.0  0.45982  0.04354  0.92486  1.0000
  H   H19       1.0  0.95977  0.04351  0.57515  1.0000
  H   H20       1.0  0.54022  0.95647  0.07514  1.0000
  H   H21       1.0  0.20790  0.10088  0.13151  1.0000
  H   H22       1.0  0.29211  0.89912  0.63151  1.0000
  H   H23       1.0  0.79210  0.89911  0.86849  1.0000
  H   H24       1.0  0.70791  0.10089  0.36850  1.0000
  H   H25       1.0  0.02680  0.99925  0.17075  1.0000
  H   H26       1.0  0.47320  0.00076  0.67075  1.0000
  H   H27       1.0  0.97320  0.00074  0.82925  1.0000
  H   H28       1.0  0.52681  0.99925  0.32926  1.0000
  H   H29       1.0  0.23865  0.91351  0.17636  1.0000
  H   H30       1.0  0.26136  0.08651  0.67636  1.0000
  H   H31       1.0  0.76136  0.08648  0.82364  1.0000
  H   H32       1.0  0.73866  0.91352  0.32364  1.0000
  H   H33       1.0  0.42611  0.59238  0.34504  1.0000
  H   H34       1.0  0.07388  0.40763  0.84504  1.0000
  H   H35       1.0  0.57386  0.40760  0.65496  1.0000
  H   H36       1.0  0.92611  0.59236  0.15496  1.0000
  H   H37       1.0  0.30748  0.62791  0.26848  1.0000
  H   H38       1.0  0.19252  0.37210  0.76847  1.0000
  H   H39       1.0  0.69249  0.37206  0.73152  1.0000
  H   H40       1.0  0.80749  0.62792  0.23153  1.0000
  H   H41       1.0  0.51384  0.53014  0.26525  1.0000
  H   H42       1.0  0.98617  0.46989  0.76524  1.0000
  H   H43       1.0  0.48614  0.46985  0.73475  1.0000
  H   H44       1.0  0.01385  0.53015  0.23476  1.0000
  C   C1        1.0  0.24303  0.30674  0.36262  1.0000
  C   C2        1.0  0.25698  0.69330  0.86262  1.0000
  C   C3        1.0  0.75696  0.69323  0.63738  1.0000
  C   C4        1.0  0.74303  0.30674  0.13739  1.0000
  C   C5        1.0  0.16116  0.15058  0.36539  1.0000
  C   C6        1.0  0.33884  0.84945  0.86539  1.0000
  C   C7        1.0  0.83882  0.84939  0.63461  1.0000
  C   C8        1.0  0.66118  0.15057  0.13462  1.0000
  C   C9        1.0  0.14239  0.06107  0.30474  1.0000
  C   C10       1.0  0.35761  0.93895  0.80473  1.0000
  C   C11       1.0  0.85759  0.93890  0.69526  1.0000
  C   C12       1.0  0.64241  0.06109  0.19526  1.0000
  C   C13       1.0  0.19797  0.12502  0.24161  1.0000
  C   C14       1.0  0.30202  0.87497  0.74160  1.0000
  C   C15       1.0  0.80201  0.87496  0.75839  1.0000
  C   C16       1.0  0.69799  0.12503  0.25840  1.0000
  C   C17       1.0  0.27920  0.27969  0.24083  1.0000
  C   C18       1.0  0.22078  0.72033  0.74082  1.0000
  C   C19       1.0  0.72079  0.72029  0.75917  1.0000
  C   C20       1.0  0.77922  0.27969  0.25918  1.0000
  C   C21       1.0  0.30411  0.37308  0.30072  1.0000
  C   C22       1.0  0.19589  0.62693  0.80073  1.0000
  C   C23       1.0  0.69588  0.62690  0.69927  1.0000
  C   C24       1.0  0.80412  0.37309  0.19929  1.0000
  C   C25       1.0  0.08920  0.08283  0.43121  1.0000
  C   C26       1.0  0.41081  0.91718  0.93121  1.0000
  C   C27       1.0  0.91078  0.91715  0.56879  1.0000
  C   C28       1.0  0.58922  0.08283  0.06879  1.0000
  C   C29       1.0  0.16679  0.03015  0.17666  1.0000
  C   C30       1.0  0.33321  0.96986  0.67666  1.0000
  C   C31       1.0  0.83321  0.96984  0.82333  1.0000
  C   C32       1.0  0.66680  0.03016  0.32334  1.0000
  C   C33       1.0  0.39210  0.53927  0.29501  1.0000
  C   C34       1.0  0.10791  0.46074  0.79501  1.0000
  C   C35       1.0  0.60788  0.46070  0.70499  1.0000
  C   C36       1.0  0.89209  0.53928  0.20500  1.0000
  I   I1        1.0  0.10152  0.38884  0.58617  1.0000
  I   I2        1.0  0.39850  0.61114  0.08617  1.0000
  I   I3        1.0  0.89850  0.61113  0.41382  1.0000
  I   I4        1.0  0.60156  0.38888  0.91383  1.0000
  I   I5        1.0  0.41728  0.74892  0.48604  1.0000
  I   I6        1.0  0.08273  0.25107  0.98603  1.0000
  I   I7        1.0  0.58271  0.25107  0.51396  1.0000
  I   I8        1.0  0.91731  0.74896  0.01397  1.0000
