data_image0
_chemical_formula_structural       Na4H28C28S4O24
_chemical_formula_sum              "Na4 H28 C28 S4 O24"
_cell_length_a       6.05222
_cell_length_b       6.68267
_cell_length_c       22.3229
_cell_angle_alpha    89.9893
_cell_angle_beta     90.0027
_cell_angle_gamma    98.0096

_space_group_name_H-M_alt    "P 1"
_space_group_IT_number       1

loop_
  _space_group_symop_operation_xyz
  'x, y, z'

loop_
  _atom_site_type_symbol
  _atom_site_label
  _atom_site_symmetry_multiplicity
  _atom_site_fract_x
  _atom_site_fract_y
  _atom_site_fract_z
  _atom_site_occupancy
  Na  Na1       1.0  0.69779  0.41508  0.21028  1.0000
  Na  Na2       1.0  0.80237  0.58499  0.71029  1.0000
  Na  Na3       1.0  0.30221  0.58493  0.78972  1.0000
  Na  Na4       1.0  0.19763  0.41499  0.28970  1.0000
  H   H1        1.0  0.61898  0.62673  0.46103  1.0000
  H   H2        1.0  0.88094  0.37325  0.96100  1.0000
  H   H3        1.0  0.38102  0.37325  0.53898  1.0000
  H   H4        1.0  0.11905  0.62678  0.03900  1.0000
  H   H5        1.0  0.18769  0.85601  0.35307  1.0000
  H   H6        1.0  0.31224  0.14373  0.85308  1.0000
  H   H7        1.0  0.81228  0.14396  0.64693  1.0000
  H   H8        1.0  0.68778  0.85628  0.14692  1.0000
  H   H9        1.0  0.64933  0.61703  0.56995  1.0000
  H   H10       1.0  0.85064  0.38301  0.06992  1.0000
  H   H11       1.0  0.35062  0.38296  0.43005  1.0000
  H   H12       1.0  0.14945  0.61699  0.93008  1.0000
  H   H13       1.0  0.42340  0.91254  0.44376  1.0000
  H   H14       1.0  0.07652  0.08734  0.94378  1.0000
  H   H15       1.0  0.57659  0.08743  0.55624  1.0000
  H   H16       1.0  0.92346  0.91270  0.05622  1.0000
  H   H17       1.0  0.18743  0.78900  0.58874  1.0000
  H   H18       1.0  0.31247  0.21112  0.08874  1.0000
  H   H19       1.0  0.81254  0.21101  0.41125  1.0000
  H   H20       1.0  0.68757  0.78889  0.91127  1.0000
  H   H21       1.0  0.85998  0.07303  0.26559  1.0000
  H   H22       1.0  0.63984  0.92662  0.76557  1.0000
  H   H23       1.0  0.14000  0.92693  0.73441  1.0000
  H   H24       1.0  0.36017  0.07341  0.23443  1.0000
  H   H25       1.0  0.01361  0.08331  0.21011  1.0000
  H   H26       1.0  0.48638  0.91637  0.71006  1.0000
  H   H27       1.0  0.98639  0.91669  0.78989  1.0000
  H   H28       1.0  0.51360  0.08362  0.28994  1.0000
  C   C1        1.0  0.15684  0.79821  0.50421  1.0000
  C   C2        1.0  0.34311  0.20179  0.00421  1.0000
  C   C3        1.0  0.84318  0.20180  0.49579  1.0000
  C   C4        1.0  0.65691  0.79821  0.99580  1.0000
  C   C5        1.0  0.92640  0.72054  0.50931  1.0000
  C   C6        1.0  0.57351  0.27947  0.00930  1.0000
  C   C7        1.0  0.07358  0.27948  0.49069  1.0000
  C   C8        1.0  0.42652  0.72053  0.99070  1.0000
  C   C9        1.0  0.79493  0.68829  0.45719  1.0000
  C   C10       1.0  0.70498  0.31165  0.95717  1.0000
  C   C11       1.0  0.20505  0.31170  0.54281  1.0000
  C   C12       1.0  0.29504  0.68839  0.04282  1.0000
  C   C13       1.0  0.88863  0.73503  0.40153  1.0000
  C   C14       1.0  0.61126  0.26481  0.90153  1.0000
  C   C15       1.0  0.11133  0.26493  0.59847  1.0000
  C   C16       1.0  0.38873  0.73524  0.09848  1.0000
  C   C17       1.0  0.11549  0.81653  0.39696  1.0000
  C   C18       1.0  0.38443  0.18327  0.89696  1.0000
  C   C19       1.0  0.88449  0.18341  0.60304  1.0000
  C   C20       1.0  0.61557  0.81676  0.10304  1.0000
  C   C21       1.0  0.82902  0.67572  0.56747  1.0000
  C   C22       1.0  0.67091  0.32435  0.06745  1.0000
  C   C23       1.0  0.17091  0.32426  0.43253  1.0000
  C   C24       1.0  0.32914  0.67565  0.93254  1.0000
  C   C25       1.0  0.24899  0.84674  0.44749  1.0000
  C   C26       1.0  0.25095  0.15315  0.94750  1.0000
  C   C27       1.0  0.75102  0.15323  0.55251  1.0000
  C   C28       1.0  0.74905  0.84687  0.05250  1.0000
  S   S1        1.0  0.72670  0.70632  0.33487  1.0000
  S   S2        1.0  0.77325  0.29358  0.83485  1.0000
  S   S3        1.0  0.27331  0.29367  0.66514  1.0000
  S   S4        1.0  0.22679  0.70644  0.16514  1.0000
  O   O1        1.0  0.69923  0.91609  0.31836  1.0000
  O   O2        1.0  0.80051  0.08384  0.81834  1.0000
  O   O3        1.0  0.30068  0.08390  0.68163  1.0000
  O   O4        1.0  0.19957  0.91623  0.18166  1.0000
  O   O5        1.0  0.86344  0.61322  0.29111  1.0000
  O   O6        1.0  0.63657  0.38686  0.79113  1.0000
  O   O7        1.0  0.13659  0.38679  0.70889  1.0000
  O   O8        1.0  0.36340  0.61311  0.20888  1.0000
  O   O9        1.0  0.51548  0.58168  0.34969  1.0000
  O   O10       1.0  0.98446  0.41807  0.84970  1.0000
  O   O11       1.0  0.48446  0.41828  0.65031  1.0000
  O   O12       1.0  0.01552  0.58196  0.15031  1.0000
  O   O13       1.0  0.28772  0.82600  0.55294  1.0000
  O   O14       1.0  0.21220  0.17408  0.05295  1.0000
  O   O15       1.0  0.71225  0.17400  0.44705  1.0000
  O   O16       1.0  0.78785  0.82593  0.94706  1.0000
  O   O17       1.0  0.93330  0.16925  0.23559  1.0000
  O   O18       1.0  0.56653  0.83041  0.73558  1.0000
  O   O19       1.0  0.06668  0.83073  0.76441  1.0000
  O   O20       1.0  0.43349  0.16960  0.26442  1.0000
  O   O21       1.0  0.93919  0.70156  0.61506  1.0000
  O   O22       1.0  0.56078  0.29859  0.11505  1.0000
  O   O23       1.0  0.06076  0.29841  0.38494  1.0000
  O   O24       1.0  0.43931  0.70142  0.88495  1.0000
