data_image0
_chemical_formula_structural       Co3H16C14N14O8
_chemical_formula_sum              "Co3 H16 C14 N14 O8"
_cell_length_a       8.58717
_cell_length_b       8.91089
_cell_length_c       8.8137
_cell_angle_alpha    107.024
_cell_angle_beta     112.395
_cell_angle_gamma    100.862

_space_group_name_H-M_alt    "P 1"
_space_group_IT_number       1

loop_
  _space_group_symop_operation_xyz
  'x, y, z'

loop_
  _atom_site_type_symbol
  _atom_site_label
  _atom_site_symmetry_multiplicity
  _atom_site_fract_x
  _atom_site_fract_y
  _atom_site_fract_z
  _atom_site_occupancy
  Co  Co1       1.0  0.00021  0.00304  0.49459  1.0000
  Co  Co2       1.0  0.01404  0.91859  0.81151  1.0000
  Co  Co3       1.0  0.98860  0.08179  0.19894  1.0000
  H   H1        1.0  0.25567  0.81476  0.00290  1.0000
  H   H2        1.0  0.74431  0.17991  0.99682  1.0000
  H   H3        1.0  0.19375  0.31227  0.95724  1.0000
  H   H4        1.0  0.80597  0.68533  0.04362  1.0000
  H   H5        1.0  0.70932  0.39715  0.51375  1.0000
  H   H6        1.0  0.29305  0.60973  0.49003  1.0000
  H   H7        1.0  0.43849  0.13797  0.34028  1.0000
  H   H8        1.0  0.56649  0.86756  0.66642  1.0000
  H   H9        1.0  0.45944  0.58629  0.11966  1.0000
  H   H10       1.0  0.53785  0.41313  0.87835  1.0000
  H   H11       1.0  0.16743  0.53813  0.92210  1.0000
  H   H12       1.0  0.82896  0.45459  0.06872  1.0000
  H   H13       1.0  0.10707  0.56716  0.71698  1.0000
  H   H14       1.0  0.88759  0.43154  0.27691  1.0000
  H   H15       1.0  0.94291  0.52250  0.79039  1.0000
  H   H16       1.0  0.05383  0.47454  0.20580  1.0000
  C   C1        1.0  0.60498  0.51229  0.32906  1.0000
  C   C2        1.0  0.39533  0.49154  0.67182  1.0000
  C   C3        1.0  0.31277  0.34315  0.08140  1.0000
  C   C4        1.0  0.68737  0.65661  0.92011  1.0000
  C   C5        1.0  0.59997  0.38447  0.39101  1.0000
  C   C6        1.0  0.40209  0.62073  0.61201  1.0000
  C   C7        1.0  0.45264  0.24097  0.29891  1.0000
  C   C8        1.0  0.55061  0.76314  0.70539  1.0000
  C   C9        1.0  0.45950  0.48846  0.17023  1.0000
  C   C10       1.0  0.53967  0.51239  0.82991  1.0000
  C   C11       1.0  0.76042  0.67289  0.43933  1.0000
  C   C12       1.0  0.23980  0.33221  0.56073  1.0000
  C   C13       1.0  0.08389  0.58759  0.83457  1.0000
  C   C14       1.0  0.91275  0.40846  0.16030  1.0000
  N   N1        1.0  0.31140  0.22448  0.14878  1.0000
  N   N2        1.0  0.69099  0.77684  0.85478  1.0000
  N   N3        1.0  0.19426  0.94255  0.70678  1.0000
  N   N4        1.0  0.80260  0.05868  0.29372  1.0000
  N   N5        1.0  0.34881  0.03083  0.79847  1.0000
  N   N6        1.0  0.64856  0.96884  0.20242  1.0000
  N   N7        1.0  0.49920  0.11528  0.88630  1.0000
  N   N8        1.0  0.49840  0.88407  0.11428  1.0000
  N   N9        1.0  0.79567  0.12052  0.66529  1.0000
  N   N10       1.0  0.20546  0.87286  0.33040  1.0000
  N   N11       1.0  0.91920  0.06801  0.68584  1.0000
  N   N12       1.0  0.08902  0.93438  0.31549  1.0000
  N   N13       1.0  0.68141  0.17674  0.64877  1.0000
  N   N14       1.0  0.31493  0.81090  0.34369  1.0000
  O   O1        1.0  0.16438  0.08964  0.07294  1.0000
  O   O2        1.0  0.83992  0.90938  0.93280  1.0000
  O   O3        1.0  0.83534  0.70559  0.60651  1.0000
  O   O4        1.0  0.16154  0.30162  0.39432  1.0000
  O   O5        1.0  0.80259  0.76108  0.36210  1.0000
  O   O6        1.0  0.19982  0.24111  0.63654  1.0000
  O   O7        1.0  0.12377  0.76140  0.93331  1.0000
  O   O8        1.0  0.87595  0.23434  0.06670  1.0000
