data_image0
_chemical_formula_structural       Ba4H24C20N4O16
_chemical_formula_sum              "Ba4 H24 C20 N4 O16"
_cell_length_a       8.1311
_cell_length_b       9.74769
_cell_length_c       10.4182
_cell_angle_alpha    118.81
_cell_angle_beta     90.0001
_cell_angle_gamma    89.9999

_space_group_name_H-M_alt    "P 1"
_space_group_IT_number       1

loop_
  _space_group_symop_operation_xyz
  'x, y, z'

loop_
  _atom_site_type_symbol
  _atom_site_label
  _atom_site_symmetry_multiplicity
  _atom_site_fract_x
  _atom_site_fract_y
  _atom_site_fract_z
  _atom_site_occupancy
  Ba  Ba1       1.0  0.53618  0.94885  0.27117  1.0000
  Ba  Ba2       1.0  0.03618  0.05115  0.22883  1.0000
  Ba  Ba3       1.0  0.46382  0.05115  0.72883  1.0000
  Ba  Ba4       1.0  0.96381  0.94885  0.77117  1.0000
  H   H1        1.0  0.54184  0.41854  0.83471  1.0000
  H   H2        1.0  0.04184  0.58146  0.66529  1.0000
  H   H3        1.0  0.45816  0.58146  0.16529  1.0000
  H   H4        1.0  0.95816  0.41854  0.33471  1.0000
  H   H5        1.0  0.68561  0.51127  0.97999  1.0000
  H   H6        1.0  0.18561  0.48873  0.52001  1.0000
  H   H7        1.0  0.31438  0.48874  0.02001  1.0000
  H   H8        1.0  0.81439  0.51126  0.47998  1.0000
  H   H9        1.0  0.39414  0.60149  0.76092  1.0000
  H   H10       1.0  0.89414  0.39851  0.73908  1.0000
  H   H11       1.0  0.60586  0.39852  0.23908  1.0000
  H   H12       1.0  0.10586  0.60148  0.26092  1.0000
  H   H13       1.0  0.27725  0.61904  0.91318  1.0000
  H   H14       1.0  0.77725  0.38096  0.58682  1.0000
  H   H15       1.0  0.72275  0.38096  0.08682  1.0000
  H   H16       1.0  0.22275  0.61904  0.41318  1.0000
  H   H17       1.0  0.63332  0.80823  0.87804  1.0000
  H   H18       1.0  0.13332  0.19176  0.62195  1.0000
  H   H19       1.0  0.36668  0.19177  0.12196  1.0000
  H   H20       1.0  0.86668  0.80823  0.37803  1.0000
  H   H21       1.0  0.70450  0.61403  0.78644  1.0000
  H   H22       1.0  0.20450  0.38597  0.71356  1.0000
  H   H23       1.0  0.29550  0.38598  0.21356  1.0000
  H   H24       1.0  0.79550  0.61402  0.28644  1.0000
  C   C1        1.0  0.55688  0.51376  0.94909  1.0000
  C   C2        1.0  0.05688  0.48624  0.55091  1.0000
  C   C3        1.0  0.44312  0.48624  0.05091  1.0000
  C   C4        1.0  0.94312  0.51376  0.44909  1.0000
  C   C5        1.0  0.37962  0.67009  0.88111  1.0000
  C   C6        1.0  0.87963  0.32991  0.61889  1.0000
  C   C7        1.0  0.62037  0.32992  0.11889  1.0000
  C   C8        1.0  0.12037  0.67008  0.38111  1.0000
  C   C9        1.0  0.32532  0.83706  0.92314  1.0000
  C   C10       1.0  0.82532  0.16294  0.57686  1.0000
  C   C11       1.0  0.67468  0.16295  0.07687  1.0000
  C   C12       1.0  0.17468  0.83706  0.42314  1.0000
  C   C13       1.0  0.66932  0.70970  0.89556  1.0000
  C   C14       1.0  0.16932  0.29030  0.60444  1.0000
  C   C15       1.0  0.33068  0.29031  0.10444  1.0000
  C   C16       1.0  0.83068  0.70969  0.39556  1.0000
  C   C17       1.0  0.82180  0.76738  0.99194  1.0000
  C   C18       1.0  0.32180  0.23262  0.50807  1.0000
  C   C19       1.0  0.17820  0.23261  0.00807  1.0000
  C   C20       1.0  0.67820  0.76739  0.49193  1.0000
  N   N1        1.0  0.52970  0.66774  0.95860  1.0000
  N   N2        1.0  0.02970  0.33226  0.54140  1.0000
  N   N3        1.0  0.47030  0.33227  0.04141  1.0000
  N   N4        1.0  0.97030  0.66773  0.45859  1.0000
  O   O1        1.0  0.32429  0.93625  0.05908  1.0000
  O   O2        1.0  0.82429  0.06375  0.44092  1.0000
  O   O3        1.0  0.67570  0.06376  0.94092  1.0000
  O   O4        1.0  0.17570  0.93624  0.55908  1.0000
  O   O5        1.0  0.28141  0.86574  0.82137  1.0000
  O   O6        1.0  0.78141  0.13426  0.67862  1.0000
  O   O7        1.0  0.71859  0.13427  0.17862  1.0000
  O   O8        1.0  0.21858  0.86574  0.32138  1.0000
  O   O9        1.0  0.94675  0.79903  0.93673  1.0000
  O   O10       1.0  0.44675  0.20097  0.56327  1.0000
  O   O11       1.0  0.05325  0.20097  0.06327  1.0000
  O   O12       1.0  0.55325  0.79903  0.43673  1.0000
  O   O13       1.0  0.81655  0.79080  0.12297  1.0000
  O   O14       1.0  0.31655  0.20920  0.37702  1.0000
  O   O15       1.0  0.18346  0.20918  0.87702  1.0000
  O   O16       1.0  0.68345  0.79082  0.62298  1.0000
