data_image0
_chemical_formula_structural       ZnH28C26N4Cl2O8
_chemical_formula_sum              "Zn1 H28 C26 N4 Cl2 O8"
_cell_length_a       8.91795
_cell_length_b       10.3977
_cell_length_c       11.6627
_cell_angle_alpha    68.8839
_cell_angle_beta     90.9588
_cell_angle_gamma    67.7833

_space_group_name_H-M_alt    "P 1"
_space_group_IT_number       1

loop_
  _space_group_symop_operation_xyz
  'x, y, z'

loop_
  _atom_site_type_symbol
  _atom_site_label
  _atom_site_symmetry_multiplicity
  _atom_site_fract_x
  _atom_site_fract_y
  _atom_site_fract_z
  _atom_site_occupancy
  Zn  Zn1       1.0  0.50000  0.00000  0.50000  1.0000
  H   H1        1.0  0.92719  0.50008  0.70676  1.0000
  H   H2        1.0  0.07281  0.49991  0.29323  1.0000
  H   H3        1.0  0.05121  0.60271  0.66152  1.0000
  H   H4        1.0  0.94880  0.39728  0.33848  1.0000
  H   H5        1.0  0.25821  0.43291  0.85132  1.0000
  H   H6        1.0  0.74179  0.56710  0.14868  1.0000
  H   H7        1.0  0.06260  0.51049  0.88924  1.0000
  H   H8        1.0  0.93739  0.48950  0.11076  1.0000
  H   H9        1.0  0.02602  0.27124  0.92371  1.0000
  H   H10       1.0  0.97399  0.72875  0.07629  1.0000
  H   H11       1.0  0.22154  0.19416  0.88445  1.0000
  H   H12       1.0  0.77847  0.80584  0.11556  1.0000
  H   H13       1.0  0.13485  0.12186  0.54845  1.0000
  H   H14       1.0  0.86516  0.87815  0.45155  1.0000
  H   H15       1.0  0.96342  0.30274  0.63382  1.0000
  H   H16       1.0  0.03659  0.69726  0.36618  1.0000
  H   H17       1.0  0.36163  0.44092  0.64555  1.0000
  H   H18       1.0  0.63838  0.55907  0.35446  1.0000
  H   H19       1.0  0.51669  0.25587  0.55734  1.0000
  H   H20       1.0  0.48332  0.74412  0.44267  1.0000
  H   H21       1.0  0.59425  0.10218  0.24363  1.0000
  H   H22       1.0  0.40575  0.89783  0.75637  1.0000
  H   H23       1.0  0.47053  0.19948  0.01997  1.0000
  H   H24       1.0  0.52946  0.80054  0.98003  1.0000
  H   H25       1.0  0.01225  0.20945  0.14142  1.0000
  H   H26       1.0  0.98775  0.79055  0.85858  1.0000
  H   H27       1.0  0.15441  0.11026  0.35803  1.0000
  H   H28       1.0  0.84559  0.88973  0.64197  1.0000
  C   C1        1.0  0.05493  0.48935  0.71177  1.0000
  C   C2        1.0  0.94507  0.51065  0.28824  1.0000
  C   C3        1.0  0.13543  0.43144  0.84858  1.0000
  C   C4        1.0  0.86457  0.56855  0.15142  1.0000
  C   C5        1.0  0.14929  0.27160  0.92698  1.0000
  C   C6        1.0  0.85071  0.72840  0.07302  1.0000
  C   C7        1.0  0.18072  0.19559  0.56945  1.0000
  C   C8        1.0  0.81929  0.80441  0.43055  1.0000
  C   C9        1.0  0.08608  0.29617  0.61943  1.0000
  C   C10       1.0  0.91393  0.70383  0.38057  1.0000
  C   C11       1.0  0.14849  0.38675  0.64995  1.0000
  C   C12       1.0  0.85151  0.61325  0.35004  1.0000
  C   C13       1.0  0.30626  0.37241  0.62555  1.0000
  C   C14       1.0  0.69374  0.62759  0.37446  1.0000
  C   C15       1.0  0.39324  0.26982  0.57514  1.0000
  C   C16       1.0  0.60678  0.73017  0.42487  1.0000
  C   C17       1.0  0.46540  0.12806  0.21641  1.0000
  C   C18       1.0  0.53460  0.87194  0.78359  1.0000
  C   C19       1.0  0.39535  0.18217  0.09209  1.0000
  C   C20       1.0  0.60465  0.81784  0.90791  1.0000
  C   C21       1.0  0.22922  0.21311  0.06033  1.0000
  C   C22       1.0  0.77078  0.78689  0.93967  1.0000
  C   C23       1.0  0.14173  0.18808  0.15847  1.0000
  C   C24       1.0  0.85827  0.81192  0.84153  1.0000
  C   C25       1.0  0.22044  0.13335  0.28093  1.0000
  C   C26       1.0  0.77956  0.86665  0.71906  1.0000
  N   N1        1.0  0.33314  0.18095  0.54783  1.0000
  N   N2        1.0  0.66687  0.81904  0.45217  1.0000
  N   N3        1.0  0.37993  0.10323  0.31022  1.0000
  N   N4        1.0  0.62006  0.89677  0.68978  1.0000
  Cl  Cl1       1.0  0.73089  0.23147  0.39244  1.0000
  Cl  Cl2       1.0  0.26910  0.76854  0.60756  1.0000
  O   O1        1.0  0.68308  0.10315  0.45057  1.0000
  O   O2        1.0  0.31690  0.89685  0.54942  1.0000
  O   O3        1.0  0.78207  0.26774  0.49173  1.0000
  O   O4        1.0  0.21792  0.73226  0.50828  1.0000
  O   O5        1.0  0.86675  0.18251  0.32858  1.0000
  O   O6        1.0  0.13325  0.81750  0.67142  1.0000
  O   O7        1.0  0.59081  0.36057  0.30443  1.0000
  O   O8        1.0  0.40918  0.63944  0.69557  1.0000
