data_image0
_chemical_formula_structural       CoH28C26N4Cl2O8
_chemical_formula_sum              "Co1 H28 C26 N4 Cl2 O8"
_cell_length_a       8.90823
_cell_length_b       10.3963
_cell_length_c       11.4207
_cell_angle_alpha    109.814
_cell_angle_beta     91.0389
_cell_angle_gamma    113.999

_space_group_name_H-M_alt    "P 1"
_space_group_IT_number       1

loop_
  _space_group_symop_operation_xyz
  'x, y, z'

loop_
  _atom_site_type_symbol
  _atom_site_label
  _atom_site_symmetry_multiplicity
  _atom_site_fract_x
  _atom_site_fract_y
  _atom_site_fract_z
  _atom_site_occupancy
  Co  Co1       1.0  0.50000  0.50000  0.50000  1.0000
  H   H1        1.0  0.05540  0.90236  0.66333  1.0000
  H   H2        1.0  0.94460  0.09764  0.33667  1.0000
  H   H3        1.0  0.93540  0.00555  0.70966  1.0000
  H   H4        1.0  0.06460  0.99445  0.29034  1.0000
  H   H5        1.0  0.26952  0.07165  0.85511  1.0000
  H   H6        1.0  0.73049  0.92836  0.14490  1.0000
  H   H7        1.0  0.07091  0.99277  0.89445  1.0000
  H   H8        1.0  0.92910  0.00724  0.10556  1.0000
  H   H9        1.0  0.24527  0.31327  0.88896  1.0000
  H   H10       1.0  0.75473  0.68673  0.11104  1.0000
  H   H11       1.0  0.04341  0.23508  0.92458  1.0000
  H   H12       1.0  0.95660  0.76494  0.07543  1.0000
  H   H13       1.0  0.14404  0.37717  0.53417  1.0000
  H   H14       1.0  0.85597  0.62284  0.46583  1.0000
  H   H15       1.0  0.96920  0.19123  0.61979  1.0000
  H   H16       1.0  0.03081  0.80879  0.38022  1.0000
  H   H17       1.0  0.38267  0.08282  0.65900  1.0000
  H   H18       1.0  0.61732  0.91718  0.34100  1.0000
  H   H19       1.0  0.54220  0.27353  0.57108  1.0000
  H   H20       1.0  0.45779  0.72647  0.42892  1.0000
  H   H21       1.0  0.60392  0.39468  0.25936  1.0000
  H   H22       1.0  0.39608  0.60531  0.74064  1.0000
  H   H23       1.0  0.48449  0.29696  0.03219  1.0000
  H   H24       1.0  0.51552  0.70305  0.96780  1.0000
  H   H25       1.0  0.02414  0.29734  0.14538  1.0000
  H   H26       1.0  0.97587  0.70267  0.85462  1.0000
  H   H27       1.0  0.16209  0.39875  0.36572  1.0000
  H   H28       1.0  0.83792  0.60125  0.63429  1.0000
  C   C1        1.0  0.06365  0.01636  0.71394  1.0000
  C   C2        1.0  0.93635  0.98364  0.28606  1.0000
  C   C3        1.0  0.14665  0.07308  0.85233  1.0000
  C   C4        1.0  0.85335  0.92693  0.14767  1.0000
  C   C5        1.0  0.16608  0.23352  0.93071  1.0000
  C   C6        1.0  0.83393  0.76649  0.06929  1.0000
  C   C7        1.0  0.19253  0.30827  0.56021  1.0000
  C   C8        1.0  0.80746  0.69174  0.43980  1.0000
  C   C9        1.0  0.09566  0.20450  0.61100  1.0000
  C   C10       1.0  0.90434  0.79551  0.38901  1.0000
  C   C11       1.0  0.16042  0.12077  0.65009  1.0000
  C   C12       1.0  0.83958  0.87923  0.34992  1.0000
  C   C13       1.0  0.32384  0.14513  0.63269  1.0000
  C   C14       1.0  0.67615  0.85486  0.36732  1.0000
  C   C15       1.0  0.41422  0.25094  0.58202  1.0000
  C   C16       1.0  0.58579  0.74906  0.41797  1.0000
  C   C17       1.0  0.47586  0.37128  0.22973  1.0000
  C   C18       1.0  0.52414  0.62871  0.77027  1.0000
  C   C19       1.0  0.40739  0.31673  0.10294  1.0000
  C   C20       1.0  0.59262  0.68328  0.89706  1.0000
  C   C21       1.0  0.24237  0.28919  0.06700  1.0000
  C   C22       1.0  0.75763  0.71082  0.93300  1.0000
  C   C23       1.0  0.15336  0.31658  0.16461  1.0000
  C   C24       1.0  0.84665  0.68342  0.83539  1.0000
  C   C25       1.0  0.22956  0.37213  0.29003  1.0000
  C   C26       1.0  0.77045  0.62786  0.70997  1.0000
  N   N1        1.0  0.35120  0.33351  0.54635  1.0000
  N   N2        1.0  0.64880  0.66649  0.45365  1.0000
  N   N3        1.0  0.38923  0.40039  0.32360  1.0000
  N   N4        1.0  0.61077  0.59961  0.67640  1.0000
  Cl  Cl1       1.0  0.27344  0.74369  0.61038  1.0000
  Cl  Cl2       1.0  0.72654  0.25630  0.38961  1.0000
  O   O1        1.0  0.30694  0.60906  0.55193  1.0000
  O   O2        1.0  0.69304  0.39093  0.44807  1.0000
  O   O3        1.0  0.22614  0.78329  0.50935  1.0000
  O   O4        1.0  0.77389  0.21671  0.49064  1.0000
  O   O5        1.0  0.13671  0.70181  0.67914  1.0000
  O   O6        1.0  0.86324  0.29816  0.32082  1.0000
  O   O7        1.0  0.42303  0.86962  0.69626  1.0000
  O   O8        1.0  0.57693  0.13035  0.30375  1.0000
