data_image0
_chemical_formula_structural       Zn2H28C40N6O8
_chemical_formula_sum              "Zn2 H28 C40 N6 O8"
_cell_length_a       8.4825
_cell_length_b       9.02014
_cell_length_c       11.3752
_cell_angle_alpha    88.1558
_cell_angle_beta     74.5031
_cell_angle_gamma    72.2436

_space_group_name_H-M_alt    "P 1"
_space_group_IT_number       1

loop_
  _space_group_symop_operation_xyz
  'x, y, z'

loop_
  _atom_site_type_symbol
  _atom_site_label
  _atom_site_symmetry_multiplicity
  _atom_site_fract_x
  _atom_site_fract_y
  _atom_site_fract_z
  _atom_site_occupancy
  Zn  Zn1       1.0  0.53840  0.08958  0.85293  1.0000
  Zn  Zn2       1.0  0.46160  0.91042  0.14707  1.0000
  H   H1        1.0  0.12949  0.07567  0.88426  1.0000
  H   H2        1.0  0.87051  0.92434  0.11574  1.0000
  H   H3        1.0  0.90488  0.23756  0.79153  1.0000
  H   H4        1.0  0.09513  0.76244  0.20846  1.0000
  H   H5        1.0  0.69264  0.48477  0.90098  1.0000
  H   H6        1.0  0.30736  0.51522  0.09902  1.0000
  H   H7        1.0  0.92400  0.39301  0.19924  1.0000
  H   H8        1.0  0.07599  0.60699  0.80076  1.0000
  H   H9        1.0  0.31474  0.82068  0.90962  1.0000
  H   H10       1.0  0.68527  0.17932  0.09039  1.0000
  H   H11       1.0  0.40618  0.59786  0.71707  1.0000
  H   H12       1.0  0.59383  0.40214  0.28294  1.0000
  H   H13       1.0  0.74824  0.87069  0.41022  1.0000
  H   H14       1.0  0.25176  0.12931  0.58978  1.0000
  H   H15       1.0  0.90932  0.05588  0.31980  1.0000
  H   H16       1.0  0.09068  0.94411  0.68020  1.0000
  H   H17       1.0  0.90671  0.27104  0.45111  1.0000
  H   H18       1.0  0.09329  0.72896  0.54889  1.0000
  H   H19       1.0  0.73762  0.29770  0.67244  1.0000
  H   H20       1.0  0.26239  0.70229  0.32755  1.0000
  H   H21       1.0  0.57693  0.56103  0.51622  1.0000
  H   H22       1.0  0.42306  0.43897  0.48378  1.0000
  H   H23       1.0  0.62158  0.71553  0.43180  1.0000
  H   H24       1.0  0.37842  0.28447  0.56820  1.0000
  H   H25       1.0  0.90713  0.57626  0.31135  1.0000
  H   H26       1.0  0.09286  0.42374  0.68865  1.0000
  H   H27       1.0  0.78692  0.56519  0.70325  1.0000
  H   H28       1.0  0.21307  0.43481  0.29675  1.0000
  C   C1        1.0  0.16814  0.13039  0.11353  1.0000
  C   C2        1.0  0.83186  0.86961  0.88648  1.0000
  C   C3        1.0  0.04126  0.22486  0.04819  1.0000
  C   C4        1.0  0.95874  0.77514  0.95181  1.0000
  C   C5        1.0  0.03590  0.18170  0.93256  1.0000
  C   C6        1.0  0.96410  0.81830  0.06744  1.0000
  C   C7        1.0  0.90962  0.27401  0.88058  1.0000
  C   C8        1.0  0.09039  0.72599  0.11942  1.0000
  C   C9        1.0  0.79120  0.41175  0.94093  1.0000
  C   C10       1.0  0.20880  0.58825  0.05907  1.0000
  C   C11       1.0  0.79680  0.45689  0.05623  1.0000
  C   C12       1.0  0.20320  0.54311  0.94377  1.0000
  C   C13       1.0  0.92018  0.36142  0.10895  1.0000
  C   C14       1.0  0.07982  0.63858  0.89105  1.0000
  C   C15       1.0  0.67533  0.60490  0.12571  1.0000
  C   C16       1.0  0.32467  0.39509  0.87429  1.0000
  C   C17       1.0  0.39394  0.81510  0.81680  1.0000
  C   C18       1.0  0.60606  0.18490  0.18320  1.0000
  C   C19       1.0  0.43942  0.70413  0.72310  1.0000
  C   C20       1.0  0.56058  0.29587  0.27690  1.0000
  C   C21       1.0  0.56339  0.88694  0.65943  1.0000
  C   C22       1.0  0.43661  0.11307  0.34057  1.0000
  C   C23       1.0  0.66354  0.98334  0.59201  1.0000
  C   C24       1.0  0.33646  0.01666  0.40799  1.0000
  C   C25       1.0  0.74950  0.96445  0.46710  1.0000
  C   C26       1.0  0.25050  0.03555  0.53290  1.0000
  C   C27       1.0  0.83839  0.06799  0.41588  1.0000
  C   C28       1.0  0.16161  0.93201  0.58412  1.0000
  C   C29       1.0  0.83706  0.18959  0.48901  1.0000
  C   C30       1.0  0.16294  0.81040  0.51099  1.0000
  C   C31       1.0  0.74588  0.20277  0.61185  1.0000
  C   C32       1.0  0.25413  0.79723  0.38815  1.0000
  C   C33       1.0  0.63913  0.65216  0.51352  1.0000
  C   C34       1.0  0.36087  0.34785  0.48649  1.0000
  C   C35       1.0  0.94883  0.54325  0.39381  1.0000
  C   C36       1.0  0.05117  0.45675  0.60619  1.0000
  C   C37       1.0  0.82676  0.57796  0.50755  1.0000
  C   C38       1.0  0.17323  0.42204  0.49245  1.0000
  C   C39       1.0  0.12062  0.46481  0.38632  1.0000
  C   C40       1.0  0.87937  0.53519  0.61368  1.0000
  N   N1        1.0  0.47049  0.92724  0.77590  1.0000
  N   N2        1.0  0.52951  0.07276  0.22410  1.0000
  N   N3        1.0  0.66418  0.10149  0.66278  1.0000
  N   N4        1.0  0.33582  0.89851  0.33722  1.0000
  N   N5        1.0  0.54575  0.75053  0.62480  1.0000
  N   N6        1.0  0.45425  0.24947  0.37520  1.0000
  O   O1        1.0  0.14035  0.15999  0.22498  1.0000
  O   O2        1.0  0.85965  0.84001  0.77502  1.0000
  O   O3        1.0  0.30052  0.01987  0.04952  1.0000
  O   O4        1.0  0.69948  0.98013  0.95048  1.0000
  O   O5        1.0  0.58600  0.70456  0.06485  1.0000
  O   O6        1.0  0.41400  0.29544  0.93515  1.0000
  O   O7        1.0  0.66656  0.62519  0.23628  1.0000
  O   O8        1.0  0.33344  0.37481  0.76373  1.0000
