data_image0
_chemical_formula_structural       H24Pb2C38S2N2O12
_chemical_formula_sum              "H24 Pb2 C38 S2 N2 O12"
_cell_length_a       7.75778
_cell_length_b       10.4773
_cell_length_c       12.1332
_cell_angle_alpha    110.846
_cell_angle_beta     94.8553
_cell_angle_gamma    106.104

_space_group_name_H-M_alt    "P 1"
_space_group_IT_number       1

loop_
  _space_group_symop_operation_xyz
  'x, y, z'

loop_
  _atom_site_type_symbol
  _atom_site_label
  _atom_site_symmetry_multiplicity
  _atom_site_fract_x
  _atom_site_fract_y
  _atom_site_fract_z
  _atom_site_occupancy
  H   H1        1.0  0.72288  0.09363  0.23880  1.0000
  H   H2        1.0  0.27720  0.90639  0.76117  1.0000
  H   H3        1.0  0.60488  0.90795  0.31831  1.0000
  H   H4        1.0  0.39518  0.09207  0.68165  1.0000
  H   H5        1.0  0.47894  0.23375  0.60725  1.0000
  H   H6        1.0  0.52128  0.76630  0.39277  1.0000
  H   H7        1.0  0.60612  0.40567  0.51658  1.0000
  H   H8        1.0  0.39408  0.59437  0.48344  1.0000
  H   H9        1.0  0.28117  0.49850  0.18662  1.0000
  H   H10       1.0  0.71885  0.50140  0.81329  1.0000
  H   H11       1.0  0.07459  0.60675  0.10879  1.0000
  H   H12       1.0  0.92536  0.39315  0.89114  1.0000
  H   H13       1.0  0.53461  0.86551  0.01933  1.0000
  H   H14       1.0  0.46539  0.13461  0.98080  1.0000
  H   H15       1.0  0.73355  0.74037  0.08211  1.0000
  H   H16       1.0  0.26645  0.25968  0.91791  1.0000
  H   H17       1.0  0.00140  0.80399  0.21866  1.0000
  H   H18       1.0  0.99844  0.19598  0.78131  1.0000
  H   H19       1.0  0.98485  0.98937  0.40807  1.0000
  H   H20       1.0  0.01502  0.01059  0.59193  1.0000
  H   H21       1.0  0.26617  0.32714  0.29815  1.0000
  H   H22       1.0  0.73364  0.67283  0.70184  1.0000
  H   H23       1.0  0.28687  0.14177  0.10801  1.0000
  H   H24       1.0  0.71292  0.85822  0.89196  1.0000
  Pb  Pb1       1.0  0.88181  0.45409  0.31510  1.0000
  Pb  Pb2       1.0  0.11831  0.54600  0.68490  1.0000
  C   C1        1.0  0.66893  0.12048  0.32119  1.0000
  C   C2        1.0  0.33118  0.87955  0.67881  1.0000
  C   C3        1.0  0.60153  0.01647  0.36680  1.0000
  C   C4        1.0  0.39857  0.98356  0.63318  1.0000
  C   C5        1.0  0.53392  0.05328  0.47329  1.0000
  C   C6        1.0  0.46618  0.94674  0.52669  1.0000
  C   C7        1.0  0.53305  0.19608  0.52634  1.0000
  C   C8        1.0  0.46712  0.80397  0.47368  1.0000
  C   C9        1.0  0.60336  0.29400  0.47556  1.0000
  C   C10       1.0  0.39680  0.70604  0.52444  1.0000
  C   C11       1.0  0.64668  0.55407  0.18977  1.0000
  C   C12       1.0  0.35333  0.44592  0.81021  1.0000
  C   C13       1.0  0.52089  0.61806  0.14376  1.0000
  C   C14       1.0  0.47910  0.38192  0.85621  1.0000
  C   C15       1.0  0.33561  0.57989  0.15114  1.0000
  C   C16       1.0  0.66438  0.42004  0.84883  1.0000
  C   C17       1.0  0.22062  0.64049  0.10850  1.0000
  C   C18       1.0  0.77938  0.35947  0.89148  1.0000
  C   C19       1.0  0.29628  0.74432  0.06319  1.0000
  C   C20       1.0  0.70369  0.25569  0.93687  1.0000
  C   C21       1.0  0.48047  0.78387  0.05472  1.0000
  C   C22       1.0  0.51954  0.21620  0.94535  1.0000
  C   C23       1.0  0.59167  0.71724  0.09254  1.0000
  C   C24       1.0  0.40835  0.28278  0.90748  1.0000
  C   C25       1.0  0.14431  0.96320  0.15207  1.0000
  C   C26       1.0  0.85559  0.03678  0.84794  1.0000
  C   C27       1.0  0.05977  0.91835  0.23582  1.0000
  C   C28       1.0  0.94010  0.08161  0.76417  1.0000
  C   C29       1.0  0.04947  0.02278  0.34212  1.0000
  C   C30       1.0  0.95039  0.97718  0.65788  1.0000
  C   C31       1.0  0.12043  0.17018  0.36401  1.0000
  C   C32       1.0  0.87948  0.82978  0.63599  1.0000
  C   C33       1.0  0.20656  0.21270  0.27983  1.0000
  C   C34       1.0  0.79328  0.78727  0.72017  1.0000
  C   C35       1.0  0.22024  0.10919  0.17359  1.0000
  C   C36       1.0  0.77960  0.89078  0.82639  1.0000
  C   C37       1.0  0.10224  0.28158  0.47696  1.0000
  C   C38       1.0  0.89773  0.71840  0.52307  1.0000
  S   S1        1.0  0.15445  0.82907  0.01511  1.0000
  S   S2        1.0  0.84552  0.17092  0.98490  1.0000
  N   N1        1.0  0.67317  0.25816  0.37532  1.0000
  N   N2        1.0  0.32694  0.74186  0.62465  1.0000
  O   O1        1.0  0.80306  0.57172  0.16279  1.0000
  O   O2        1.0  0.19696  0.42828  0.83721  1.0000
  O   O3        1.0  0.59127  0.48626  0.25745  1.0000
  O   O4        1.0  0.40876  0.51375  0.74257  1.0000
  O   O5        1.0  0.05103  0.24866  0.56163  1.0000
  O   O6        1.0  0.94892  0.75132  0.43839  1.0000
  O   O7        1.0  0.14079  0.41259  0.48118  1.0000
  O   O8        1.0  0.85928  0.58741  0.51886  1.0000
  O   O9        1.0  0.97202  0.72336  0.96167  1.0000
  O   O10       1.0  0.02801  0.27662  0.03832  1.0000
  O   O11       1.0  0.24842  0.90117  0.94361  1.0000
  O   O12       1.0  0.75161  0.09887  0.05646  1.0000
