data_image0
_chemical_formula_structural       MnH14C14N12O4
_chemical_formula_sum              "Mn1 H14 C14 N12 O4"
_cell_length_a       7.90443
_cell_length_b       7.85338
_cell_length_c       7.86299
_cell_angle_alpha    106.822
_cell_angle_beta     104.805
_cell_angle_gamma    93.4146

_space_group_name_H-M_alt    "P 1"
_space_group_IT_number       1

loop_
  _space_group_symop_operation_xyz
  'x, y, z'

loop_
  _atom_site_type_symbol
  _atom_site_label
  _atom_site_symmetry_multiplicity
  _atom_site_fract_x
  _atom_site_fract_y
  _atom_site_fract_z
  _atom_site_occupancy
  Mn  Mn1       1.0  0.00000  0.00000  0.00000  1.0000
  H   H1        1.0  0.18349  0.62584  0.59043  1.0000
  H   H2        1.0  0.81651  0.37416  0.40957  1.0000
  H   H3        1.0  0.41458  0.68779  0.67521  1.0000
  H   H4        1.0  0.58542  0.31221  0.32479  1.0000
  H   H5        1.0  0.45686  0.43319  0.79641  1.0000
  H   H6        1.0  0.54314  0.56681  0.20359  1.0000
  H   H7        1.0  0.39420  0.95643  0.26425  1.0000
  H   H8        1.0  0.60580  0.04357  0.73575  1.0000
  H   H9        1.0  0.08529  0.37690  0.34139  1.0000
  H   H10       1.0  0.91471  0.62310  0.65861  1.0000
  H   H11       1.0  0.80589  0.28501  0.79528  1.0000
  H   H12       1.0  0.19410  0.71499  0.20472  1.0000
  H   H13       1.0  0.33908  0.19428  0.91442  1.0000
  H   H14       1.0  0.66092  0.80572  0.08558  1.0000
  C   C1        1.0  0.28102  0.74601  0.88845  1.0000
  C   C2        1.0  0.71898  0.25399  0.11155  1.0000
  C   C3        1.0  0.29950  0.62788  0.70306  1.0000
  C   C4        1.0  0.70050  0.37212  0.29694  1.0000
  C   C5        1.0  0.32785  0.43811  0.70506  1.0000
  C   C6        1.0  0.67215  0.56189  0.29494  1.0000
  C   C7        1.0  0.34484  0.07768  0.32893  1.0000
  C   C8        1.0  0.65516  0.92232  0.67107  1.0000
  C   C9        1.0  0.18439  0.28939  0.36261  1.0000
  C   C10       1.0  0.81561  0.71061  0.63739  1.0000
  C   C11       1.0  0.94468  0.28884  0.79992  1.0000
  C   C12       1.0  0.05532  0.71116  0.20008  1.0000
  C   C13       1.0  0.21390  0.23945  0.86573  1.0000
  C   C14       1.0  0.78610  0.76055  0.13427  1.0000
  N   N1        1.0  0.41943  0.18409  0.50098  1.0000
  N   N2        1.0  0.58057  0.81591  0.49902  1.0000
  N   N3        1.0  0.31770  0.31930  0.51997  1.0000
  N   N4        1.0  0.68230  0.68070  0.48003  1.0000
  N   N5        1.0  0.19703  0.13597  0.23883  1.0000
  N   N6        1.0  0.80297  0.86403  0.76117  1.0000
  N   N7        1.0  0.02495  0.39121  0.72780  1.0000
  N   N8        1.0  0.97505  0.60879  0.27221  1.0000
  N   N9        1.0  0.19550  0.35963  0.77213  1.0000
  N   N10       1.0  0.80450  0.64037  0.22787  1.0000
  N   N11       1.0  0.05618  0.19159  0.88606  1.0000
  N   N12       1.0  0.94382  0.80841  0.11394  1.0000
  O   O1        1.0  0.16584  0.85300  0.87290  1.0000
  O   O2        1.0  0.83415  0.14700  0.12710  1.0000
  O   O3        1.0  0.37765  0.72999  0.03598  1.0000
  O   O4        1.0  0.62235  0.27001  0.96402  1.0000
