data_image0
_chemical_formula_structural       Zn2H28C28N24O8
_chemical_formula_sum              "Zn2 H28 C28 N24 O8"
_cell_length_a       6.09585
_cell_length_b       11.8977
_cell_length_c       13.4823
_cell_angle_alpha    92.8834
_cell_angle_beta     90.0007
_cell_angle_gamma    104.828

_space_group_name_H-M_alt    "P 1"
_space_group_IT_number       1

loop_
  _space_group_symop_operation_xyz
  'x, y, z'

loop_
  _atom_site_type_symbol
  _atom_site_label
  _atom_site_symmetry_multiplicity
  _atom_site_fract_x
  _atom_site_fract_y
  _atom_site_fract_z
  _atom_site_occupancy
  Zn  Zn1       1.0  0.05704  0.00004  0.75009  1.0000
  Zn  Zn2       1.0  0.94295  0.99997  0.24991  1.0000
  H   H1        1.0  0.49551  0.62482  0.13587  1.0000
  H   H2        1.0  0.87218  0.37546  0.36410  1.0000
  H   H3        1.0  0.50450  0.37518  0.86413  1.0000
  H   H4        1.0  0.12782  0.62455  0.63591  1.0000
  H   H5        1.0  0.36215  0.73869  0.11547  1.0000
  H   H6        1.0  0.62461  0.26169  0.38432  1.0000
  H   H7        1.0  0.63786  0.26131  0.88453  1.0000
  H   H8        1.0  0.37539  0.73831  0.61568  1.0000
  H   H9        1.0  0.64782  0.62605  0.97121  1.0000
  H   H10       1.0  0.02242  0.37407  0.52886  1.0000
  H   H11       1.0  0.35219  0.37395  0.02879  1.0000
  H   H12       1.0  0.97757  0.62593  0.47115  1.0000
  H   H13       1.0  0.88866  0.75040  0.84807  1.0000
  H   H14       1.0  0.13860  0.24965  0.65214  1.0000
  H   H15       1.0  0.11136  0.24961  0.15194  1.0000
  H   H16       1.0  0.86140  0.75034  0.34786  1.0000
  H   H17       1.0  0.62817  0.04558  0.88809  1.0000
  H   H18       1.0  0.58321  0.95451  0.61170  1.0000
  H   H19       1.0  0.37179  0.95441  0.11190  1.0000
  H   H20       1.0  0.41677  0.04550  0.38830  1.0000
  H   H21       1.0  0.01746  0.45674  0.77478  1.0000
  H   H22       1.0  0.56095  0.54304  0.72537  1.0000
  H   H23       1.0  0.98255  0.54326  0.22522  1.0000
  H   H24       1.0  0.43904  0.45696  0.27464  1.0000
  H   H25       1.0  0.06572  0.69602  0.01904  1.0000
  H   H26       1.0  0.37046  0.30399  0.48087  1.0000
  H   H27       1.0  0.93428  0.30397  0.98096  1.0000
  H   H28       1.0  0.62954  0.69601  0.51914  1.0000
  C   C1        1.0  0.72250  0.79682  0.14133  1.0000
  C   C2        1.0  0.92662  0.20335  0.35853  1.0000
  C   C3        1.0  0.27752  0.20319  0.85867  1.0000
  C   C4        1.0  0.07338  0.79666  0.64146  1.0000
  C   C5        1.0  0.51257  0.70709  0.09915  1.0000
  C   C6        1.0  0.80658  0.29318  0.40074  1.0000
  C   C7        1.0  0.48744  0.29291  0.90085  1.0000
  C   C8        1.0  0.19342  0.70683  0.59926  1.0000
  C   C9        1.0  0.53036  0.68050  0.98782  1.0000
  C   C10       1.0  0.85065  0.31964  0.51207  1.0000
  C   C11       1.0  0.46965  0.31950  0.01218  1.0000
  C   C12       1.0  0.14935  0.68035  0.48793  1.0000
  C   C13       1.0  0.79189  0.81143  0.87199  1.0000
  C   C14       1.0  0.98082  0.18868  0.62810  1.0000
  C   C15       1.0  0.20812  0.18858  0.12802  1.0000
  C   C16       1.0  0.01917  0.81132  0.37190  1.0000
  C   C17       1.0  0.65393  0.95941  0.89407  1.0000
  C   C18       1.0  0.69513  0.04070  0.60584  1.0000
  C   C19       1.0  0.34605  0.04058  0.10592  1.0000
  C   C20       1.0  0.30485  0.95931  0.39417  1.0000
  C   C21       1.0  0.08510  0.51618  0.83768  1.0000
  C   C22       1.0  0.56943  0.48367  0.66240  1.0000
  C   C23       1.0  0.91491  0.48381  0.16231  1.0000
  C   C24       1.0  0.43057  0.51633  0.33761  1.0000
  C   C25       1.0  0.10470  0.63760  0.96048  1.0000
  C   C26       1.0  0.46772  0.36238  0.53949  1.0000
  C   C27       1.0  0.89531  0.36240  0.03952  1.0000
  C   C28       1.0  0.53228  0.63762  0.46051  1.0000
  N   N1        1.0  0.52700  0.87996  0.94966  1.0000
  N   N2        1.0  0.64786  0.12015  0.55013  1.0000
  N   N3        1.0  0.47298  0.12004  0.05033  1.0000
  N   N4        1.0  0.35214  0.87985  0.44987  1.0000
  N   N5        1.0  0.61751  0.78708  0.93476  1.0000
  N   N6        1.0  0.83117  0.21300  0.56511  1.0000
  N   N7        1.0  0.38248  0.21292  0.06524  1.0000
  N   N8        1.0  0.16883  0.78699  0.43489  1.0000
  N   N9        1.0  0.82008  0.92073  0.84526  1.0000
  N   N10       1.0  0.89962  0.07941  0.65485  1.0000
  N   N11       1.0  0.17992  0.07928  0.15474  1.0000
  N   N12       1.0  0.10037  0.92058  0.34514  1.0000
  N   N13       1.0  0.30249  0.54152  0.86513  1.0000
  N   N14       1.0  0.76153  0.45846  0.63484  1.0000
  N   N15       1.0  0.69752  0.45848  0.13487  1.0000
  N   N16       1.0  0.23847  0.54154  0.36516  1.0000
  N   N17       1.0  0.31175  0.61863  0.94453  1.0000
  N   N18       1.0  0.69379  0.38148  0.55534  1.0000
  N   N19       1.0  0.68826  0.38137  0.05547  1.0000
  N   N20       1.0  0.30621  0.61852  0.44466  1.0000
  N   N21       1.0  0.95656  0.57348  0.89402  1.0000
  N   N22       1.0  0.38362  0.42636  0.60606  1.0000
  N   N23       1.0  0.04345  0.42651  0.10598  1.0000
  N   N24       1.0  0.61638  0.57364  0.39395  1.0000
  O   O1        1.0  0.67694  0.87628  0.20116  1.0000
  O   O2        1.0  0.80112  0.12382  0.29888  1.0000
  O   O3        1.0  0.32307  0.12372  0.79883  1.0000
  O   O4        1.0  0.19887  0.87619  0.70112  1.0000
  O   O5        1.0  0.91754  0.79008  0.11806  1.0000
  O   O6        1.0  0.12852  0.21007  0.38153  1.0000
  O   O7        1.0  0.08248  0.20992  0.88194  1.0000
  O   O8        1.0  0.87148  0.78993  0.61847  1.0000
