data_image0
_chemical_formula_structural       H40Pb2C40O10
_chemical_formula_sum              "H40 Pb2 C40 O10"
_cell_length_a       7.14155
_cell_length_b       8.56667
_cell_length_c       15.5976
_cell_angle_alpha    102.33
_cell_angle_beta     89.9995
_cell_angle_gamma    90.0001

_space_group_name_H-M_alt    "P 1"
_space_group_IT_number       1

loop_
  _space_group_symop_operation_xyz
  'x, y, z'

loop_
  _atom_site_type_symbol
  _atom_site_label
  _atom_site_symmetry_multiplicity
  _atom_site_fract_x
  _atom_site_fract_y
  _atom_site_fract_z
  _atom_site_occupancy
  H   H1        1.0  0.34647  0.43016  0.65010  1.0000
  H   H2        1.0  0.84648  0.56984  0.34990  1.0000
  H   H3        1.0  0.57200  0.43171  0.65146  1.0000
  H   H4        1.0  0.07200  0.56830  0.34854  1.0000
  H   H5        1.0  0.34287  0.92740  0.61381  1.0000
  H   H6        1.0  0.84287  0.07261  0.38619  1.0000
  H   H7        1.0  0.54694  0.72899  0.70485  1.0000
  H   H8        1.0  0.04694  0.27100  0.29514  1.0000
  H   H9        1.0  0.46369  0.92211  0.75233  1.0000
  H   H10       1.0  0.96368  0.07789  0.24767  1.0000
  H   H11       1.0  0.85721  0.83775  0.82247  1.0000
  H   H12       1.0  0.35722  0.16224  0.17753  1.0000
  H   H13       1.0  0.16158  0.97485  0.82214  1.0000
  H   H14       1.0  0.66158  0.02514  0.17786  1.0000
  H   H15       1.0  0.22561  0.14091  0.71167  1.0000
  H   H16       1.0  0.72560  0.85908  0.28833  1.0000
  H   H17       1.0  0.98845  0.16289  0.59930  1.0000
  H   H18       1.0  0.48843  0.83711  0.40069  1.0000
  H   H19       1.0  0.55837  0.12622  0.59634  1.0000
  H   H20       1.0  0.05836  0.87379  0.40365  1.0000
  H   H21       1.0  0.66703  0.97657  0.51578  1.0000
  H   H22       1.0  0.16701  0.02344  0.48421  1.0000
  H   H23       1.0  0.35162  0.68261  0.20853  1.0000
  H   H24       1.0  0.85163  0.31738  0.79147  1.0000
  H   H25       1.0  0.59859  0.66285  0.10376  1.0000
  H   H26       1.0  0.09860  0.33715  0.89625  1.0000
  H   H27       1.0  0.72117  0.57832  0.18137  1.0000
  H   H28       1.0  0.22117  0.42168  0.81863  1.0000
  H   H29       1.0  0.88179  0.37600  0.03018  1.0000
  H   H30       1.0  0.38180  0.62399  0.96981  1.0000
  H   H31       1.0  0.81713  0.11822  0.92478  1.0000
  H   H32       1.0  0.31713  0.88177  0.07522  1.0000
  H   H33       1.0  0.49624  0.00491  0.91050  1.0000
  H   H34       1.0  0.99625  0.99509  0.08950  1.0000
  H   H35       1.0  0.23587  0.14562  0.00106  1.0000
  H   H36       1.0  0.73588  0.85439  0.99894  1.0000
  H   H37       1.0  0.19017  0.38043  0.16561  1.0000
  H   H38       1.0  0.69018  0.61956  0.83439  1.0000
  H   H39       1.0  0.18813  0.51339  0.09329  1.0000
  H   H40       1.0  0.68813  0.48661  0.90671  1.0000
  Pb  Pb1       1.0  0.47431  0.38159  0.44336  1.0000
  Pb  Pb2       1.0  0.97431  0.61839  0.55664  1.0000
  C   C1        1.0  0.48601  0.72536  0.54316  1.0000
  C   C2        1.0  0.98601  0.27465  0.45683  1.0000
  C   C3        1.0  0.48702  0.88304  0.60906  1.0000
  C   C4        1.0  0.98702  0.11697  0.39093  1.0000
  C   C5        1.0  0.55411  0.85498  0.70006  1.0000
  C   C6        1.0  0.05410  0.14502  0.29993  1.0000
  C   C7        1.0  0.75070  0.92039  0.70966  1.0000
  C   C8        1.0  0.25069  0.07961  0.29033  1.0000
  C   C9        1.0  0.88472  0.90716  0.77292  1.0000
  C   C10       1.0  0.38472  0.09284  0.22707  1.0000
  C   C11       1.0  0.05682  0.98506  0.77273  1.0000
  C   C12       1.0  0.55683  0.01494  0.22727  1.0000
  C   C13       1.0  0.09360  0.07636  0.71022  1.0000
  C   C14       1.0  0.59360  0.92364  0.28978  1.0000
  C   C15       1.0  0.96008  0.08833  0.64626  1.0000
  C   C16       1.0  0.46008  0.91168  0.35374  1.0000
  C   C17       1.0  0.78912  0.00901  0.64569  1.0000
  C   C18       1.0  0.28912  0.99100  0.35431  1.0000
  C   C19       1.0  0.62478  0.00749  0.58508  1.0000
  C   C20       1.0  0.12477  0.99252  0.41491  1.0000
  C   C21       1.0  0.44365  0.51033  0.27764  1.0000
  C   C22       1.0  0.94366  0.48967  0.72236  1.0000
  C   C23       1.0  0.41444  0.56292  0.19077  1.0000
  C   C24       1.0  0.91445  0.43708  0.80923  1.0000
  C   C25       1.0  0.59775  0.56360  0.13855  1.0000
  C   C26       1.0  0.09776  0.43640  0.86145  1.0000
  C   C27       1.0  0.59419  0.40579  0.07381  1.0000
  C   C28       1.0  0.09420  0.59420  0.92619  1.0000
  C   C29       1.0  0.74074  0.32566  0.02387  1.0000
  C   C30       1.0  0.24075  0.67434  0.97613  1.0000
  C   C31       1.0  0.70431  0.18149  0.96475  1.0000
  C   C32       1.0  0.20433  0.81851  0.03525  1.0000
  C   C33       1.0  0.52296  0.11821  0.95624  1.0000
  C   C34       1.0  0.02297  0.88178  0.04376  1.0000
  C   C35       1.0  0.37606  0.19764  0.00701  1.0000
  C   C36       1.0  0.87607  0.80236  0.99299  1.0000
  C   C37       1.0  0.41268  0.34113  0.06629  1.0000
  C   C38       1.0  0.91268  0.65886  0.93371  1.0000
  C   C39       1.0  0.28097  0.44651  0.12888  1.0000
  C   C40       1.0  0.78097  0.55349  0.87112  1.0000
  O   O1        1.0  0.45969  0.38300  0.61893  1.0000
  O   O2        1.0  0.95970  0.61701  0.38107  1.0000
  O   O3        1.0  0.63905  0.66086  0.51151  1.0000
  O   O4        1.0  0.13905  0.33914  0.48850  1.0000
  O   O5        1.0  0.33109  0.65487  0.52032  1.0000
  O   O6        1.0  0.83110  0.34514  0.47967  1.0000
  O   O7        1.0  0.60738  0.49078  0.30572  1.0000
  O   O8        1.0  0.10738  0.50922  0.69428  1.0000
  O   O9        1.0  0.29622  0.48654  0.32011  1.0000
  O   O10       1.0  0.79622  0.51344  0.67989  1.0000
