data_image0
_chemical_formula_structural       CuH22C30N8Cl4O4
_chemical_formula_sum              "Cu1 H22 C30 N8 Cl4 O4"
_cell_length_a       7.68227
_cell_length_b       7.96753
_cell_length_c       12.9504
_cell_angle_alpha    76.7034
_cell_angle_beta     90.595
_cell_angle_gamma    74.143

_space_group_name_H-M_alt    "P 1"
_space_group_IT_number       1

loop_
  _space_group_symop_operation_xyz
  'x, y, z'

loop_
  _atom_site_type_symbol
  _atom_site_label
  _atom_site_symmetry_multiplicity
  _atom_site_fract_x
  _atom_site_fract_y
  _atom_site_fract_z
  _atom_site_occupancy
  Cu  Cu1       1.0  0.50000  0.50000  0.50000  1.0000
  H   H1        1.0  0.67468  0.15437  0.77037  1.0000
  H   H2        1.0  0.32533  0.84564  0.22962  1.0000
  H   H3        1.0  0.88105  0.98138  0.81777  1.0000
  H   H4        1.0  0.11895  0.01861  0.18223  1.0000
  H   H5        1.0  0.50533  0.91639  0.80072  1.0000
  H   H6        1.0  0.49465  0.08365  0.19927  1.0000
  H   H7        1.0  0.61747  0.92540  0.91944  1.0000
  H   H8        1.0  0.38251  0.07463  0.08055  1.0000
  H   H9        1.0  0.71276  0.75056  0.85473  1.0000
  H   H10       1.0  0.28721  0.24946  0.14526  1.0000
  H   H11       1.0  0.95532  0.79991  0.34876  1.0000
  H   H12       1.0  0.04470  0.20007  0.65125  1.0000
  H   H13       1.0  0.79457  0.01374  0.29243  1.0000
  H   H14       1.0  0.20544  0.98625  0.70756  1.0000
  H   H15       1.0  0.72105  0.81963  0.34329  1.0000
  H   H16       1.0  0.27896  0.18035  0.65672  1.0000
  H   H17       1.0  0.14261  0.50920  0.32153  1.0000
  H   H18       1.0  0.85738  0.49079  0.67848  1.0000
  H   H19       1.0  0.56154  0.62896  0.04190  1.0000
  H   H20       1.0  0.43845  0.37104  0.95810  1.0000
  H   H21       1.0  0.68750  0.44541  0.22454  1.0000
  H   H22       1.0  0.31249  0.55458  0.77546  1.0000
  C   C1        1.0  0.68502  0.08823  0.47900  1.0000
  C   C2        1.0  0.31499  0.91177  0.52099  1.0000
  C   C3        1.0  0.66678  0.11926  0.58495  1.0000
  C   C4        1.0  0.33323  0.88074  0.41504  1.0000
  C   C5        1.0  0.90570  0.83735  0.65741  1.0000
  C   C6        1.0  0.09430  0.16265  0.34260  1.0000
  C   C7        1.0  0.91906  0.81040  0.55014  1.0000
  C   C8        1.0  0.08095  0.18960  0.44986  1.0000
  C   C9        1.0  0.80811  0.92792  0.46313  1.0000
  C   C10       1.0  0.19191  0.07207  0.53687  1.0000
  C   C11       1.0  0.74500  0.01253  0.77862  1.0000
  C   C12       1.0  0.25500  0.98748  0.22138  1.0000
  C   C13       1.0  0.63853  0.89331  0.84160  1.0000
  C   C14       1.0  0.36145  0.10672  0.15839  1.0000
  C   C15       1.0  0.06210  0.66270  0.53868  1.0000
  C   C16       1.0  0.93790  0.33731  0.46133  1.0000
  C   C17       1.0  0.82191  0.88979  0.35536  1.0000
  C   C18       1.0  0.17810  0.11020  0.64465  1.0000
  C   C19       1.0  0.42172  0.46609  0.28289  1.0000
  C   C20       1.0  0.57828  0.53391  0.71712  1.0000
  C   C21       1.0  0.23419  0.53404  0.26018  1.0000
  C   C22       1.0  0.76580  0.46596  0.73983  1.0000
  C   C23       1.0  0.16424  0.62934  0.15692  1.0000
  C   C24       1.0  0.83576  0.37065  0.84309  1.0000
  C   C25       1.0  0.28307  0.66474  0.07818  1.0000
  C   C26       1.0  0.71692  0.33526  0.92182  1.0000
  C   C27       1.0  0.47091  0.60004  0.10339  1.0000
  C   C28       1.0  0.52909  0.39997  0.89662  1.0000
  C   C29       1.0  0.54128  0.49842  0.20499  1.0000
  C   C30       1.0  0.45871  0.50158  0.79501  1.0000
  N   N1        1.0  0.76856  0.98849  0.66952  1.0000
  N   N2        1.0  0.23144  0.01152  0.33047  1.0000
  N   N3        1.0  0.18434  0.54248  0.53001  1.0000
  N   N4        1.0  0.81568  0.45750  0.46999  1.0000
  N   N5        1.0  0.59177  0.20596  0.38996  1.0000
  N   N6        1.0  0.40824  0.79404  0.61004  1.0000
  N   N7        1.0  0.49305  0.36433  0.38821  1.0000
  N   N8        1.0  0.50695  0.63567  0.61179  1.0000
  Cl  Cl1       1.0  0.20032  0.78690  0.95139  1.0000
  Cl  Cl2       1.0  0.79967  0.21309  0.04862  1.0000
  Cl  Cl3       1.0  0.93282  0.70483  0.12779  1.0000
  Cl  Cl4       1.0  0.06717  0.29517  0.87222  1.0000
  O   O1        1.0  0.55979  0.25861  0.60437  1.0000
  O   O2        1.0  0.44022  0.74139  0.39563  1.0000
  O   O3        1.0  0.00646  0.73705  0.73541  1.0000
  O   O4        1.0  0.99352  0.26295  0.26458  1.0000
