data_image0
_chemical_formula_structural       Cu4H34C18N8Cl6
_chemical_formula_sum              "Cu4 H34 C18 N8 Cl6"
_cell_length_a       6.93783
_cell_length_b       7.58397
_cell_length_c       12.9512
_cell_angle_alpha    92.3063
_cell_angle_beta     98.5925
_cell_angle_gamma    101.251

_space_group_name_H-M_alt    "P 1"
_space_group_IT_number       1

loop_
  _space_group_symop_operation_xyz
  'x, y, z'

loop_
  _atom_site_type_symbol
  _atom_site_label
  _atom_site_symmetry_multiplicity
  _atom_site_fract_x
  _atom_site_fract_y
  _atom_site_fract_z
  _atom_site_occupancy
  Cu  Cu1       1.0  0.91308  0.58531  0.60088  1.0000
  Cu  Cu2       1.0  0.08691  0.41469  0.39912  1.0000
  Cu  Cu3       1.0  0.96122  0.48836  0.88708  1.0000
  Cu  Cu4       1.0  0.03878  0.51164  0.11292  1.0000
  H   H1        1.0  0.90240  0.09204  0.85847  1.0000
  H   H2        1.0  0.09760  0.90796  0.14153  1.0000
  H   H3        1.0  0.86981  0.16598  0.72645  1.0000
  H   H4        1.0  0.13019  0.83402  0.27355  1.0000
  H   H5        1.0  0.36983  0.88364  0.64819  1.0000
  H   H6        1.0  0.63017  0.11636  0.35181  1.0000
  H   H7        1.0  0.56491  0.04677  0.60743  1.0000
  H   H8        1.0  0.43509  0.95323  0.39258  1.0000
  H   H9        1.0  0.18575  0.97641  0.77654  1.0000
  H   H10       1.0  0.81425  0.02359  0.22346  1.0000
  H   H11       1.0  0.23719  0.20947  0.82634  1.0000
  H   H12       1.0  0.76281  0.79053  0.17366  1.0000
  H   H13       1.0  0.49173  0.41855  0.77210  1.0000
  H   H14       1.0  0.50828  0.58145  0.22790  1.0000
  H   H15       1.0  0.63550  0.35251  0.67725  1.0000
  H   H16       1.0  0.36451  0.64749  0.32275  1.0000
  H   H17       1.0  0.54143  0.32843  0.94584  1.0000
  H   H18       1.0  0.45857  0.67157  0.05416  1.0000
  H   H19       1.0  0.71273  0.18375  0.98288  1.0000
  H   H20       1.0  0.28727  0.81625  0.01712  1.0000
  H   H21       1.0  0.41215  0.79010  0.82759  1.0000
  H   H22       1.0  0.58785  0.20991  0.17241  1.0000
  H   H23       1.0  0.64090  0.87955  0.91667  1.0000
  H   H24       1.0  0.35910  0.12045  0.08333  1.0000
  H   H25       1.0  0.59850  0.68315  0.72013  1.0000
  H   H26       1.0  0.40149  0.31685  0.27987  1.0000
  H   H27       1.0  0.83157  0.78284  0.79688  1.0000
  H   H28       1.0  0.16842  0.21716  0.20312  1.0000
  H   H29       1.0  0.93718  0.92534  0.62683  1.0000
  H   H30       1.0  0.06281  0.07465  0.37317  1.0000
  H   H31       1.0  0.55769  0.64208  0.53440  1.0000
  H   H32       1.0  0.44231  0.35792  0.46560  1.0000
  H   H33       1.0  0.75057  0.75731  0.46097  1.0000
  H   H34       1.0  0.24942  0.24269  0.53903  1.0000
  C   C1        1.0  0.79708  0.12652  0.79412  1.0000
  C   C2        1.0  0.20292  0.87348  0.20588  1.0000
  C   C3        1.0  0.48449  0.00610  0.67228  1.0000
  C   C4        1.0  0.51551  0.99390  0.32772  1.0000
  C   C5        1.0  0.30200  0.09799  0.80013  1.0000
  C   C6        1.0  0.69800  0.90202  0.19987  1.0000
  C   C7        1.0  0.55929  0.31070  0.74348  1.0000
  C   C8        1.0  0.44072  0.68930  0.25652  1.0000
  C   C9        1.0  0.60424  0.21582  0.91934  1.0000
  C   C10       1.0  0.39576  0.78418  0.08066  1.0000
  C   C11       1.0  0.52870  0.91021  0.85451  1.0000
  C   C12       1.0  0.47129  0.08980  0.14549  1.0000
  C   C13       1.0  0.72292  0.79986  0.72871  1.0000
  C   C14       1.0  0.27707  0.20014  0.27129  1.0000
  C   C15       1.0  0.80989  0.81572  0.62924  1.0000
  C   C16       1.0  0.19012  0.18429  0.37077  1.0000
  C   C17       1.0  0.70711  0.72286  0.53636  1.0000
  C   C18       1.0  0.29286  0.27712  0.46362  1.0000
  N   N1        1.0  0.70936  0.27243  0.83017  1.0000
  N   N2        1.0  0.29065  0.72757  0.16984  1.0000
  N   N3        1.0  0.63666  0.95811  0.75991  1.0000
  N   N4        1.0  0.36334  0.04189  0.24009  1.0000
  N   N5        1.0  0.40143  0.15112  0.71016  1.0000
  N   N6        1.0  0.59858  0.84888  0.28984  1.0000
  N   N7        1.0  0.44494  0.05725  0.88712  1.0000
  N   N8        1.0  0.55506  0.94275  0.11288  1.0000
  Cl  Cl1       1.0  0.12657  0.55706  0.75014  1.0000
  Cl  Cl2       1.0  0.87343  0.44294  0.24986  1.0000
  Cl  Cl3       1.0  0.82802  0.29945  0.52291  1.0000
  Cl  Cl4       1.0  0.17198  0.70055  0.47709  1.0000
  Cl  Cl5       1.0  0.85674  0.68348  0.99370  1.0000
  Cl  Cl6       1.0  0.14326  0.31652  0.00630  1.0000
