data_image0
_chemical_formula_structural       Hg4H38C38S2N6O12
_chemical_formula_sum              "Hg4 H38 C38 S2 N6 O12"
_cell_length_a       8.50843
_cell_length_b       9.41098
_cell_length_c       14.7973
_cell_angle_alpha    89.2142
_cell_angle_beta     74.0265
_cell_angle_gamma    87.8772

_space_group_name_H-M_alt    "P 1"
_space_group_IT_number       1

loop_
  _space_group_symop_operation_xyz
  'x, y, z'

loop_
  _atom_site_type_symbol
  _atom_site_label
  _atom_site_symmetry_multiplicity
  _atom_site_fract_x
  _atom_site_fract_y
  _atom_site_fract_z
  _atom_site_occupancy
  Hg  Hg1       1.0  0.70871  0.33584  0.72589  1.0000
  Hg  Hg2       1.0  0.29129  0.66416  0.27410  1.0000
  Hg  Hg3       1.0  0.55386  0.97436  0.63445  1.0000
  Hg  Hg4       1.0  0.44615  0.02564  0.36555  1.0000
  H   H1        1.0  0.66950  0.72245  0.37445  1.0000
  H   H2        1.0  0.33049  0.27755  0.62555  1.0000
  H   H3        1.0  0.38797  0.51703  0.76329  1.0000
  H   H4        1.0  0.61204  0.48297  0.23671  1.0000
  H   H5        1.0  0.34154  0.68655  0.71805  1.0000
  H   H6        1.0  0.65846  0.31344  0.28195  1.0000
  H   H7        1.0  0.90013  0.57891  0.26519  1.0000
  H   H8        1.0  0.09986  0.42110  0.73481  1.0000
  H   H9        1.0  0.02281  0.36524  0.32815  1.0000
  H   H10       1.0  0.97719  0.63477  0.67185  1.0000
  H   H11       1.0  0.92483  0.30084  0.49585  1.0000
  H   H12       1.0  0.07517  0.69915  0.50415  1.0000
  H   H13       1.0  0.65702  0.00323  0.82549  1.0000
  H   H14       1.0  0.34297  0.99677  0.17451  1.0000
  H   H15       1.0  0.71392  0.20850  0.02672  1.0000
  H   H16       1.0  0.28608  0.79149  0.97327  1.0000
  H   H17       1.0  0.91889  0.26384  0.01081  1.0000
  H   H18       1.0  0.08111  0.73615  0.98919  1.0000
  H   H19       1.0  0.87879  0.09890  0.96220  1.0000
  H   H20       1.0  0.12121  0.90110  0.03779  1.0000
  H   H21       1.0  0.51065  0.50367  0.88545  1.0000
  H   H22       1.0  0.48935  0.49633  0.11455  1.0000
  H   H23       1.0  0.71742  0.88045  0.96294  1.0000
  H   H24       1.0  0.28257  0.11956  0.03706  1.0000
  H   H25       1.0  0.65032  0.62555  0.99346  1.0000
  H   H26       1.0  0.34967  0.37445  0.00655  1.0000
  H   H27       1.0  0.12656  0.10067  0.80845  1.0000
  H   H28       1.0  0.87344  0.89933  0.19156  1.0000
  H   H29       1.0  0.17070  0.09922  0.91887  1.0000
  H   H30       1.0  0.82930  0.90078  0.08114  1.0000
  H   H31       1.0  0.27797  0.97875  0.82756  1.0000
  H   H32       1.0  0.72203  0.02126  0.17244  1.0000
  H   H33       1.0  0.13315  0.94074  0.64686  1.0000
  H   H34       1.0  0.86686  0.05927  0.35315  1.0000
  H   H35       1.0  0.05120  0.11801  0.67930  1.0000
  H   H36       1.0  0.94880  0.88199  0.32070  1.0000
  H   H37       1.0  0.13578  0.07337  0.55931  1.0000
  H   H38       1.0  0.86423  0.92663  0.44069  1.0000
  C   C1        1.0  0.66902  0.47373  0.62460  1.0000
  C   C2        1.0  0.33098  0.52626  0.37540  1.0000
  C   C3        1.0  0.56005  0.66135  0.56054  1.0000
  C   C4        1.0  0.43995  0.33865  0.43947  1.0000
  C   C5        1.0  0.73370  0.63232  0.39692  1.0000
  C   C6        1.0  0.26630  0.36767  0.60308  1.0000
  C   C7        1.0  0.74902  0.47840  0.52900  1.0000
  C   C8        1.0  0.25097  0.52159  0.47100  1.0000
  C   C9        1.0  0.51816  0.68934  0.79847  1.0000
  C   C10       1.0  0.48184  0.31065  0.20152  1.0000
  C   C11       1.0  0.43904  0.61779  0.73234  1.0000
  C   C12       1.0  0.56096  0.38220  0.26766  1.0000
  C   C13       1.0  0.85634  0.55122  0.33948  1.0000
  C   C14       1.0  0.14366  0.44878  0.66052  1.0000
  C   C15       1.0  0.92703  0.43048  0.37504  1.0000
  C   C16       1.0  0.07297  0.56952  0.62496  1.0000
  C   C17       1.0  0.87394  0.39429  0.46836  1.0000
  C   C18       1.0  0.12606  0.60571  0.53164  1.0000
  C   C19       1.0  0.82677  0.28787  0.88935  1.0000
  C   C20       1.0  0.17323  0.71213  0.11065  1.0000
  C   C21       1.0  0.62744  0.89195  0.84037  1.0000
  C   C22       1.0  0.37255  0.10805  0.15963  1.0000
  C   C23       1.0  0.83722  0.20982  0.97784  1.0000
  C   C24       1.0  0.16279  0.79018  0.02216  1.0000
  C   C25       1.0  0.54782  0.61364  0.87433  1.0000
  C   C26       1.0  0.45217  0.38637  0.12567  1.0000
  C   C27       1.0  0.66170  0.82284  0.91708  1.0000
  C   C28       1.0  0.33829  0.17717  0.08292  1.0000
  C   C29       1.0  0.62273  0.68081  0.93422  1.0000
  C   C30       1.0  0.37727  0.31920  0.06579  1.0000
  C   C31       1.0  0.35139  0.19775  0.80625  1.0000
  C   C32       1.0  0.64862  0.80226  0.19375  1.0000
  C   C33       1.0  0.22485  0.08656  0.84320  1.0000
  C   C34       1.0  0.77515  0.91345  0.15680  1.0000
  C   C35       1.0  0.90085  0.98879  0.61978  1.0000
  C   C36       1.0  0.09915  0.01119  0.38022  1.0000
  C   C37       1.0  0.06561  0.03250  0.62795  1.0000
  C   C38       1.0  0.93439  0.96750  0.37205  1.0000
  S   S1        1.0  0.44104  0.80684  0.54768  1.0000
  S   S2        1.0  0.55896  0.19315  0.45232  1.0000
  N   N1        1.0  0.68035  0.59604  0.49097  1.0000
  N   N2        1.0  0.31964  0.40395  0.50903  1.0000
  N   N3        1.0  0.55503  0.58502  0.64073  1.0000
  N   N4        1.0  0.44498  0.41498  0.35927  1.0000
  N   N5        1.0  0.55760  0.82660  0.78182  1.0000
  N   N6        1.0  0.44239  0.17340  0.21818  1.0000
  O   O1        1.0  0.75692  0.21380  0.83647  1.0000
  O   O2        1.0  0.24308  0.78620  0.16353  1.0000
  O   O3        1.0  0.45524  0.17579  0.72427  1.0000
  O   O4        1.0  0.54477  0.82421  0.27573  1.0000
  O   O5        1.0  0.87630  0.40972  0.87032  1.0000
  O   O6        1.0  0.12371  0.59028  0.12968  1.0000
  O   O7        1.0  0.35218  0.30822  0.85213  1.0000
  O   O8        1.0  0.64782  0.69179  0.14787  1.0000
  O   O9        1.0  0.78770  0.08960  0.63258  1.0000
  O   O10       1.0  0.21231  0.91039  0.36742  1.0000
  O   O11       1.0  0.87730  0.86357  0.60060  1.0000
  O   O12       1.0  0.12272  0.13642  0.39940  1.0000
