data_image0
_chemical_formula_structural       Cd2H36C20N8O12
_chemical_formula_sum              "Cd2 H36 C20 N8 O12"
_cell_length_a       5.0214
_cell_length_b       9.89966
_cell_length_c       13.6119
_cell_angle_alpha    100.026
_cell_angle_beta     89.9996
_cell_angle_gamma    89.9998

_space_group_name_H-M_alt    "P 1"
_space_group_IT_number       1

loop_
  _space_group_symop_operation_xyz
  'x, y, z'

loop_
  _atom_site_type_symbol
  _atom_site_label
  _atom_site_symmetry_multiplicity
  _atom_site_fract_x
  _atom_site_fract_y
  _atom_site_fract_z
  _atom_site_occupancy
  Cd  Cd1       1.0  0.89545  0.24648  0.00476  1.0000
  Cd  Cd2       1.0  0.39544  0.75352  0.99524  1.0000
  H   H1        1.0  0.07239  0.76555  0.16849  1.0000
  H   H2        1.0  0.57241  0.23446  0.83151  1.0000
  H   H3        1.0  0.01107  0.62576  0.08790  1.0000
  H   H4        1.0  0.51108  0.37425  0.91210  1.0000
  H   H5        1.0  0.28041  0.11932  0.09707  1.0000
  H   H6        1.0  0.78040  0.88068  0.90293  1.0000
  H   H7        1.0  0.20633  0.25475  0.18094  1.0000
  H   H8        1.0  0.70635  0.74525  0.81907  1.0000
  H   H9        1.0  0.93177  0.24537  0.31733  1.0000
  H   H10       1.0  0.43177  0.75462  0.68267  1.0000
  H   H11       1.0  0.66330  0.24730  0.23412  1.0000
  H   H12       1.0  0.16330  0.75270  0.76588  1.0000
  H   H13       1.0  0.11456  0.13176  0.48964  1.0000
  H   H14       1.0  0.61456  0.86824  0.51036  1.0000
  H   H15       1.0  0.27835  0.98301  0.42651  1.0000
  H   H16       1.0  0.77834  0.01699  0.57348  1.0000
  H   H17       1.0  0.53552  0.00602  0.27997  1.0000
  H   H18       1.0  0.03553  0.99399  0.72003  1.0000
  H   H19       1.0  0.76576  0.04338  0.37673  1.0000
  H   H20       1.0  0.26576  0.95661  0.62327  1.0000
  H   H21       1.0  0.32655  0.44481  0.26454  1.0000
  H   H22       1.0  0.82655  0.55519  0.73545  1.0000
  H   H23       1.0  0.02287  0.46914  0.20346  1.0000
  H   H24       1.0  0.52288  0.53087  0.79654  1.0000
  H   H25       1.0  0.95994  0.69563  0.32441  1.0000
  H   H26       1.0  0.45993  0.30437  0.67559  1.0000
  H   H27       1.0  0.96294  0.54752  0.38087  1.0000
  H   H28       1.0  0.46294  0.45248  0.61913  1.0000
  H   H29       1.0  0.61652  0.62865  0.49572  1.0000
  H   H30       1.0  0.11652  0.37134  0.50427  1.0000
  H   H31       1.0  0.44699  0.48421  0.42958  1.0000
  H   H32       1.0  0.94700  0.51578  0.57042  1.0000
  H   H33       1.0  0.47140  0.68077  0.22337  1.0000
  H   H34       1.0  0.97141  0.31925  0.77663  1.0000
  H   H35       1.0  0.07453  0.01520  0.21783  1.0000
  H   H36       1.0  0.57453  0.98480  0.78217  1.0000
  C   C1        1.0  0.41923  0.16749  0.39645  1.0000
  C   C2        1.0  0.91923  0.83251  0.60355  1.0000
  C   C3        1.0  0.95374  0.08905  0.18503  1.0000
  C   C4        1.0  0.45375  0.91095  0.81497  1.0000
  C   C5        1.0  0.75294  0.00622  0.11220  1.0000
  C   C6        1.0  0.25294  0.99378  0.88780  1.0000
  C   C7        1.0  0.79297  0.17897  0.26831  1.0000
  C   C8        1.0  0.29297  0.82103  0.73169  1.0000
  C   C9        1.0  0.63201  0.09219  0.32920  1.0000
  C   C10       1.0  0.13201  0.90781  0.67080  1.0000
  C   C11       1.0  0.34003  0.60547  0.17726  1.0000
  C   C12       1.0  0.84004  0.39454  0.82274  1.0000
  C   C13       1.0  0.19119  0.52294  0.24478  1.0000
  C   C14       1.0  0.69119  0.47707  0.75522  1.0000
  C   C15       1.0  0.08618  0.61155  0.34061  1.0000
  C   C16       1.0  0.58618  0.38844  0.65939  1.0000
  C   C17       1.0  0.53774  0.51745  0.10514  1.0000
  C   C18       1.0  0.03774  0.48256  0.89485  1.0000
  C   C19       1.0  0.30906  0.67426  0.40847  1.0000
  C   C20       1.0  0.80906  0.32573  0.59152  1.0000
  N   N1        1.0  0.16278  0.68566  0.12290  1.0000
  N   N2        1.0  0.66279  0.31434  0.87710  1.0000
  N   N3        1.0  0.12432  0.17482  0.13289  1.0000
  N   N4        1.0  0.62432  0.82517  0.86711  1.0000
  N   N5        1.0  0.25950  0.08772  0.44034  1.0000
  N   N6        1.0  0.75950  0.91228  0.55966  1.0000
  N   N7        1.0  0.46484  0.58853  0.44861  1.0000
  N   N8        1.0  0.96484  0.41146  0.55139  1.0000
  O   O1        1.0  0.69646  0.88613  0.12569  1.0000
  O   O2        1.0  0.19648  0.11386  0.87431  1.0000
  O   O3        1.0  0.64130  0.57273  0.03633  1.0000
  O   O4        1.0  0.14130  0.42728  0.96367  1.0000
  O   O5        1.0  0.39084  0.29595  0.41006  1.0000
  O   O6        1.0  0.89085  0.70405  0.58994  1.0000
  O   O7        1.0  0.64070  0.06660  0.04773  1.0000
  O   O8        1.0  0.14071  0.93340  0.95227  1.0000
  O   O9        1.0  0.60179  0.40055  0.12318  1.0000
  O   O10       1.0  0.10176  0.59947  0.87682  1.0000
  O   O11       1.0  0.34873  0.80189  0.42536  1.0000
  O   O12       1.0  0.84872  0.19810  0.57464  1.0000
