data_image0
_chemical_formula_structural       Yb4H22C22N2O32
_chemical_formula_sum              "Yb4 H22 C22 N2 O32"
_cell_length_a       7.3339
_cell_length_b       10.6318
_cell_length_c       12.85
_cell_angle_alpha    95.6892
_cell_angle_beta     103.239
_cell_angle_gamma    106.637

_space_group_name_H-M_alt    "P 1"
_space_group_IT_number       1

loop_
  _space_group_symop_operation_xyz
  'x, y, z'

loop_
  _atom_site_type_symbol
  _atom_site_label
  _atom_site_symmetry_multiplicity
  _atom_site_fract_x
  _atom_site_fract_y
  _atom_site_fract_z
  _atom_site_occupancy
  Yb  Yb1       1.0  0.33143  0.03887  0.19091  1.0000
  Yb  Yb2       1.0  0.66857  0.96112  0.80908  1.0000
  Yb  Yb3       1.0  0.78294  0.68099  0.39975  1.0000
  Yb  Yb4       1.0  0.21706  0.31901  0.60025  1.0000
  H   H1        1.0  0.89143  0.66385  0.98933  1.0000
  H   H2        1.0  0.10855  0.33615  0.01067  1.0000
  H   H3        1.0  0.71219  0.41602  0.92080  1.0000
  H   H4        1.0  0.28777  0.58398  0.07919  1.0000
  H   H5        1.0  0.56064  0.28004  0.04606  1.0000
  H   H6        1.0  0.43934  0.71996  0.95394  1.0000
  H   H7        1.0  0.97035  0.09632  0.07816  1.0000
  H   H8        1.0  0.02964  0.90368  0.92184  1.0000
  H   H9        1.0  0.06365  0.17711  0.19654  1.0000
  H   H10       1.0  0.93636  0.82289  0.80346  1.0000
  H   H11       1.0  0.10192  0.98559  0.33785  1.0000
  H   H12       1.0  0.89807  0.01441  0.66214  1.0000
  H   H13       1.0  0.27890  0.11629  0.40784  1.0000
  H   H14       1.0  0.72110  0.88369  0.59216  1.0000
  H   H15       1.0  0.09975  0.92757  0.53182  1.0000
  H   H16       1.0  0.90026  0.07244  0.46818  1.0000
  H   H17       1.0  0.15121  0.80881  0.57548  1.0000
  H   H18       1.0  0.84881  0.19120  0.42452  1.0000
  H   H19       1.0  0.40919  0.65734  0.44401  1.0000
  H   H20       1.0  0.59084  0.34268  0.55600  1.0000
  H   H21       1.0  0.51448  0.62764  0.55513  1.0000
  H   H22       1.0  0.48554  0.37237  0.44487  1.0000
  C   C1        1.0  0.83631  0.65212  0.14627  1.0000
  C   C2        1.0  0.16368  0.34787  0.85373  1.0000
  C   C3        1.0  0.82473  0.59868  0.04020  1.0000
  C   C4        1.0  0.17526  0.40131  0.95980  1.0000
  C   C5        1.0  0.72555  0.46260  0.00294  1.0000
  C   C6        1.0  0.27442  0.53739  0.99706  1.0000
  C   C7        1.0  0.64043  0.38599  0.07216  1.0000
  C   C8        1.0  0.35955  0.61401  0.92784  1.0000
  C   C9        1.0  0.65713  0.44823  0.17656  1.0000
  C   C10       1.0  0.34286  0.55177  0.82345  1.0000
  C   C11       1.0  0.94595  0.79473  0.19873  1.0000
  C   C12       1.0  0.05405  0.20527  0.80128  1.0000
  C   C13       1.0  0.57101  0.37859  0.25904  1.0000
  C   C14       1.0  0.42898  0.62141  0.74097  1.0000
  C   C15       1.0  0.60666  0.92545  0.35321  1.0000
  C   C16       1.0  0.39336  0.07456  0.64678  1.0000
  C   C17       1.0  0.48087  0.80425  0.26341  1.0000
  C   C18       1.0  0.51915  0.19575  0.73660  1.0000
  C   C19       1.0  0.39457  0.97725  0.96136  1.0000
  C   C20       1.0  0.60542  0.02275  0.03862  1.0000
  C   C21       1.0  0.94216  0.49438  0.54379  1.0000
  C   C22       1.0  0.05785  0.50563  0.45622  1.0000
  N   N1        1.0  0.75414  0.57818  0.21211  1.0000
  N   N2        1.0  0.24585  0.42181  0.78790  1.0000
  O   O1        1.0  0.02718  0.87485  0.14438  1.0000
  O   O2        1.0  0.97283  0.12514  0.85562  1.0000
  O   O3        1.0  0.95199  0.82491  0.29900  1.0000
  O   O4        1.0  0.04801  0.17509  0.70100  1.0000
  O   O5        1.0  0.58904  0.45213  0.34801  1.0000
  O   O6        1.0  0.41095  0.54786  0.65199  1.0000
  O   O7        1.0  0.48957  0.25410  0.23748  1.0000
  O   O8        1.0  0.51042  0.74589  0.76252  1.0000
  O   O9        1.0  0.56917  0.03354  0.34473  1.0000
  O   O10       1.0  0.43085  0.96647  0.65526  1.0000
  O   O11       1.0  0.74125  0.90819  0.42709  1.0000
  O   O12       1.0  0.25876  0.09182  0.57291  1.0000
  O   O13       1.0  0.50230  0.69259  0.27636  1.0000
  O   O14       1.0  0.49771  0.30741  0.72365  1.0000
  O   O15       1.0  0.36740  0.82787  0.18302  1.0000
  O   O16       1.0  0.63261  0.17213  0.81697  1.0000
  O   O17       1.0  0.37332  0.93476  0.86330  1.0000
  O   O18       1.0  0.62667  0.06524  0.13670  1.0000
  O   O19       1.0  0.25830  0.98668  0.00517  1.0000
  O   O20       1.0  0.74169  0.01332  0.99482  1.0000
  O   O21       1.0  0.84223  0.57274  0.54903  1.0000
  O   O22       1.0  0.15778  0.42727  0.45097  1.0000
  O   O23       1.0  0.95592  0.40617  0.60209  1.0000
  O   O24       1.0  0.04408  0.59383  0.39792  1.0000
  O   O25       1.0  0.09893  0.15154  0.13061  1.0000
  O   O26       1.0  0.90106  0.84845  0.86939  1.0000
  O   O27       1.0  0.20220  0.07054  0.33418  1.0000
  O   O28       1.0  0.79780  0.92945  0.66582  1.0000
  O   O29       1.0  0.04121  0.83076  0.53142  1.0000
  O   O30       1.0  0.95881  0.16925  0.46858  1.0000
  O   O31       1.0  0.53934  0.67732  0.49507  1.0000
  O   O32       1.0  0.46069  0.32270  0.50494  1.0000
