data_image0
_chemical_formula_structural       Zn2H36C20N8O12
_chemical_formula_sum              "Zn2 H36 C20 N8 O12"
_cell_length_a       4.98191
_cell_length_b       9.40969
_cell_length_c       14.5188
_cell_angle_alpha    105.682
_cell_angle_beta     89.9996
_cell_angle_gamma    89.9993

_space_group_name_H-M_alt    "P 1"
_space_group_IT_number       1

loop_
  _space_group_symop_operation_xyz
  'x, y, z'

loop_
  _atom_site_type_symbol
  _atom_site_label
  _atom_site_symmetry_multiplicity
  _atom_site_fract_x
  _atom_site_fract_y
  _atom_site_fract_z
  _atom_site_occupancy
  Zn  Zn1       1.0  0.16074  0.74904  0.01950  1.0000
  Zn  Zn2       1.0  0.66073  0.25098  0.98049  1.0000
  H   H1        1.0  0.63046  0.35062  0.65663  1.0000
  H   H2        1.0  0.13048  0.64934  0.34336  1.0000
  H   H3        1.0  0.27992  0.87107  0.23057  1.0000
  H   H4        1.0  0.77991  0.12893  0.76942  1.0000
  H   H5        1.0  0.19680  0.30504  0.73756  1.0000
  H   H6        1.0  0.69682  0.69497  0.26245  1.0000
  H   H7        1.0  0.12877  0.27589  0.58418  1.0000
  H   H8        1.0  0.62875  0.72410  0.41581  1.0000
  H   H9        1.0  0.62042  0.53822  0.72286  1.0000
  H   H10       1.0  0.12040  0.46174  0.27713  1.0000
  H   H11       1.0  0.05432  0.57658  0.79730  1.0000
  H   H12       1.0  0.55430  0.42345  0.20270  1.0000
  H   H13       1.0  0.77482  0.82858  0.15011  1.0000
  H   H14       1.0  0.27482  0.17143  0.84989  1.0000
  H   H15       1.0  0.74651  0.91717  0.06843  1.0000
  H   H16       1.0  0.24652  0.08285  0.93157  1.0000
  H   H17       1.0  0.18208  0.18083  0.36365  1.0000
  H   H18       1.0  0.68211  0.81917  0.63636  1.0000
  H   H19       1.0  0.48248  0.35004  0.81203  1.0000
  H   H20       1.0  0.98249  0.64997  0.18798  1.0000
  H   H21       1.0  0.44693  0.14630  0.28210  1.0000
  H   H22       1.0  0.94694  0.85370  0.71790  1.0000
  H   H23       1.0  0.98919  0.93572  0.29761  1.0000
  H   H24       1.0  0.48919  0.06427  0.70239  1.0000
  H   H25       1.0  0.89548  0.10577  0.19524  1.0000
  H   H26       1.0  0.39548  0.89424  0.80477  1.0000
  H   H27       1.0  0.76876  0.11205  0.49852  1.0000
  H   H28       1.0  0.26879  0.88794  0.50148  1.0000
  H   H29       1.0  0.67551  0.24038  0.43487  1.0000
  H   H30       1.0  0.17552  0.75961  0.56514  1.0000
  H   H31       1.0  0.03544  0.39514  0.51472  1.0000
  H   H32       1.0  0.53543  0.60484  0.48529  1.0000
  H   H33       1.0  0.44763  0.70039  0.85969  1.0000
  H   H34       1.0  0.94758  0.29961  0.14030  1.0000
  H   H35       1.0  0.51823  0.58671  0.92327  1.0000
  H   H36       1.0  0.01823  0.41329  0.07673  1.0000
  C   C1        1.0  0.98702  0.46799  0.90428  1.0000
  C   C2        1.0  0.48703  0.53206  0.09572  1.0000
  C   C3        1.0  0.25679  0.05398  0.11076  1.0000
  C   C4        1.0  0.75681  0.94602  0.88923  1.0000
  C   C5        1.0  0.15281  0.96897  0.25694  1.0000
  C   C6        1.0  0.65281  0.03104  0.74306  1.0000
  C   C7        1.0  0.18400  0.52004  0.83793  1.0000
  C   C8        1.0  0.68400  0.47998  0.16207  1.0000
  C   C9        1.0  0.33775  0.39437  0.76996  1.0000
  C   C10       1.0  0.83776  0.60563  0.23005  1.0000
  C   C11       1.0  0.49448  0.44122  0.69212  1.0000
  C   C12       1.0  0.99448  0.55875  0.30787  1.0000
  C   C13       1.0  0.48556  0.03893  0.39359  1.0000
  C   C14       1.0  0.98557  0.96105  0.60640  1.0000
  C   C15       1.0  0.03060  0.01036  0.17047  1.0000
  C   C16       1.0  0.53060  0.98965  0.82952  1.0000
  C   C17       1.0  0.32240  0.47818  0.61561  1.0000
  C   C18       1.0  0.82241  0.52181  0.38439  1.0000
  C   C19       1.0  0.31476  0.09214  0.32309  1.0000
  C   C20       1.0  0.81477  0.90785  0.67691  1.0000
  N   N1        1.0  0.88512  0.88215  0.11024  1.0000
  N   N2        1.0  0.38512  0.11787  0.88975  1.0000
  N   N3        1.0  0.14581  0.37634  0.57009  1.0000
  N   N4        1.0  0.64580  0.62364  0.42991  1.0000
  N   N5        1.0  0.36042  0.63484  0.89733  1.0000
  N   N6        1.0  0.86040  0.36517  0.10267  1.0000
  N   N7        1.0  0.65265  0.13873  0.44700  1.0000
  N   N8        1.0  0.15268  0.86127  0.55300  1.0000
  O   O1        1.0  0.90896  0.33449  0.88143  1.0000
  O   O2        1.0  0.40899  0.66554  0.11857  1.0000
  O   O3        1.0  0.36572  0.94845  0.04610  1.0000
  O   O4        1.0  0.86572  0.05157  0.95390  1.0000
  O   O5        1.0  0.90005  0.56602  0.97681  1.0000
  O   O6        1.0  0.40003  0.43402  0.02319  1.0000
  O   O7        1.0  0.32967  0.18646  0.13058  1.0000
  O   O8        1.0  0.82969  0.81357  0.86942  1.0000
  O   O9        1.0  0.46847  0.90900  0.40162  1.0000
  O   O10       1.0  0.96847  0.09099  0.59838  1.0000
  O   O11       1.0  0.34985  0.59966  0.59554  1.0000
  O   O12       1.0  0.84985  0.40031  0.40446  1.0000
