data_image0
_chemical_formula_structural       Tl2H10C6N4O8
_chemical_formula_sum              "Tl2 H10 C6 N4 O8"
_cell_length_a       4.54665
_cell_length_b       7.81877
_cell_length_c       9.27012
_cell_angle_alpha    89.9996
_cell_angle_beta     102.882
_cell_angle_gamma    90.0001

_space_group_name_H-M_alt    "P 1"
_space_group_IT_number       1

loop_
  _space_group_symop_operation_xyz
  'x, y, z'

loop_
  _atom_site_type_symbol
  _atom_site_label
  _atom_site_symmetry_multiplicity
  _atom_site_fract_x
  _atom_site_fract_y
  _atom_site_fract_z
  _atom_site_occupancy
  Tl  Tl1       1.0  0.97898  0.84132  0.98629  1.0000
  Tl  Tl2       1.0  0.47898  0.15868  0.48629  1.0000
  H   H1        1.0  0.13124  0.12418  0.78060  1.0000
  H   H2        1.0  0.63124  0.87582  0.28059  1.0000
  H   H3        1.0  0.67696  0.54348  0.33037  1.0000
  H   H4        1.0  0.17696  0.45651  0.83037  1.0000
  H   H5        1.0  0.67005  0.22037  0.85489  1.0000
  H   H6        1.0  0.17005  0.77963  0.35489  1.0000
  H   H7        1.0  0.81688  0.31309  0.23015  1.0000
  H   H8        1.0  0.31688  0.68691  0.73015  1.0000
  H   H9        1.0  0.88761  0.36232  0.05443  1.0000
  H   H10       1.0  0.38761  0.63768  0.55442  1.0000
  C   C1        1.0  0.52764  0.50917  0.10524  1.0000
  C   C2        1.0  0.02764  0.49083  0.60524  1.0000
  C   C3        1.0  0.70861  0.34489  0.11549  1.0000
  C   C4        1.0  0.20861  0.65511  0.61549  1.0000
  C   C5        1.0  0.49885  0.20030  0.04878  1.0000
  C   C6        1.0  0.99885  0.79970  0.54878  1.0000
  N   N1        1.0  0.54233  0.59007  0.23226  1.0000
  N   N2        1.0  0.04233  0.40992  0.73226  1.0000
  N   N3        1.0  0.51853  0.16236  0.91023  1.0000
  N   N4        1.0  0.01853  0.83764  0.41023  1.0000
  O   O1        1.0  0.39864  0.74260  0.23941  1.0000
  O   O2        1.0  0.89864  0.25740  0.73941  1.0000
  O   O3        1.0  0.37472  0.56409  0.98193  1.0000
  O   O4        1.0  0.87472  0.43591  0.48193  1.0000
  O   O5        1.0  0.31952  0.13203  0.11623  1.0000
  O   O6        1.0  0.81952  0.86797  0.61623  1.0000
  O   O7        1.0  0.32145  0.04668  0.82371  1.0000
  O   O8        1.0  0.82144  0.95332  0.32371  1.0000
