data_image0
_chemical_formula_structural       Ga4H16C32O20
_chemical_formula_sum              "Ga4 H16 C32 O20"
_cell_length_a       12.0249
_cell_length_b       12.2616
_cell_length_c       12.2614
_cell_angle_alpha    76.0841
_cell_angle_beta     60.6389
_cell_angle_gamma    60.6318

_space_group_name_H-M_alt    "P 1"
_space_group_IT_number       1

loop_
  _space_group_symop_operation_xyz
  'x, y, z'

loop_
  _atom_site_type_symbol
  _atom_site_label
  _atom_site_symmetry_multiplicity
  _atom_site_fract_x
  _atom_site_fract_y
  _atom_site_fract_z
  _atom_site_occupancy
  Ga  Ga1       1.0  0.80897  0.38215  0.99999  1.0000
  Ga  Ga2       1.0  0.19109  0.61785  0.99999  1.0000
  Ga  Ga3       1.0  0.55894  0.50002  0.88211  1.0000
  Ga  Ga4       1.0  0.94108  0.50003  0.11785  1.0000
  H   H1        1.0  0.87501  0.56590  0.93411  1.0000
  H   H2        1.0  0.37505  0.43411  0.06585  1.0000
  H   H3        1.0  0.55917  0.56586  0.06586  1.0000
  H   H4        1.0  0.19091  0.43414  0.93411  1.0000
  H   H5        1.0  0.63688  0.49998  0.50002  1.0000
  H   H6        1.0  0.88692  0.00005  0.00004  1.0000
  H   H7        1.0  0.11299  0.00004  1.00000  1.0000
  H   H8        1.0  0.86306  0.50002  0.50003  1.0000
  H   H9        1.0  0.45510  0.44031  0.30646  1.0000
  H   H10       1.0  0.20194  0.55962  0.69343  1.0000
  H   H11       1.0  0.51153  0.19352  0.94041  1.0000
  H   H12       1.0  0.64556  0.80646  0.05957  1.0000
  H   H13       1.0  0.54798  0.80647  0.94041  1.0000
  H   H14       1.0  0.29493  0.19346  0.05960  1.0000
  H   H15       1.0  0.10465  0.44034  0.69345  1.0000
  H   H16       1.0  0.23841  0.55962  0.30650  1.0000
  C   C1        1.0  0.54640  0.49995  0.49999  1.0000
  C   C2        1.0  0.79643  0.00003  0.00004  1.0000
  C   C3        1.0  0.20346  0.00004  0.00005  1.0000
  C   C4        1.0  0.95357  0.50003  0.50001  1.0000
  C   C5        1.0  0.68632  0.45173  0.26951  1.0000
  C   C6        1.0  0.40755  0.54824  0.73047  1.0000
  C   C7        1.0  0.70579  0.23050  0.95186  1.0000
  C   C8        1.0  0.88810  0.76955  0.04825  1.0000
  C   C9        1.0  0.34229  0.76957  0.95185  1.0000
  C   C10       1.0  0.06370  0.23052  0.04824  1.0000
  C   C11       1.0  0.86197  0.45180  0.73048  1.0000
  C   C12       1.0  0.04415  0.54828  0.26952  1.0000
  C   C13       1.0  0.55584  0.47284  0.39051  1.0000
  C   C14       1.0  0.41923  0.52707  0.60945  1.0000
  C   C15       1.0  0.69626  0.10951  0.97304  1.0000
  C   C16       1.0  0.77878  0.89054  0.02706  1.0000
  C   C17       1.0  0.33059  0.89056  0.97305  1.0000
  C   C18       1.0  0.19414  0.10949  0.02708  1.0000
  C   C19       1.0  0.97129  0.47294  0.60946  1.0000
  C   C20       1.0  0.05361  0.52711  0.39053  1.0000
  C   C21       1.0  0.31144  0.49995  0.49995  1.0000
  C   C22       1.0  0.56144  0.99998  0.99996  1.0000
  C   C23       1.0  0.43859  0.99997  0.99999  1.0000
  C   C24       1.0  0.18863  0.49993  0.49995  1.0000
  C   C25       1.0  0.44095  0.46883  0.39177  1.0000
  C   C26       1.0  0.30164  0.53107  0.60813  1.0000
  C   C27       1.0  0.58270  0.10820  0.96896  1.0000
  C   C28       1.0  0.65992  0.89178  0.03101  1.0000
  C   C29       1.0  0.44828  0.89179  0.96897  1.0000
  C   C30       1.0  0.30906  0.10815  0.03109  1.0000
  C   C31       1.0  0.09024  0.46885  0.60815  1.0000
  C   C32       1.0  0.16726  0.53107  0.39180  1.0000
  O   O1        1.0  0.70846  0.38701  0.18736  1.0000
  O   O2        1.0  0.28284  0.61294  0.81259  1.0000
  O   O3        1.0  0.64572  0.31265  0.88715  1.0000
  O   O4        1.0  0.84545  0.68745  0.11305  1.0000
  O   O5        1.0  0.46707  0.68743  0.88716  1.0000
  O   O6        1.0  0.04166  0.31262  0.11295  1.0000
  O   O7        1.0  0.90459  0.38714  0.81262  1.0000
  O   O8        1.0  0.10413  0.61302  0.18742  1.0000
  O   O9        1.0  0.87513  0.50171  0.99820  1.0000
  O   O10       1.0  0.37504  0.49822  0.00169  1.0000
  O   O11       1.0  0.62332  0.50175  0.00170  1.0000
  O   O12       1.0  0.12679  0.49824  0.99828  1.0000
  O   O13       1.0  0.76063  0.50335  0.25900  1.0000
  O   O14       1.0  0.52301  0.49668  0.74096  1.0000
  O   O15       1.0  0.76973  0.24099  0.00333  1.0000
  O   O16       1.0  0.01403  0.75901  0.99658  1.0000
  O   O17       1.0  0.22689  0.75905  0.00336  1.0000
  O   O18       1.0  0.98934  0.24104  0.99666  1.0000
  O   O19       1.0  0.73602  0.50331  0.74098  1.0000
  O   O20       1.0  0.98038  0.49661  0.25899  1.0000
