data_image0
_chemical_formula_structural       Zn4H28C32N20Cl8
_chemical_formula_sum              "Zn4 H28 C32 N20 Cl8"
_cell_length_a       9.0165
_cell_length_b       10.2173
_cell_length_c       12.8827
_cell_angle_alpha    90
_cell_angle_beta     106.283
_cell_angle_gamma    90

_space_group_name_H-M_alt    "P 1"
_space_group_IT_number       1

loop_
  _space_group_symop_operation_xyz
  'x, y, z'

loop_
  _atom_site_type_symbol
  _atom_site_label
  _atom_site_symmetry_multiplicity
  _atom_site_fract_x
  _atom_site_fract_y
  _atom_site_fract_z
  _atom_site_occupancy
  Zn  Zn1       1.0  0.07910  0.05590  0.31437  1.0000
  Zn  Zn2       1.0  0.42090  0.55590  0.18563  1.0000
  Zn  Zn3       1.0  0.92090  0.94410  0.68563  1.0000
  Zn  Zn4       1.0  0.57910  0.44410  0.81437  1.0000
  H   H1        1.0  0.87276  0.86494  0.43827  1.0000
  H   H2        1.0  0.62724  0.36494  0.06173  1.0000
  H   H3        1.0  0.12724  0.13506  0.56173  1.0000
  H   H4        1.0  0.37276  0.63506  0.93827  1.0000
  H   H5        1.0  0.98948  0.57165  0.24103  1.0000
  H   H6        1.0  0.51052  0.07165  0.25897  1.0000
  H   H7        1.0  0.01052  0.42835  0.75897  1.0000
  H   H8        1.0  0.48948  0.92835  0.74103  1.0000
  H   H9        1.0  0.69297  0.61500  0.65744  1.0000
  H   H10       1.0  0.80703  0.11500  0.84256  1.0000
  H   H11       1.0  0.30703  0.38500  0.34256  1.0000
  H   H12       1.0  0.19297  0.88500  0.15744  1.0000
  H   H13       1.0  0.54938  0.23002  0.66195  1.0000
  H   H14       1.0  0.95062  0.73002  0.83805  1.0000
  H   H15       1.0  0.45062  0.76998  0.33805  1.0000
  H   H16       1.0  0.04938  0.26998  0.16195  1.0000
  H   H17       1.0  0.62402  0.17509  0.49448  1.0000
  H   H18       1.0  0.87597  0.67509  0.00552  1.0000
  H   H19       1.0  0.37597  0.82491  0.50552  1.0000
  H   H20       1.0  0.12403  0.32491  0.99448  1.0000
  H   H21       1.0  0.74160  0.35214  0.40603  1.0000
  H   H22       1.0  0.75840  0.85214  0.09397  1.0000
  H   H23       1.0  0.25840  0.64786  0.59397  1.0000
  H   H24       1.0  0.24160  0.14786  0.90603  1.0000
  H   H25       1.0  0.79586  0.70147  0.51716  1.0000
  H   H26       1.0  0.70414  0.20147  0.98284  1.0000
  H   H27       1.0  0.20414  0.29853  0.48284  1.0000
  H   H28       1.0  0.29586  0.79853  0.01716  1.0000
  C   C1        1.0  0.92157  0.81610  0.38032  1.0000
  C   C2        1.0  0.57843  0.31610  0.11968  1.0000
  C   C3        1.0  0.07843  0.18390  0.61968  1.0000
  C   C4        1.0  0.42157  0.68390  0.88032  1.0000
  C   C5        1.0  0.98208  0.66644  0.27712  1.0000
  C   C6        1.0  0.51792  0.16644  0.22289  1.0000
  C   C7        1.0  0.01792  0.33356  0.72288  1.0000
  C   C8        1.0  0.48208  0.83356  0.77711  1.0000
  C   C9        1.0  0.72719  0.49694  0.52520  1.0000
  C   C10       1.0  0.77281  0.99694  0.97480  1.0000
  C   C11       1.0  0.27281  0.50306  0.47480  1.0000
  C   C12       1.0  0.22719  0.00306  0.02520  1.0000
  C   C13       1.0  0.68250  0.51870  0.61941  1.0000
  C   C14       1.0  0.81750  0.01870  0.88059  1.0000
  C   C15       1.0  0.31750  0.48130  0.38059  1.0000
  C   C16       1.0  0.18250  0.98131  0.11941  1.0000
  C   C17       1.0  0.60129  0.30292  0.62105  1.0000
  C   C18       1.0  0.89871  0.80292  0.87895  1.0000
  C   C19       1.0  0.39871  0.69708  0.37895  1.0000
  C   C20       1.0  0.10129  0.19708  0.12105  1.0000
  C   C21       1.0  0.64214  0.27386  0.52716  1.0000
  C   C22       1.0  0.85785  0.77386  0.97284  1.0000
  C   C23       1.0  0.35785  0.72614  0.47284  1.0000
  C   C24       1.0  0.14215  0.22614  0.02716  1.0000
  C   C25       1.0  0.70632  0.37149  0.47869  1.0000
  C   C26       1.0  0.79368  0.87149  0.02131  1.0000
  C   C27       1.0  0.29368  0.62851  0.52131  1.0000
  C   C28       1.0  0.20632  0.12851  0.97869  1.0000
  C   C29       1.0  0.79400  0.60491  0.47947  1.0000
  C   C30       1.0  0.70600  0.10491  0.02053  1.0000
  C   C31       1.0  0.20600  0.39509  0.52053  1.0000
  C   C32       1.0  0.29400  0.89509  0.97947  1.0000
  N   N1        1.0  0.91175  0.68491  0.35778  1.0000
  N   N2        1.0  0.58825  0.18491  0.14222  1.0000
  N   N3        1.0  0.08825  0.31509  0.64222  1.0000
  N   N4        1.0  0.41175  0.81509  0.85778  1.0000
  N   N5        1.0  0.99591  0.87186  0.31702  1.0000
  N   N6        1.0  0.50409  0.37186  0.18298  1.0000
  N   N7        1.0  0.00409  0.12814  0.68298  1.0000
  N   N8        1.0  0.49591  0.62814  0.81702  1.0000
  N   N9        1.0  0.03565  0.77783  0.25194  1.0000
  N   N10       1.0  0.46435  0.27783  0.24806  1.0000
  N   N11       1.0  0.96435  0.22217  0.74806  1.0000
  N   N12       1.0  0.53565  0.72217  0.75194  1.0000
  N   N13       1.0  0.84769  0.58163  0.39844  1.0000
  N   N14       1.0  0.65231  0.08163  0.10156  1.0000
  N   N15       1.0  0.15231  0.41837  0.60156  1.0000
  N   N16       1.0  0.34769  0.91837  0.89844  1.0000
  N   N17       1.0  0.62161  0.42291  0.66655  1.0000
  N   N18       1.0  0.87839  0.92292  0.83345  1.0000
  N   N19       1.0  0.37839  0.57708  0.33345  1.0000
  N   N20       1.0  0.12161  0.07709  0.16655  1.0000
  Cl  Cl1       1.0  0.92375  0.22159  0.32857  1.0000
  Cl  Cl2       1.0  0.57625  0.72159  0.17143  1.0000
  Cl  Cl3       1.0  0.07625  0.77841  0.67143  1.0000
  Cl  Cl4       1.0  0.42375  0.27841  0.82857  1.0000
  Cl  Cl5       1.0  0.30309  0.07033  0.44665  1.0000
  Cl  Cl6       1.0  0.19691  0.57033  0.05335  1.0000
  Cl  Cl7       1.0  0.69691  0.92967  0.55335  1.0000
  Cl  Cl8       1.0  0.80309  0.42967  0.94665  1.0000
