data_image0
_chemical_formula_structural       Ag8H16C16N24
_chemical_formula_sum              "Ag8 H16 C16 N24"
_cell_length_a       7.82403
_cell_length_b       8.85362
_cell_length_c       11.458
_cell_angle_alpha    79.9452
_cell_angle_beta     78.5153
_cell_angle_gamma    85.1363

_space_group_name_H-M_alt    "P 1"
_space_group_IT_number       1

loop_
  _space_group_symop_operation_xyz
  'x, y, z'

loop_
  _atom_site_type_symbol
  _atom_site_label
  _atom_site_symmetry_multiplicity
  _atom_site_fract_x
  _atom_site_fract_y
  _atom_site_fract_z
  _atom_site_occupancy
  Ag  Ag1       1.0  0.59155  0.17952  0.23699  1.0000
  Ag  Ag2       1.0  0.40845  0.82048  0.76301  1.0000
  Ag  Ag3       1.0  0.35617  0.42056  0.46695  1.0000
  Ag  Ag4       1.0  0.64383  0.57944  0.53305  1.0000
  Ag  Ag5       1.0  0.81740  0.89534  0.74755  1.0000
  Ag  Ag6       1.0  0.18259  0.10466  0.25245  1.0000
  Ag  Ag7       1.0  0.08309  0.65757  0.96752  1.0000
  Ag  Ag8       1.0  0.91691  0.34242  0.03248  1.0000
  H   H1        1.0  0.82974  0.96076  0.44302  1.0000
  H   H2        1.0  0.17025  0.03924  0.55698  1.0000
  H   H3        1.0  0.53344  0.20692  0.70208  1.0000
  H   H4        1.0  0.46655  0.79307  0.29792  1.0000
  H   H5        1.0  0.18734  0.69242  0.24879  1.0000
  H   H6        1.0  0.81265  0.30757  0.75121  1.0000
  H   H7        1.0  0.37069  0.36885  0.01977  1.0000
  H   H8        1.0  0.62931  0.63115  0.98023  1.0000
  H   H9        1.0  0.99508  0.67548  0.51993  1.0000
  H   H10       1.0  0.00492  0.32453  0.48007  1.0000
  H   H11       1.0  0.29300  0.43238  0.76489  1.0000
  H   H12       1.0  0.70700  0.56762  0.23511  1.0000
  H   H13       1.0  0.61936  0.12999  0.94942  1.0000
  H   H14       1.0  0.38064  0.87001  0.05058  1.0000
  H   H15       1.0  0.86401  0.84752  0.20822  1.0000
  H   H16       1.0  0.13601  0.15248  0.79178  1.0000
  C   C1        1.0  0.73650  0.04094  0.48671  1.0000
  C   C2        1.0  0.26350  0.95906  0.51330  1.0000
  C   C3        1.0  0.58707  0.16563  0.61792  1.0000
  C   C4        1.0  0.41292  0.83437  0.38208  1.0000
  C   C5        1.0  0.25542  0.59457  0.21124  1.0000
  C   C6        1.0  0.74458  0.40543  0.78876  1.0000
  C   C7        1.0  0.34853  0.43097  0.09539  1.0000
  C   C8        1.0  0.65147  0.56903  0.90460  1.0000
  C   C9        1.0  0.04951  0.63598  0.60067  1.0000
  C   C10       1.0  0.95049  0.36402  0.39933  1.0000
  C   C11       1.0  0.19978  0.51181  0.72445  1.0000
  C   C12       1.0  0.80022  0.48819  0.27555  1.0000
  C   C13       1.0  0.69660  0.03834  0.99360  1.0000
  C   C14       1.0  0.30341  0.96166  0.00640  1.0000
  C   C15       1.0  0.82010  0.89530  0.12468  1.0000
  C   C16       1.0  0.17991  0.10470  0.87532  1.0000
  N   N1        1.0  0.62997  0.13882  0.42951  1.0000
  N   N2        1.0  0.37002  0.86118  0.57050  1.0000
  N   N3        1.0  0.53311  0.21969  0.51460  1.0000
  N   N4        1.0  0.46688  0.78031  0.48540  1.0000
  N   N5        1.0  0.71539  0.05339  0.60514  1.0000
  N   N6        1.0  0.28461  0.94661  0.39486  1.0000
  N   N7        1.0  0.35679  0.49127  0.26974  1.0000
  N   N8        1.0  0.64321  0.50873  0.73026  1.0000
  N   N9        1.0  0.41722  0.38526  0.19417  1.0000
  N   N10       1.0  0.58278  0.61473  0.80583  1.0000
  N   N11       1.0  0.24731  0.56215  0.10122  1.0000
  N   N12       1.0  0.75269  0.43784  0.89877  1.0000
  N   N13       1.0  0.00349  0.69753  0.70130  1.0000
  N   N14       1.0  0.99650  0.30247  0.29870  1.0000
  N   N15       1.0  0.10124  0.61717  0.78137  1.0000
  N   N16       1.0  0.89876  0.38283  0.21863  1.0000
  N   N17       1.0  0.17169  0.51853  0.61071  1.0000
  N   N18       1.0  0.82831  0.48148  0.38929  1.0000
  N   N19       1.0  0.78820  0.92870  0.93809  1.0000
  N   N20       1.0  0.21180  0.07130  0.06191  1.0000
  N   N21       1.0  0.86864  0.83546  0.02319  1.0000
  N   N22       1.0  0.13137  0.16454  0.97681  1.0000
  N   N23       1.0  0.71144  0.02224  0.11100  1.0000
  N   N24       1.0  0.28857  0.97776  0.88900  1.0000
