data_image0
_chemical_formula_structural       Cu8H16C16N24
_chemical_formula_sum              "Cu8 H16 C16 N24"
_cell_length_a       7.66913
_cell_length_b       8.64828
_cell_length_c       10.5206
_cell_angle_alpha    80.1054
_cell_angle_beta     78.8084
_cell_angle_gamma    80.2888

_space_group_name_H-M_alt    "P 1"
_space_group_IT_number       1

loop_
  _space_group_symop_operation_xyz
  'x, y, z'

loop_
  _atom_site_type_symbol
  _atom_site_label
  _atom_site_symmetry_multiplicity
  _atom_site_fract_x
  _atom_site_fract_y
  _atom_site_fract_z
  _atom_site_occupancy
  Cu  Cu1       1.0  0.42083  0.82369  0.76110  1.0000
  Cu  Cu2       1.0  0.57917  0.17631  0.23890  1.0000
  Cu  Cu3       1.0  0.64298  0.58363  0.52504  1.0000
  Cu  Cu4       1.0  0.35702  0.41637  0.47495  1.0000
  Cu  Cu5       1.0  0.17128  0.10124  0.25520  1.0000
  Cu  Cu6       1.0  0.82872  0.89877  0.74480  1.0000
  Cu  Cu7       1.0  0.92190  0.33322  0.02445  1.0000
  Cu  Cu8       1.0  0.07810  0.66678  0.97555  1.0000
  H   H1        1.0  0.46886  0.79221  0.28133  1.0000
  H   H2        1.0  0.53114  0.20780  0.71867  1.0000
  H   H3        1.0  0.16113  0.05311  0.56837  1.0000
  H   H4        1.0  0.83886  0.94688  0.43163  1.0000
  H   H5        1.0  0.63169  0.63788  0.99302  1.0000
  H   H6        1.0  0.36830  0.36212  0.00698  1.0000
  H   H7        1.0  0.83844  0.30921  0.73255  1.0000
  H   H8        1.0  0.16157  0.69079  0.26744  1.0000
  H   H9        1.0  0.68072  0.56530  0.22158  1.0000
  H   H10       1.0  0.31928  0.43470  0.77842  1.0000
  H   H11       1.0  0.00090  0.31515  0.49144  1.0000
  H   H12       1.0  0.99911  0.68485  0.50855  1.0000
  H   H13       1.0  0.39353  0.85352  0.06235  1.0000
  H   H14       1.0  0.60647  0.14648  0.93765  1.0000
  H   H15       1.0  0.13853  0.15266  0.77496  1.0000
  H   H16       1.0  0.86147  0.84734  0.22504  1.0000
  C   C1        1.0  0.41485  0.83517  0.37378  1.0000
  C   C2        1.0  0.58515  0.16483  0.62622  1.0000
  C   C3        1.0  0.26001  0.96798  0.51925  1.0000
  C   C4        1.0  0.73999  0.03202  0.48075  1.0000
  C   C5        1.0  0.65894  0.57749  0.90781  1.0000
  C   C6        1.0  0.34105  0.42251  0.09220  1.0000
  C   C7        1.0  0.76521  0.41183  0.77543  1.0000
  C   C8        1.0  0.23480  0.58817  0.22457  1.0000
  C   C9        1.0  0.78149  0.48236  0.26633  1.0000
  C   C10       1.0  0.21852  0.51764  0.73367  1.0000
  C   C11       1.0  0.94215  0.35399  0.40350  1.0000
  C   C12       1.0  0.05786  0.64601  0.59650  1.0000
  C   C13       1.0  0.30997  0.94979  0.01313  1.0000
  C   C14       1.0  0.69004  0.05021  0.98687  1.0000
  C   C15       1.0  0.18052  0.10102  0.86757  1.0000
  C   C16       1.0  0.81948  0.89897  0.13243  1.0000
  N   N1        1.0  0.37571  0.86193  0.57949  1.0000
  N   N2        1.0  0.62429  0.13807  0.42051  1.0000
  N   N3        1.0  0.47617  0.77475  0.48463  1.0000
  N   N4        1.0  0.52383  0.22526  0.51537  1.0000
  N   N5        1.0  0.27858  0.95646  0.38999  1.0000
  N   N6        1.0  0.72142  0.04354  0.61001  1.0000
  N   N7        1.0  0.65760  0.52524  0.71301  1.0000
  N   N8        1.0  0.34240  0.47476  0.28699  1.0000
  N   N9        1.0  0.58795  0.63291  0.79991  1.0000
  N   N10       1.0  0.41205  0.36709  0.20009  1.0000
  N   N11       1.0  0.77049  0.43912  0.89786  1.0000
  N   N12       1.0  0.22951  0.56088  0.10214  1.0000
  N   N13       1.0  0.99721  0.28832  0.29416  1.0000
  N   N14       1.0  0.00279  0.71168  0.70584  1.0000
  N   N15       1.0  0.89241  0.37210  0.20480  1.0000
  N   N16       1.0  0.10759  0.62790  0.79520  1.0000
  N   N17       1.0  0.80680  0.47627  0.39134  1.0000
  N   N18       1.0  0.19320  0.52373  0.60866  1.0000
  N   N19       1.0  0.11906  0.16257  0.97859  1.0000
  N   N20       1.0  0.88094  0.83742  0.02141  1.0000
  N   N21       1.0  0.20445  0.06380  0.07360  1.0000
  N   N22       1.0  0.79555  0.93620  0.92640  1.0000
  N   N23       1.0  0.30082  0.96769  0.88384  1.0000
  N   N24       1.0  0.69918  0.03231  0.11616  1.0000
