data_image0
_chemical_formula_structural       Zn4H28C32Br8N20
_chemical_formula_sum              "Zn4 H28 C32 Br8 N20"
_cell_length_a       5.5945
_cell_length_b       10.7224
_cell_length_c       19.4627
_cell_angle_alpha    89.9992
_cell_angle_beta     90.001
_cell_angle_gamma    89.9991

_space_group_name_H-M_alt    "P 1"
_space_group_IT_number       1

loop_
  _space_group_symop_operation_xyz
  'x, y, z'

loop_
  _atom_site_type_symbol
  _atom_site_label
  _atom_site_symmetry_multiplicity
  _atom_site_fract_x
  _atom_site_fract_y
  _atom_site_fract_z
  _atom_site_occupancy
  Zn  Zn1       1.0  0.69243  0.20600  0.10943  1.0000
  Zn  Zn2       1.0  0.19238  0.79401  0.39058  1.0000
  Zn  Zn3       1.0  0.30760  0.29400  0.60942  1.0000
  Zn  Zn4       1.0  0.80758  0.70600  0.89057  1.0000
  H   H1        1.0  0.97985  0.01105  0.98860  1.0000
  H   H2        1.0  0.47976  0.98895  0.51140  1.0000
  H   H3        1.0  0.02018  0.48893  0.48860  1.0000
  H   H4        1.0  0.52017  0.51105  0.01140  1.0000
  H   H5        1.0  0.29568  0.03575  0.07808  1.0000
  H   H6        1.0  0.79558  0.96425  0.42192  1.0000
  H   H7        1.0  0.70435  0.46422  0.57807  1.0000
  H   H8        1.0  0.20434  0.53575  0.92192  1.0000
  H   H9        1.0  0.63280  0.31547  0.96655  1.0000
  H   H10       1.0  0.13273  0.68454  0.53344  1.0000
  H   H11       1.0  0.36726  0.18450  0.46654  1.0000
  H   H12       1.0  0.86722  0.81547  0.03344  1.0000
  H   H13       1.0  0.33287  0.30086  0.87176  1.0000
  H   H14       1.0  0.83281  0.69915  0.62824  1.0000
  H   H15       1.0  0.66721  0.19911  0.37175  1.0000
  H   H16       1.0  0.16715  0.80086  0.12824  1.0000
  H   H17       1.0  0.81292  0.06349  0.88197  1.0000
  H   H18       1.0  0.31287  0.93652  0.61803  1.0000
  H   H19       1.0  0.18713  0.43650  0.38197  1.0000
  H   H20       1.0  0.68710  0.56349  0.11803  1.0000
  H   H21       1.0  0.81126  0.34718  0.70785  1.0000
  H   H22       1.0  0.31124  0.65282  0.79215  1.0000
  H   H23       1.0  0.18878  0.15281  0.20786  1.0000
  H   H24       1.0  0.68874  0.84719  0.29214  1.0000
  H   H25       1.0  0.56300  0.01868  0.80763  1.0000
  H   H26       1.0  0.06298  0.98134  0.69237  1.0000
  H   H27       1.0  0.43701  0.48133  0.30763  1.0000
  H   H28       1.0  0.93700  0.51868  0.19238  1.0000
  C   C1        1.0  0.13240  0.15306  0.92255  1.0000
  C   C2        1.0  0.63236  0.84695  0.57746  1.0000
  C   C3        1.0  0.86764  0.34693  0.42254  1.0000
  C   C4        1.0  0.36762  0.65306  0.07746  1.0000
  C   C5        1.0  0.12333  0.07855  0.98152  1.0000
  C   C6        1.0  0.62324  0.92146  0.51849  1.0000
  C   C7        1.0  0.87672  0.42143  0.48151  1.0000
  C   C8        1.0  0.37669  0.57855  0.01849  1.0000
  C   C9        1.0  0.29793  0.09244  0.03164  1.0000
  C   C10       1.0  0.79785  0.90757  0.46836  1.0000
  C   C11       1.0  0.70210  0.40754  0.53163  1.0000
  C   C12       1.0  0.20209  0.59244  0.96837  1.0000
  C   C13       1.0  0.48559  0.24872  0.96892  1.0000
  C   C14       1.0  0.98553  0.75129  0.53108  1.0000
  C   C15       1.0  0.51446  0.25125  0.46891  1.0000
  C   C16       1.0  0.01443  0.74872  0.03108  1.0000
  C   C17       1.0  0.31946  0.23985  0.91634  1.0000
  C   C18       1.0  0.81941  0.76016  0.58366  1.0000
  C   C19       1.0  0.68058  0.26013  0.41633  1.0000
  C   C20       1.0  0.18054  0.73985  0.08366  1.0000
  C   C21       1.0  0.94432  0.13733  0.87146  1.0000
  C   C22       1.0  0.44427  0.86269  0.62853  1.0000
  C   C23       1.0  0.05573  0.36266  0.37146  1.0000
  C   C24       1.0  0.55569  0.63733  0.12854  1.0000
  C   C25       1.0  0.70301  0.26568  0.71988  1.0000
  C   C26       1.0  0.20300  0.73432  0.78011  1.0000
  C   C27       1.0  0.29702  0.23432  0.21989  1.0000
  C   C28       1.0  0.79699  0.76568  0.28011  1.0000
  C   C29       1.0  0.57431  0.09661  0.77211  1.0000
  C   C30       1.0  0.07429  0.90341  0.72790  1.0000
  C   C31       1.0  0.42571  0.40340  0.27211  1.0000
  C   C32       1.0  0.92569  0.59661  0.22790  1.0000
  Br  Br1       1.0  0.82799  0.00905  0.15084  1.0000
  Br  Br2       1.0  0.32795  0.99095  0.34917  1.0000
  Br  Br3       1.0  0.17207  0.49094  0.65081  1.0000
  Br  Br4       1.0  0.67203  0.50906  0.84917  1.0000
  Br  Br5       1.0  0.96281  0.36858  0.07915  1.0000
  Br  Br6       1.0  0.46278  0.63143  0.42086  1.0000
  Br  Br7       1.0  0.03720  0.13142  0.57915  1.0000
  Br  Br8       1.0  0.53720  0.86858  0.92085  1.0000
  N   N1        1.0  0.47471  0.17664  0.02587  1.0000
  N   N2        1.0  0.97463  0.82337  0.47413  1.0000
  N   N3        1.0  0.52534  0.32333  0.52585  1.0000
  N   N4        1.0  0.02531  0.67664  0.97413  1.0000
  N   N5        1.0  0.93683  0.20858  0.81815  1.0000
  N   N6        1.0  0.43680  0.79142  0.68186  1.0000
  N   N7        1.0  0.06320  0.29142  0.31815  1.0000
  N   N8        1.0  0.56317  0.70858  0.18185  1.0000
  N   N9        1.0  0.74930  0.18797  0.77386  1.0000
  N   N10       1.0  0.24928  0.81204  0.72614  1.0000
  N   N11       1.0  0.25073  0.31203  0.27386  1.0000
  N   N12       1.0  0.75070  0.68798  0.22614  1.0000
  N   N13       1.0  0.51220  0.22388  0.68748  1.0000
  N   N14       1.0  0.01218  0.77612  0.81252  1.0000
  N   N15       1.0  0.48783  0.27612  0.18748  1.0000
  N   N16       1.0  0.98780  0.72389  0.31252  1.0000
  N   N17       1.0  0.43113  0.11703  0.72003  1.0000
  N   N18       1.0  0.93112  0.88298  0.77997  1.0000
  N   N19       1.0  0.56889  0.38298  0.22003  1.0000
  N   N20       1.0  0.06887  0.61703  0.27998  1.0000
