data_image0
_chemical_formula_structural       Na2H16C16S2N2O14
_chemical_formula_sum              "Na2 H16 C16 S2 N2 O14"
_cell_length_a       7.28702
_cell_length_b       8.03023
_cell_length_c       10.6574
_cell_angle_alpha    86.8978
_cell_angle_beta     80.3889
_cell_angle_gamma    65.4495

_space_group_name_H-M_alt    "P 1"
_space_group_IT_number       1

loop_
  _space_group_symop_operation_xyz
  'x, y, z'

loop_
  _atom_site_type_symbol
  _atom_site_label
  _atom_site_symmetry_multiplicity
  _atom_site_fract_x
  _atom_site_fract_y
  _atom_site_fract_z
  _atom_site_occupancy
  Na  Na1       1.0  0.62139  0.56890  0.10722  1.0000
  Na  Na2       1.0  0.37862  0.43110  0.89278  1.0000
  H   H1        1.0  0.20641  0.88228  0.16900  1.0000
  H   H2        1.0  0.79359  0.11772  0.83100  1.0000
  H   H3        1.0  0.39153  0.92718  0.19242  1.0000
  H   H4        1.0  0.60847  0.07283  0.80758  1.0000
  H   H5        1.0  0.00693  0.28606  0.00810  1.0000
  H   H6        1.0  0.99307  0.71393  0.99190  1.0000
  H   H7        1.0  0.90943  0.18783  0.11492  1.0000
  H   H8        1.0  0.09057  0.81216  0.88508  1.0000
  H   H9        1.0  0.94656  0.65539  0.80369  1.0000
  H   H10       1.0  0.05345  0.34461  0.19631  1.0000
  H   H11       1.0  0.53925  0.75889  0.39855  1.0000
  H   H12       1.0  0.46073  0.24113  0.60145  1.0000
  H   H13       1.0  0.08553  0.85889  0.36332  1.0000
  H   H14       1.0  0.91447  0.14111  0.63667  1.0000
  H   H15       1.0  0.13192  0.75578  0.58489  1.0000
  H   H16       1.0  0.86808  0.24422  0.41510  1.0000
  C   C1        1.0  0.68907  0.60533  0.77952  1.0000
  C   C2        1.0  0.31094  0.39467  0.22048  1.0000
  C   C3        1.0  0.57930  0.63214  0.66079  1.0000
  C   C4        1.0  0.42071  0.36786  0.33922  1.0000
  C   C5        1.0  0.69416  0.70201  0.56248  1.0000
  C   C6        1.0  0.30585  0.29799  0.43752  1.0000
  C   C7        1.0  0.66709  0.75953  0.43890  1.0000
  C   C8        1.0  0.33290  0.24048  0.56110  1.0000
  C   C9        1.0  0.80925  0.81870  0.36891  1.0000
  C   C10       1.0  0.19074  0.18130  0.63109  1.0000
  C   C11       1.0  0.97452  0.81662  0.42102  1.0000
  C   C12       1.0  0.02549  0.18337  0.57898  1.0000
  C   C13       1.0  0.00133  0.75978  0.54573  1.0000
  C   C14       1.0  0.99867  0.24022  0.45427  1.0000
  C   C15       1.0  0.85823  0.70510  0.61584  1.0000
  C   C16       1.0  0.14177  0.29490  0.38417  1.0000
  S   S1        1.0  0.78024  0.89373  0.21031  1.0000
  S   S2        1.0  0.21976  0.10628  0.78969  1.0000
  N   N1        1.0  0.85193  0.64692  0.74217  1.0000
  N   N2        1.0  0.14807  0.35308  0.25784  1.0000
  O   O1        1.0  0.63280  0.55631  0.88524  1.0000
  O   O2        1.0  0.36721  0.44369  0.11477  1.0000
  O   O3        1.0  0.43301  0.59422  0.65984  1.0000
  O   O4        1.0  0.56699  0.40578  0.34016  1.0000
  O   O5        1.0  0.92934  0.97376  0.16977  1.0000
  O   O6        1.0  0.07066  0.02624  0.83023  1.0000
  O   O7        1.0  0.56767  0.02704  0.21441  1.0000
  O   O8        1.0  0.43232  0.97297  0.78559  1.0000
  O   O9        1.0  0.82748  0.72798  0.13434  1.0000
  O   O10       1.0  0.17252  0.27202  0.86566  1.0000
  O   O11       1.0  0.34449  0.82883  0.19141  1.0000
  O   O12       1.0  0.65551  0.17117  0.80859  1.0000
  O   O13       1.0  0.92192  0.30453  0.09347  1.0000
  O   O14       1.0  0.07808  0.69546  0.90653  1.0000
