data_image0
_chemical_formula_structural       H24Pb2C34N4Cl4O4
_chemical_formula_sum              "H24 Pb2 C34 N4 Cl4 O4"
_cell_length_a       8.3525
_cell_length_b       9.4532
_cell_length_c       10.7581
_cell_angle_alpha    95.5579
_cell_angle_beta     91.8386
_cell_angle_gamma    92.2935

_space_group_name_H-M_alt    "P 1"
_space_group_IT_number       1

loop_
  _space_group_symop_operation_xyz
  'x, y, z'

loop_
  _atom_site_type_symbol
  _atom_site_label
  _atom_site_symmetry_multiplicity
  _atom_site_fract_x
  _atom_site_fract_y
  _atom_site_fract_z
  _atom_site_occupancy
  H   H1        1.0  0.43150  0.74207  0.68580  1.0000
  H   H2        1.0  0.56856  0.25792  0.31405  1.0000
  H   H3        1.0  0.48736  0.49491  0.74636  1.0000
  H   H4        1.0  0.51260  0.50515  0.25368  1.0000
  H   H5        1.0  0.35904  0.28612  0.61666  1.0000
  H   H6        1.0  0.64097  0.71387  0.38343  1.0000
  H   H7        1.0  0.17670  0.32421  0.43753  1.0000
  H   H8        1.0  0.82344  0.67567  0.56246  1.0000
  H   H9        1.0  0.06441  0.36357  0.28143  1.0000
  H   H10       1.0  0.93557  0.63633  0.71849  1.0000
  H   H11       1.0  0.89879  0.42352  0.10067  1.0000
  H   H12       1.0  0.10121  0.57645  0.89924  1.0000
  H   H13       1.0  0.85088  0.68203  0.07658  1.0000
  H   H14       1.0  0.14903  0.31795  0.92346  1.0000
  H   H15       1.0  0.97342  0.86689  0.23838  1.0000
  H   H16       1.0  0.02642  0.13303  0.76174  1.0000
  H   H17       1.0  0.73160  0.07709  0.18985  1.0000
  H   H18       1.0  0.26834  0.92305  0.81014  1.0000
  H   H19       1.0  0.87304  0.05492  0.98972  1.0000
  H   H20       1.0  0.12695  0.94522  0.01030  1.0000
  H   H21       1.0  0.79672  0.85372  0.82794  1.0000
  H   H22       1.0  0.20346  0.14631  0.17214  1.0000
  H   H23       1.0  0.57627  0.67999  0.86907  1.0000
  H   H24       1.0  0.42383  0.32008  0.13095  1.0000
  Pb  Pb1       1.0  0.24358  0.91684  0.47765  1.0000
  Pb  Pb2       1.0  0.75634  0.08320  0.52237  1.0000
  C   C1        1.0  0.37788  0.64564  0.63404  1.0000
  C   C2        1.0  0.62216  0.35434  0.36587  1.0000
  C   C3        1.0  0.40835  0.50993  0.66660  1.0000
  C   C4        1.0  0.59167  0.49006  0.33339  1.0000
  C   C5        1.0  0.33579  0.39331  0.59424  1.0000
  C   C6        1.0  0.66424  0.60665  0.40579  1.0000
  C   C7        1.0  0.23581  0.41547  0.49279  1.0000
  C   C8        1.0  0.76425  0.58445  0.50720  1.0000
  C   C9        1.0  0.21169  0.55478  0.46440  1.0000
  C   C10       1.0  0.78833  0.44512  0.53555  1.0000
  C   C11       1.0  0.10953  0.58450  0.35553  1.0000
  C   C12       1.0  0.89044  0.41539  0.64444  1.0000
  C   C13       1.0  0.04464  0.47466  0.26914  1.0000
  C   C14       1.0  0.95534  0.52524  0.73081  1.0000
  C   C15       1.0  0.95088  0.50817  0.16772  1.0000
  C   C16       1.0  0.04909  0.49177  0.83223  1.0000
  C   C17       1.0  0.92369  0.65046  0.15415  1.0000
  C   C18       1.0  0.07624  0.34949  0.84587  1.0000
  C   C19       1.0  0.99133  0.75382  0.24379  1.0000
  C   C20       1.0  0.00857  0.24611  0.75628  1.0000
  C   C21       1.0  0.49640  0.91911  0.26848  1.0000
  C   C22       1.0  0.50360  0.08094  0.73153  1.0000
  C   C23       1.0  0.57340  0.89441  0.14364  1.0000
  C   C24       1.0  0.42663  0.10566  0.85636  1.0000
  C   C25       1.0  0.69803  0.99069  0.11813  1.0000
  C   C26       1.0  0.30196  0.00941  0.88187  1.0000
  C   C27       1.0  0.77820  0.97728  0.00657  1.0000
  C   C28       1.0  0.22182  0.02283  0.99345  1.0000
  C   C29       1.0  0.73546  0.86478  0.91623  1.0000
  C   C30       1.0  0.26465  0.13528  0.08382  1.0000
  C   C31       1.0  0.61206  0.76790  0.93853  1.0000
  C   C32       1.0  0.38803  0.23217  0.06149  1.0000
  C   C33       1.0  0.53068  0.78268  0.05028  1.0000
  C   C34       1.0  0.46935  0.21741  0.94971  1.0000
  N   N1        1.0  0.28265  0.66717  0.53538  1.0000
  N   N2        1.0  0.71736  0.33276  0.46453  1.0000
  N   N3        1.0  0.08141  0.72196  0.34174  1.0000
  N   N4        1.0  0.91853  0.27794  0.65829  1.0000
  Cl  Cl1       1.0  0.37301  0.65957  0.06254  1.0000
  Cl  Cl2       1.0  0.62696  0.34057  0.93741  1.0000
  Cl  Cl3       1.0  0.97969  0.89061  0.65057  1.0000
  Cl  Cl4       1.0  0.02021  0.10931  0.34949  1.0000
  O   O1        1.0  0.40686  0.81898  0.30352  1.0000
  O   O2        1.0  0.59304  0.18111  0.69646  1.0000
  O   O3        1.0  0.52649  0.03739  0.33395  1.0000
  O   O4        1.0  0.47357  0.96263  0.66609  1.0000
