data_image0
_chemical_formula_structural       U2H30C34N2O16
_chemical_formula_sum              "U2 H30 C34 N2 O16"
_cell_length_a       8.44335
_cell_length_b       10.2084
_cell_length_c       10.7824
_cell_angle_alpha    80.6621
_cell_angle_beta     86.6291
_cell_angle_gamma    85.5761

_space_group_name_H-M_alt    "P 1"
_space_group_IT_number       1

loop_
  _space_group_symop_operation_xyz
  'x, y, z'

loop_
  _atom_site_type_symbol
  _atom_site_label
  _atom_site_symmetry_multiplicity
  _atom_site_fract_x
  _atom_site_fract_y
  _atom_site_fract_z
  _atom_site_occupancy
  U   U1        1.0  0.08125  0.75615  0.09938  1.0000
  U   U2        1.0  0.91875  0.24384  0.90062  1.0000
  H   H1        1.0  0.21753  0.44700  0.99514  1.0000
  H   H2        1.0  0.78248  0.55300  0.00487  1.0000
  H   H3        1.0  0.46433  0.60030  0.68661  1.0000
  H   H4        1.0  0.53567  0.39971  0.31339  1.0000
  H   H5        1.0  0.62360  0.54202  0.78872  1.0000
  H   H6        1.0  0.37641  0.45798  0.21128  1.0000
  H   H7        1.0  0.48686  0.67763  0.82119  1.0000
  H   H8        1.0  0.51315  0.32238  0.17881  1.0000
  H   H9        1.0  0.32752  0.29395  0.89871  1.0000
  H   H10       1.0  0.67248  0.70605  0.10129  1.0000
  H   H11       1.0  0.53208  0.31050  0.84653  1.0000
  H   H12       1.0  0.46792  0.68950  0.15346  1.0000
  H   H13       1.0  0.37750  0.35163  0.73777  1.0000
  H   H14       1.0  0.62250  0.64838  0.26223  1.0000
  H   H15       1.0  0.49020  0.89042  0.91461  1.0000
  H   H16       1.0  0.50979  0.10959  0.08538  1.0000
  H   H17       1.0  0.74288  0.92309  0.78307  1.0000
  H   H18       1.0  0.25712  0.07692  0.21693  1.0000
  H   H19       1.0  0.95148  0.06620  0.36556  1.0000
  H   H20       1.0  0.04852  0.93379  0.63444  1.0000
  H   H21       1.0  0.04803  0.26926  0.22830  1.0000
  H   H22       1.0  0.95197  0.73074  0.77170  1.0000
  H   H23       1.0  0.77663  0.51714  0.46190  1.0000
  H   H24       1.0  0.22338  0.48285  0.53811  1.0000
  H   H25       1.0  0.67597  0.31534  0.59678  1.0000
  H   H26       1.0  0.32404  0.68465  0.40322  1.0000
  H   H27       1.0  0.48210  0.18020  0.49624  1.0000
  H   H28       1.0  0.51790  0.81980  0.50376  1.0000
  H   H29       1.0  0.23175  0.15122  0.62968  1.0000
  H   H30       1.0  0.76824  0.84878  0.37031  1.0000
  C   C1        1.0  0.28976  0.52626  0.94539  1.0000
  C   C2        1.0  0.71024  0.47374  0.05462  1.0000
  C   C3        1.0  0.49952  0.58314  0.78493  1.0000
  C   C4        1.0  0.50048  0.41686  0.21507  1.0000
  C   C5        1.0  0.40988  0.35302  0.83464  1.0000
  C   C6        1.0  0.59012  0.64698  0.16536  1.0000
  C   C7        1.0  0.19797  0.00398  0.86070  1.0000
  C   C8        1.0  0.80202  0.99602  0.13929  1.0000
  C   C9        1.0  0.34545  0.01878  0.78024  1.0000
  C   C10       1.0  0.65454  0.98123  0.21975  1.0000
  C   C11       1.0  0.48961  0.95290  0.82248  1.0000
  C   C12       1.0  0.51038  0.04710  0.17752  1.0000
  C   C13       1.0  0.62973  0.97012  0.74954  1.0000
  C   C14       1.0  0.37027  0.02989  0.25046  1.0000
  C   C15       1.0  0.62623  0.05419  0.63319  1.0000
  C   C16       1.0  0.37376  0.94581  0.36681  1.0000
  C   C17       1.0  0.80686  0.17993  0.48737  1.0000
  C   C18       1.0  0.19314  0.82007  0.51263  1.0000
  C   C19       1.0  0.91281  0.16546  0.38487  1.0000
  C   C20       1.0  0.08719  0.83453  0.61513  1.0000
  C   C21       1.0  0.96837  0.27828  0.31021  1.0000
  C   C22       1.0  0.03163  0.72172  0.68979  1.0000
  C   C23       1.0  0.91930  0.40547  0.33763  1.0000
  C   C24       1.0  0.08070  0.59452  0.66237  1.0000
  C   C25       1.0  0.81204  0.41809  0.44017  1.0000
  C   C26       1.0  0.18797  0.58190  0.55983  1.0000
  C   C27       1.0  0.75452  0.30623  0.51475  1.0000
  C   C28       1.0  0.24548  0.69377  0.48525  1.0000
  C   C29       1.0  0.97901  0.52515  0.25899  1.0000
  C   C30       1.0  0.02100  0.47485  0.74101  1.0000
  C   C31       1.0  0.48326  0.11829  0.58850  1.0000
  C   C32       1.0  0.51673  0.88172  0.41149  1.0000
  C   C33       1.0  0.34372  0.10095  0.66237  1.0000
  C   C34       1.0  0.65628  0.89905  0.33763  1.0000
  N   N1        1.0  0.39646  0.48948  0.86009  1.0000
  N   N2        1.0  0.60355  0.51052  0.13992  1.0000
  O   O1        1.0  0.27069  0.64350  0.97059  1.0000
  O   O2        1.0  0.72932  0.35649  0.02942  1.0000
  O   O3        1.0  0.20252  0.92413  0.96461  1.0000
  O   O4        1.0  0.79747  0.07587  0.03539  1.0000
  O   O5        1.0  0.08447  0.51484  0.16929  1.0000
  O   O6        1.0  0.91553  0.48515  0.83071  1.0000
  O   O7        1.0  0.23520  0.76494  0.20712  1.0000
  O   O8        1.0  0.76479  0.23507  0.79288  1.0000
  O   O9        1.0  0.92526  0.64219  0.27696  1.0000
  O   O10       1.0  0.07474  0.35781  0.72304  1.0000
  O   O11       1.0  0.07020  0.07261  0.82455  1.0000
  O   O12       1.0  0.92979  0.92739  0.17545  1.0000
  O   O13       1.0  0.76784  0.06337  0.56328  1.0000
  O   O14       1.0  0.23216  0.93663  0.43672  1.0000
  O   O15       1.0  0.92437  0.74898  0.99237  1.0000
  O   O16       1.0  0.07562  0.25101  0.00763  1.0000
