data_image0
_chemical_formula_structural       Zn2H20C24Br4N4
_chemical_formula_sum              "Zn2 H20 C24 Br4 N4"
_cell_length_a       5.42969
_cell_length_b       7.75064
_cell_length_c       15.5856
_cell_angle_alpha    79.936
_cell_angle_beta     88.1411
_cell_angle_gamma    88.8042

_space_group_name_H-M_alt    "P 1"
_space_group_IT_number       1

loop_
  _space_group_symop_operation_xyz
  'x, y, z'

loop_
  _atom_site_type_symbol
  _atom_site_label
  _atom_site_symmetry_multiplicity
  _atom_site_fract_x
  _atom_site_fract_y
  _atom_site_fract_z
  _atom_site_occupancy
  Zn  Zn1       1.0  0.33370  0.49598  0.74342  1.0000
  Zn  Zn2       1.0  0.66629  0.50403  0.25657  1.0000
  H   H1        1.0  0.26824  0.09815  0.78519  1.0000
  H   H2        1.0  0.73177  0.90186  0.21481  1.0000
  H   H3        1.0  0.98289  0.89155  0.87735  1.0000
  H   H4        1.0  0.01713  0.10844  0.12265  1.0000
  H   H5        1.0  0.62626  0.34128  0.96187  1.0000
  H   H6        1.0  0.37373  0.65871  0.03813  1.0000
  H   H7        1.0  0.93145  0.52552  0.87084  1.0000
  H   H8        1.0  0.06854  0.47448  0.12916  1.0000
  H   H9        1.0  0.94697  0.75950  0.75723  1.0000
  H   H10       1.0  0.05304  0.24052  0.24277  1.0000
  H   H11       1.0  0.63937  0.93640  0.66725  1.0000
  H   H12       1.0  0.36065  0.06363  0.33274  1.0000
  H   H13       1.0  0.96502  0.74066  0.44446  1.0000
  H   H14       1.0  0.03495  0.25932  0.55555  1.0000
  H   H15       1.0  0.26019  0.56752  0.54578  1.0000
  H   H16       1.0  0.73976  0.43245  0.45423  1.0000
  H   H17       1.0  0.65367  0.83789  0.98458  1.0000
  H   H18       1.0  0.34635  0.16209  0.01543  1.0000
  H   H19       1.0  0.62866  0.94539  0.41877  1.0000
  H   H20       1.0  0.37133  0.05462  0.58123  1.0000
  C   C1        1.0  0.12142  0.14593  0.82486  1.0000
  C   C2        1.0  0.87860  0.85407  0.17514  1.0000
  C   C3        1.0  0.96008  0.03193  0.87599  1.0000
  C   C4        1.0  0.03995  0.96806  0.12401  1.0000
  C   C5        1.0  0.77238  0.09720  0.92650  1.0000
  C   C6        1.0  0.22764  0.90280  0.07350  1.0000
  C   C7        1.0  0.76253  0.27961  0.92376  1.0000
  C   C8        1.0  0.23747  0.72039  0.07624  1.0000
  C   C9        1.0  0.93342  0.38444  0.87258  1.0000
  C   C10       1.0  0.06658  0.61556  0.12742  1.0000
  C   C11       1.0  0.94319  0.75747  0.68765  1.0000
  C   C12       1.0  0.05681  0.24254  0.31235  1.0000
  C   C13       1.0  0.77063  0.85663  0.63638  1.0000
  C   C14       1.0  0.22938  0.14339  0.36362  1.0000
  C   C15       1.0  0.77057  0.85254  0.54649  1.0000
  C   C16       1.0  0.22943  0.14746  0.45351  1.0000
  C   C17       1.0  0.95198  0.74688  0.51377  1.0000
  C   C18       1.0  0.04800  0.25310  0.48624  1.0000
  C   C19       1.0  0.11769  0.65007  0.56966  1.0000
  C   C20       1.0  0.88228  0.34991  0.43034  1.0000
  C   C21       1.0  0.60377  0.97645  0.97954  1.0000
  C   C22       1.0  0.39622  0.02356  0.02047  1.0000
  C   C23       1.0  0.59654  0.95253  0.48763  1.0000
  C   C24       1.0  0.40345  0.04747  0.51237  1.0000
  Br  Br1       1.0  0.60782  0.33379  0.66566  1.0000
  Br  Br2       1.0  0.39218  0.66622  0.33434  1.0000
  Br  Br3       1.0  0.43586  0.69323  0.84055  1.0000
  Br  Br4       1.0  0.56416  0.30679  0.15944  1.0000
  N   N1        1.0  0.10911  0.32041  0.82292  1.0000
  N   N2        1.0  0.89089  0.67958  0.17708  1.0000
  N   N3        1.0  0.11344  0.65399  0.65581  1.0000
  N   N4        1.0  0.88655  0.34601  0.34419  1.0000
