data_image0
_chemical_formula_structural       CdH10C12Br2N2
_chemical_formula_sum              "Cd1 H10 C12 Br2 N2"
_cell_length_a       3.92908
_cell_length_b       8.70709
_cell_length_c       9.34791
_cell_angle_alpha    76.6761
_cell_angle_beta     87.1198
_cell_angle_gamma    82.6334

_space_group_name_H-M_alt    "P 1"
_space_group_IT_number       1

loop_
  _space_group_symop_operation_xyz
  'x, y, z'

loop_
  _atom_site_type_symbol
  _atom_site_label
  _atom_site_symmetry_multiplicity
  _atom_site_fract_x
  _atom_site_fract_y
  _atom_site_fract_z
  _atom_site_occupancy
  Cd  Cd1       1.0  0.50001  0.50000  0.50000  1.0000
  H   H1        1.0  0.66206  0.13236  0.88838  1.0000
  H   H2        1.0  0.33795  0.86764  0.11162  1.0000
  H   H3        1.0  0.79244  0.34964  0.97305  1.0000
  H   H4        1.0  0.20756  0.65036  0.02696  1.0000
  H   H5        1.0  0.77748  0.50212  0.17138  1.0000
  H   H6        1.0  0.22251  0.49788  0.82863  1.0000
  H   H7        1.0  0.33456  0.15165  0.47010  1.0000
  H   H8        1.0  0.66542  0.84834  0.52990  1.0000
  H   H9        1.0  0.33034  0.98434  0.28805  1.0000
  H   H10       1.0  0.66965  0.01566  0.71194  1.0000
  C   C1        1.0  0.55930  0.07078  0.99390  1.0000
  C   C2        1.0  0.44070  0.92922  0.00610  1.0000
  C   C3        1.0  0.56061  0.15385  0.11206  1.0000
  C   C4        1.0  0.43939  0.84615  0.88794  1.0000
  C   C5        1.0  0.68901  0.30179  0.08239  1.0000
  C   C6        1.0  0.31099  0.69821  0.91761  1.0000
  C   C7        1.0  0.68116  0.38673  0.19146  1.0000
  C   C8        1.0  0.31885  0.61327  0.80854  1.0000
  C   C9        1.0  0.43796  0.18983  0.35885  1.0000
  C   C10       1.0  0.56202  0.81017  0.64114  1.0000
  C   C11       1.0  0.43549  0.09759  0.25617  1.0000
  C   C12       1.0  0.56450  0.90242  0.74383  1.0000
  Br  Br1       1.0  0.97048  0.69181  0.33204  1.0000
  Br  Br2       1.0  0.02956  0.30818  0.66797  1.0000
  N   N1        1.0  0.55574  0.33307  0.32787  1.0000
  N   N2        1.0  0.44425  0.66693  0.67213  1.0000
