data_image0
_chemical_formula_structural       Cu2H28C20S4I2
_chemical_formula_sum              "Cu2 H28 C20 S4 I2"
_cell_length_a       7.37792
_cell_length_b       8.56374
_cell_length_c       11.3628
_cell_angle_alpha    67.8526
_cell_angle_beta     83.8794
_cell_angle_gamma    73.5766

_space_group_name_H-M_alt    "P 1"
_space_group_IT_number       1

loop_
  _space_group_symop_operation_xyz
  'x, y, z'

loop_
  _atom_site_type_symbol
  _atom_site_label
  _atom_site_symmetry_multiplicity
  _atom_site_fract_x
  _atom_site_fract_y
  _atom_site_fract_z
  _atom_site_occupancy
  Cu  Cu1       1.0  0.50009  0.43709  0.12579  1.0000
  Cu  Cu2       1.0  0.49991  0.56292  0.87421  1.0000
  H   H1        1.0  0.33413  0.64392  0.29087  1.0000
  H   H2        1.0  0.66575  0.06482  0.29081  1.0000
  H   H3        1.0  0.66587  0.35608  0.70913  1.0000
  H   H4        1.0  0.33424  0.93519  0.70918  1.0000
  H   H5        1.0  0.16884  0.68210  0.48630  1.0000
  H   H6        1.0  0.83087  0.83098  0.48624  1.0000
  H   H7        1.0  0.83116  0.31789  0.51371  1.0000
  H   H8        1.0  0.16912  0.16903  0.51376  1.0000
  H   H9        1.0  0.86106  0.63317  0.09497  1.0000
  H   H10       1.0  0.13825  0.27207  0.09537  1.0000
  H   H11       1.0  0.13893  0.36684  0.90503  1.0000
  H   H12       1.0  0.86174  0.72793  0.90462  1.0000
  H   H13       1.0  0.64242  0.75403  0.13660  1.0000
  H   H14       1.0  0.35706  0.10968  0.13653  1.0000
  H   H15       1.0  0.35758  0.24597  0.86340  1.0000
  H   H16       1.0  0.64294  0.89033  0.86346  1.0000
  H   H17       1.0  0.79561  0.71311  0.34112  1.0000
  H   H18       1.0  0.20454  0.94577  0.34148  1.0000
  H   H19       1.0  0.20440  0.28689  0.65889  1.0000
  H   H20       1.0  0.79547  0.05423  0.65852  1.0000
  H   H21       1.0  0.91386  0.82279  0.20323  1.0000
  H   H22       1.0  0.08585  0.97392  0.20377  1.0000
  H   H23       1.0  0.08614  0.17721  0.79677  1.0000
  H   H24       1.0  0.91417  0.02607  0.79622  1.0000
  H   H25       1.0  0.01336  0.59740  0.29282  1.0000
  H   H26       1.0  0.98669  0.10972  0.29339  1.0000
  H   H27       1.0  0.98664  0.40260  0.70718  1.0000
  H   H28       1.0  0.01332  0.89027  0.70660  1.0000
  C   C1        1.0  0.40597  0.58151  0.38269  1.0000
  C   C2        1.0  0.59394  0.03555  0.38266  1.0000
  C   C3        1.0  0.59402  0.41849  0.61731  1.0000
  C   C4        1.0  0.40605  0.96445  0.61734  1.0000
  C   C5        1.0  0.59213  0.47786  0.39114  1.0000
  C   C6        1.0  0.40798  0.13110  0.39113  1.0000
  C   C7        1.0  0.40787  0.52213  0.60886  1.0000
  C   C8        1.0  0.59202  0.86890  0.60887  1.0000
  C   C9        1.0  0.31443  0.60310  0.49154  1.0000
  C   C10       1.0  0.68539  0.90496  0.49151  1.0000
  C   C11       1.0  0.68556  0.39690  0.50847  1.0000
  C   C12       1.0  0.31460  0.09505  0.50849  1.0000
  C   C13       1.0  0.77358  0.65294  0.17526  1.0000
  C   C14       1.0  0.22610  0.17193  0.17546  1.0000
  C   C15       1.0  0.22642  0.34706  0.82475  1.0000
  C   C16       1.0  0.77390  0.82807  0.82453  1.0000
  C   C17       1.0  0.88068  0.69815  0.25900  1.0000
  C   C18       1.0  0.11925  0.04281  0.25943  1.0000
  C   C19       1.0  0.11932  0.30185  0.74101  1.0000
  C   C20       1.0  0.88076  0.95718  0.74056  1.0000
  S   S1        1.0  0.71408  0.44427  0.25520  1.0000
  S   S2        1.0  0.28599  0.30064  0.25524  1.0000
  S   S3        1.0  0.28592  0.55573  0.74480  1.0000
  S   S4        1.0  0.71401  0.69936  0.74476  1.0000
  I   I1        1.0  0.28852  0.75431  0.00003  1.0000
  I   I2        1.0  0.71149  0.24570  0.99997  1.0000
