data_image0
_chemical_formula_structural       ZnH16PdC12N2Cl2O8
_chemical_formula_sum              "Zn1 H16 Pd1 C12 N2 Cl2 O8"
_cell_length_a       5.5052
_cell_length_b       6.69881
_cell_length_c       12.4603
_cell_angle_alpha    102.016
_cell_angle_beta     98.5597
_cell_angle_gamma    94.8958

_space_group_name_H-M_alt    "P 1"
_space_group_IT_number       1

loop_
  _space_group_symop_operation_xyz
  'x, y, z'

loop_
  _atom_site_type_symbol
  _atom_site_label
  _atom_site_symmetry_multiplicity
  _atom_site_fract_x
  _atom_site_fract_y
  _atom_site_fract_z
  _atom_site_occupancy
  Zn  Zn1       1.0  0.50000  0.49999  0.50000  1.0000
  H   H1        1.0  0.61744  0.95104  0.08979  1.0000
  H   H2        1.0  0.38256  0.04896  0.91021  1.0000
  H   H3        1.0  0.94539  0.18485  0.23029  1.0000
  H   H4        1.0  0.05459  0.81515  0.76972  1.0000
  H   H5        1.0  0.98878  0.44327  0.11571  1.0000
  H   H6        1.0  0.01123  0.55673  0.88428  1.0000
  H   H7        1.0  0.32936  0.65680  0.25339  1.0000
  H   H8        1.0  0.67065  0.34321  0.74661  1.0000
  H   H9        1.0  0.03451  0.65013  0.44391  1.0000
  H   H10       1.0  0.96548  0.34986  0.55609  1.0000
  H   H11       1.0  0.25677  0.81086  0.52815  1.0000
  H   H12       1.0  0.74322  0.18913  0.47185  1.0000
  H   H13       1.0  0.65771  0.53254  0.30638  1.0000
  H   H14       1.0  0.34229  0.46745  0.69362  1.0000
  H   H15       1.0  0.64519  0.76183  0.37261  1.0000
  H   H16       1.0  0.35480  0.23817  0.62739  1.0000
  Pd  Pd1       1.0  0.50000  0.50000  1.00000  1.0000
  C   C1        1.0  0.17781  0.73018  0.21926  1.0000
  C   C2        1.0  0.82218  0.26984  0.78075  1.0000
  C   C3        1.0  0.77885  0.89258  0.12808  1.0000
  C   C4        1.0  0.22115  0.10741  0.87192  1.0000
  C   C5        1.0  0.16646  0.94035  0.25385  1.0000
  C   C6        1.0  0.83355  0.05963  0.74615  1.0000
  C   C7        1.0  0.96301  0.02197  0.20584  1.0000
  C   C8        1.0  0.03698  0.97806  0.79416  1.0000
  C   C9        1.0  0.98717  0.60824  0.14212  1.0000
  C   C10       1.0  0.01285  0.39175  0.85788  1.0000
  C   C11       1.0  0.36459  0.07563  0.34181  1.0000
  C   C12       1.0  0.63539  0.92439  0.65819  1.0000
  N   N1        1.0  0.78919  0.68842  0.09832  1.0000
  N   N2        1.0  0.21081  0.31159  0.90167  1.0000
  Cl  Cl1       1.0  0.48546  0.31763  0.13794  1.0000
  Cl  Cl2       1.0  0.51455  0.68238  0.86206  1.0000
  O   O1        1.0  0.21504  0.68149  0.46871  1.0000
  O   O2        1.0  0.78496  0.31850  0.53130  1.0000
  O   O3        1.0  0.70157  0.62611  0.38066  1.0000
  O   O4        1.0  0.29842  0.37389  0.61934  1.0000
  O   O5        1.0  0.56407  0.00364  0.37134  1.0000
  O   O6        1.0  0.43594  0.99635  0.62866  1.0000
  O   O7        1.0  0.31266  0.25589  0.37935  1.0000
  O   O8        1.0  0.68734  0.74409  0.62066  1.0000
