data_image0
_chemical_formula_structural       Ca2H20C20N4Cl4
_chemical_formula_sum              "Ca2 H20 C20 N4 Cl4"
_cell_length_a       3.94946
_cell_length_b       9.24795
_cell_length_c       16.458
_cell_angle_alpha    88.4641
_cell_angle_beta     83.1455
_cell_angle_gamma    77.1263

_space_group_name_H-M_alt    "P 1"
_space_group_IT_number       1

loop_
  _space_group_symop_operation_xyz
  'x, y, z'

loop_
  _atom_site_type_symbol
  _atom_site_label
  _atom_site_symmetry_multiplicity
  _atom_site_fract_x
  _atom_site_fract_y
  _atom_site_fract_z
  _atom_site_occupancy
  Ca  Ca1       1.0  0.98453  0.99938  0.99959  1.0000
  Ca  Ca2       1.0  0.23459  0.49914  0.50034  1.0000
  H   H1        1.0  0.23943  0.87815  0.17959  1.0000
  H   H2        1.0  0.29670  0.12102  0.82011  1.0000
  H   H3        1.0  0.66949  0.37810  0.32031  1.0000
  H   H4        1.0  0.36726  0.62017  0.67999  1.0000
  H   H5        1.0  0.30571  0.65991  0.27551  1.0000
  H   H6        1.0  0.24133  0.34094  0.72559  1.0000
  H   H7        1.0  0.83175  0.15981  0.22446  1.0000
  H   H8        1.0  0.21824  0.83994  0.77460  1.0000
  H   H9        1.0  0.17632  0.42341  0.22881  1.0000
  H   H10       1.0  0.82470  0.57873  0.77300  1.0000
  H   H11       1.0  0.65538  0.92337  0.27114  1.0000
  H   H12       1.0  0.84959  0.07798  0.72721  1.0000
  H   H13       1.0  0.97823  0.41582  0.09051  1.0000
  H   H14       1.0  0.47740  0.58564  0.91072  1.0000
  H   H15       1.0  0.31913  0.91579  0.40934  1.0000
  H   H16       1.0  0.63974  0.08532  0.58941  1.0000
  H   H17       1.0  0.90459  0.64747  0.00445  1.0000
  H   H18       1.0  0.55077  0.35278  0.99573  1.0000
  H   H19       1.0  0.15963  0.14745  0.49537  1.0000
  H   H20       1.0  0.79702  0.85258  0.50434  1.0000
  C   C1        1.0  0.17940  0.77380  0.16303  1.0000
  C   C2        1.0  0.11384  0.22589  0.83696  1.0000
  C   C3        1.0  0.59292  0.27373  0.33686  1.0000
  C   C4        1.0  0.20135  0.72513  0.66316  1.0000
  C   C5        1.0  0.21885  0.65224  0.21566  1.0000
  C   C6        1.0  0.08448  0.34846  0.78509  1.0000
  C   C7        1.0  0.68501  0.15216  0.28428  1.0000
  C   C8        1.0  0.12113  0.84764  0.71502  1.0000
  C   C9        1.0  0.14638  0.52121  0.18962  1.0000
  C   C10       1.0  0.85306  0.48010  0.81153  1.0000
  C   C11       1.0  0.58622  0.02118  0.31030  1.0000
  C   C12       1.0  0.91604  0.97940  0.68866  1.0000
  C   C13       1.0  0.03541  0.51680  0.11259  1.0000
  C   C14       1.0  0.65872  0.48415  0.88826  1.0000
  C   C15       1.0  0.39842  0.01676  0.38730  1.0000
  C   C16       1.0  0.79870  0.98376  0.61183  1.0000
  C   C17       1.0  0.99845  0.64432  0.06442  1.0000
  C   C18       1.0  0.70159  0.35585  0.93581  1.0000
  C   C19       1.0  0.31325  0.14429  0.43541  1.0000
  C   C20       1.0  0.88799  0.85546  0.56431  1.0000
  N   N1        1.0  0.06913  0.77142  0.08870  1.0000
  N   N2        1.0  0.92497  0.22804  0.91100  1.0000
  N   N3        1.0  0.40834  0.27134  0.41114  1.0000
  N   N4        1.0  0.08680  0.72758  0.58903  1.0000
  Cl  Cl1       1.0  0.37439  0.11982  0.09328  1.0000
  Cl  Cl2       1.0  0.59333  0.87862  0.90597  1.0000
  Cl  Cl3       1.0  0.71751  0.61973  0.40667  1.0000
  Cl  Cl4       1.0  0.75036  0.37824  0.59395  1.0000
