data_image0
_chemical_formula_structural       Ag2H28C16N6O10
_chemical_formula_sum              "Ag2 H28 C16 N6 O10"
_cell_length_a       5.29404
_cell_length_b       7.7886
_cell_length_c       15.116
_cell_angle_alpha    85.7203
_cell_angle_beta     79.6234
_cell_angle_gamma    70.1654

_space_group_name_H-M_alt    "P 1"
_space_group_IT_number       1

loop_
  _space_group_symop_operation_xyz
  'x, y, z'

loop_
  _atom_site_type_symbol
  _atom_site_label
  _atom_site_symmetry_multiplicity
  _atom_site_fract_x
  _atom_site_fract_y
  _atom_site_fract_z
  _atom_site_occupancy
  Ag  Ag1       1.0  0.67984  0.65608  0.24662  1.0000
  Ag  Ag2       1.0  0.32006  0.34395  0.75341  1.0000
  H   H1        1.0  0.94158  0.37980  0.95233  1.0000
  H   H2        1.0  0.67653  0.38107  0.54640  1.0000
  H   H3        1.0  0.05840  0.62027  0.04768  1.0000
  H   H4        1.0  0.32348  0.61890  0.45360  1.0000
  H   H5        1.0  0.38837  0.39775  0.15813  1.0000
  H   H6        1.0  0.20923  0.40042  0.33773  1.0000
  H   H7        1.0  0.61164  0.60225  0.84190  1.0000
  H   H8        1.0  0.79077  0.59957  0.66227  1.0000
  H   H9        1.0  0.65387  0.23105  0.20490  1.0000
  H   H10       1.0  0.10587  0.23276  0.29556  1.0000
  H   H11       1.0  0.34623  0.76894  0.79510  1.0000
  H   H12       1.0  0.89411  0.76725  0.70442  1.0000
  H   H13       1.0  0.70498  0.00916  0.09746  1.0000
  H   H14       1.0  0.28177  0.01270  0.40477  1.0000
  H   H15       1.0  0.29503  0.99086  0.90255  1.0000
  H   H16       1.0  0.71816  0.98727  0.59521  1.0000
  H   H17       1.0  0.36831  0.13972  0.08422  1.0000
  H   H18       1.0  0.48653  0.14471  0.41618  1.0000
  H   H19       1.0  0.63175  0.86030  0.91579  1.0000
  H   H20       1.0  0.51349  0.85522  0.58379  1.0000
  H   H21       1.0  0.81693  0.08515  0.94273  1.0000
  H   H22       1.0  0.09366  0.08635  0.55844  1.0000
  H   H23       1.0  0.18311  0.91489  0.05728  1.0000
  H   H24       1.0  0.90638  0.91364  0.44154  1.0000
  H   H25       1.0  0.51907  0.27880  0.94646  1.0000
  H   H26       1.0  0.20017  0.27952  0.55288  1.0000
  H   H27       1.0  0.48097  0.72120  0.05355  1.0000
  H   H28       1.0  0.79989  0.72045  0.44709  1.0000
  C   C1        1.0  0.78208  0.37247  0.08670  1.0000
  C   C2        1.0  0.84135  0.37671  0.41180  1.0000
  C   C3        1.0  0.21796  0.62756  0.91332  1.0000
  C   C4        1.0  0.15864  0.62329  0.58819  1.0000
  C   C5        1.0  0.58535  0.28841  0.14147  1.0000
  C   C6        1.0  0.12001  0.29168  0.35741  1.0000
  C   C7        1.0  0.41467  0.71158  0.85855  1.0000
  C   C8        1.0  0.88004  0.70828  0.64258  1.0000
  C   C9        1.0  0.57420  0.14520  0.07920  1.0000
  C   C10       1.0  0.27569  0.14891  0.42142  1.0000
  C   C11       1.0  0.42586  0.85482  0.92080  1.0000
  C   C12       1.0  0.72430  0.85106  0.57857  1.0000
  C   C13       1.0  0.68382  0.20218  0.98387  1.0000
  C   C14       1.0  0.11055  0.20404  0.51618  1.0000
  C   C15       1.0  0.31625  0.79786  0.01614  1.0000
  C   C16       1.0  0.88944  0.79595  0.48381  1.0000
  N   N1        1.0  0.08325  0.84692  0.25188  1.0000
  N   N2        1.0  0.91669  0.15306  0.74812  1.0000
  N   N3        1.0  0.83551  0.31829  0.00122  1.0000
  N   N4        1.0  0.84334  0.32146  0.49784  1.0000
  N   N5        1.0  0.16447  0.68176  0.99881  1.0000
  N   N6        1.0  0.15667  0.67852  0.50215  1.0000
  O   O1        1.0  0.88037  0.48087  0.11482  1.0000
  O   O2        1.0  0.63545  0.48721  0.38289  1.0000
  O   O3        1.0  0.11954  0.51921  0.88518  1.0000
  O   O4        1.0  0.36452  0.51275  0.61712  1.0000
  O   O5        1.0  0.27458  0.91291  0.24809  1.0000
  O   O6        1.0  0.83793  0.94751  0.26691  1.0000
  O   O7        1.0  0.72536  0.08710  0.75188  1.0000
  O   O8        1.0  0.16198  0.05243  0.73306  1.0000
  O   O9        1.0  0.14391  0.67538  0.24044  1.0000
  O   O10       1.0  0.85605  0.32459  0.75960  1.0000
