data_image0
_chemical_formula_structural       Mn4H16C28O20
_chemical_formula_sum              "Mn4 H16 C28 O20"
_cell_length_a       7.24592
_cell_length_b       9.75362
_cell_length_c       10.044
_cell_angle_alpha    89.9992
_cell_angle_beta     90.0011
_cell_angle_gamma    89.9961

_space_group_name_H-M_alt    "P 1"
_space_group_IT_number       1

loop_
  _space_group_symop_operation_xyz
  'x, y, z'

loop_
  _atom_site_type_symbol
  _atom_site_label
  _atom_site_symmetry_multiplicity
  _atom_site_fract_x
  _atom_site_fract_y
  _atom_site_fract_z
  _atom_site_occupancy
  Mn  Mn1       1.0  0.10104  0.26189  0.00001  1.0000
  Mn  Mn2       1.0  0.89979  0.73855  0.99996  1.0000
  Mn  Mn3       1.0  0.39986  0.76144  0.99998  1.0000
  Mn  Mn4       1.0  0.60101  0.23810  1.00000  1.0000
  H   H1        1.0  0.82652  0.44726  0.92294  1.0000
  H   H2        1.0  0.17342  0.55331  0.92290  1.0000
  H   H3        1.0  0.67343  0.94669  0.07710  1.0000
  H   H4        1.0  0.32649  0.05273  0.07706  1.0000
  H   H5        1.0  0.17343  0.55334  0.07710  1.0000
  H   H6        1.0  0.82649  0.44730  0.07703  1.0000
  H   H7        1.0  0.32651  0.05269  0.92296  1.0000
  H   H8        1.0  0.67342  0.94664  0.92289  1.0000
  H   H9        1.0  0.09173  0.33088  0.37542  1.0000
  H   H10       1.0  0.90835  0.66913  0.37547  1.0000
  H   H11       1.0  0.40842  0.83089  0.62452  1.0000
  H   H12       1.0  0.59170  0.16913  0.62457  1.0000
  H   H13       1.0  0.90840  0.66913  0.62453  1.0000
  H   H14       1.0  0.09175  0.33090  0.62456  1.0000
  H   H15       1.0  0.59172  0.16913  0.37544  1.0000
  H   H16       1.0  0.40839  0.83086  0.37548  1.0000
  C   C1        1.0  0.20321  0.38035  0.43016  1.0000
  C   C2        1.0  0.79677  0.61975  0.43019  1.0000
  C   C3        1.0  0.29681  0.88025  0.56983  1.0000
  C   C4        1.0  0.70323  0.11968  0.56984  1.0000
  C   C5        1.0  0.79679  0.61977  0.56983  1.0000
  C   C6        1.0  0.20324  0.38035  0.56981  1.0000
  C   C7        1.0  0.70323  0.11969  0.43019  1.0000
  C   C8        1.0  0.29681  0.88026  0.43018  1.0000
  C   C9        1.0  0.35250  0.43219  0.35998  1.0000
  C   C10       1.0  0.64744  0.56809  0.35995  1.0000
  C   C11       1.0  0.14742  0.93189  0.64005  1.0000
  C   C12       1.0  0.85250  0.06784  0.64002  1.0000
  C   C13       1.0  0.64742  0.56811  0.64006  1.0000
  C   C14       1.0  0.35250  0.43218  0.64000  1.0000
  C   C15       1.0  0.85250  0.06784  0.36000  1.0000
  C   C16       1.0  0.14745  0.93192  0.35995  1.0000
  C   C17       1.0  0.49992  0.50018  0.42825  1.0000
  C   C18       1.0  0.99994  0.99983  0.57176  1.0000
  C   C19       1.0  0.49993  0.50020  0.57176  1.0000
  C   C20       1.0  0.99995  0.99985  0.42825  1.0000
  C   C21       1.0  0.35979  0.39445  0.21576  1.0000
  C   C22       1.0  0.64016  0.60586  0.21576  1.0000
  C   C23       1.0  0.14015  0.89412  0.78425  1.0000
  C   C24       1.0  0.85979  0.10554  0.78426  1.0000
  C   C25       1.0  0.64015  0.60588  0.78427  1.0000
  C   C26       1.0  0.35983  0.39443  0.78422  1.0000
  C   C27       1.0  0.85979  0.10555  0.21577  1.0000
  C   C28       1.0  0.14017  0.89413  0.21574  1.0000
  O   O1        1.0  0.20968  0.40334  0.14838  1.0000
  O   O2        1.0  0.79021  0.59724  0.14834  1.0000
  O   O3        1.0  0.29022  0.90279  0.85165  1.0000
  O   O4        1.0  0.70968  0.09659  0.85164  1.0000
  O   O5        1.0  0.79026  0.59723  0.85167  1.0000
  O   O6        1.0  0.20970  0.40334  0.85159  1.0000
  O   O7        1.0  0.70970  0.09661  0.14837  1.0000
  O   O8        1.0  0.29020  0.90278  0.14831  1.0000
  O   O9        1.0  0.51030  0.34644  0.17106  1.0000
  O   O10       1.0  0.48943  0.65369  0.17108  1.0000
  O   O11       1.0  0.98950  0.84626  0.82892  1.0000
  O   O12       1.0  0.01026  0.15357  0.82896  1.0000
  O   O13       1.0  0.48949  0.65371  0.82894  1.0000
  O   O14       1.0  0.51034  0.34645  0.82893  1.0000
  O   O15       1.0  0.01029  0.15357  0.17107  1.0000
  O   O16       1.0  0.98945  0.84625  0.17108  1.0000
  O   O17       1.0  0.84112  0.38192  0.99999  1.0000
  O   O18       1.0  0.15890  0.61871  0.99999  1.0000
  O   O19       1.0  0.65884  0.88128  0.00001  1.0000
  O   O20       1.0  0.34114  0.11808  0.99999  1.0000
