data_image0
_chemical_formula_structural       CuH24C26S2N6O4
_chemical_formula_sum              "Cu1 H24 C26 S2 N6 O4"
_cell_length_a       7.09849
_cell_length_b       9.2423
_cell_length_c       10.5763
_cell_angle_alpha    94.4484
_cell_angle_beta     96.6126
_cell_angle_gamma    108.569

_space_group_name_H-M_alt    "P 1"
_space_group_IT_number       1

loop_
  _space_group_symop_operation_xyz
  'x, y, z'

loop_
  _atom_site_type_symbol
  _atom_site_label
  _atom_site_symmetry_multiplicity
  _atom_site_fract_x
  _atom_site_fract_y
  _atom_site_fract_z
  _atom_site_occupancy
  Cu  Cu1       1.0  0.00000  1.00000  0.00000  1.0000
  H   H1        1.0  0.06617  0.98342  0.28202  1.0000
  H   H2        1.0  0.93382  0.01658  0.71798  1.0000
  H   H3        1.0  0.99824  0.77772  0.42927  1.0000
  H   H4        1.0  0.00176  0.22228  0.57074  1.0000
  H   H5        1.0  0.85922  0.50114  0.33164  1.0000
  H   H6        1.0  0.14077  0.49886  0.66836  1.0000
  H   H7        1.0  0.80455  0.44178  0.09313  1.0000
  H   H8        1.0  0.19545  0.55822  0.90687  1.0000
  H   H9        1.0  0.87966  0.66223  0.95941  1.0000
  H   H10       1.0  0.12035  0.33777  0.04059  1.0000
  H   H11       1.0  0.51407  0.87450  0.08060  1.0000
  H   H12       1.0  0.48592  0.12551  0.91939  1.0000
  H   H13       1.0  0.34071  0.60767  0.12297  1.0000
  H   H14       1.0  0.65928  0.39233  0.87703  1.0000
  H   H15       1.0  0.51734  0.74593  0.52889  1.0000
  H   H16       1.0  0.48267  0.25407  0.47111  1.0000
  H   H17       1.0  0.69846  0.01153  0.48692  1.0000
  H   H18       1.0  0.30155  0.98847  0.51308  1.0000
  H   H19       1.0  0.25960  0.49250  0.44624  1.0000
  H   H20       1.0  0.74040  0.50750  0.55376  1.0000
  H   H21       1.0  0.42203  0.43085  0.35648  1.0000
  H   H22       1.0  0.57796  0.56915  0.64352  1.0000
  H   H23       1.0  0.18910  0.43361  0.27931  1.0000
  H   H24       1.0  0.81089  0.56639  0.72069  1.0000
  C   C1        1.0  0.00765  0.86184  0.24470  1.0000
  C   C2        1.0  0.99235  0.13816  0.75530  1.0000
  C   C3        1.0  0.96921  0.74729  0.32562  1.0000
  C   C4        1.0  0.03079  0.25271  0.67438  1.0000
  C   C5        1.0  0.89295  0.59408  0.27159  1.0000
  C   C6        1.0  0.10704  0.40592  0.72841  1.0000
  C   C7        1.0  0.86149  0.56051  0.13837  1.0000
  C   C8        1.0  0.13851  0.43949  0.86163  1.0000
  C   C9        1.0  0.90308  0.68117  0.06375  1.0000
  C   C10       1.0  0.09693  0.31883  0.93625  1.0000
  C   C11       1.0  0.61682  0.95782  0.28170  1.0000
  C   C12       1.0  0.38319  0.04218  0.71829  1.0000
  C   C13       1.0  0.51531  0.84551  0.17843  1.0000
  C   C14       1.0  0.48469  0.15449  0.82157  1.0000
  C   C15       1.0  0.41865  0.69616  0.20305  1.0000
  C   C16       1.0  0.58135  0.30384  0.79695  1.0000
  C   C17       1.0  0.41843  0.65721  0.32865  1.0000
  C   C18       1.0  0.58158  0.34279  0.67135  1.0000
  C   C19       1.0  0.51947  0.77280  0.43037  1.0000
  C   C20       1.0  0.48053  0.22720  0.56963  1.0000
  C   C21       1.0  0.61957  0.92229  0.40777  1.0000
  C   C22       1.0  0.38044  0.07771  0.59223  1.0000
  C   C23       1.0  0.31608  0.49563  0.35387  1.0000
  C   C24       1.0  0.68392  0.50437  0.64613  1.0000
  C   C25       1.0  0.59969  0.82802  0.82494  1.0000
  C   C26       1.0  0.40031  0.17197  0.17506  1.0000
  S   S1        1.0  0.26440  0.85052  0.74660  1.0000
  S   S2        1.0  0.73561  0.14948  0.25341  1.0000
  N   N1        1.0  0.97304  0.82909  0.11632  1.0000
  N   N2        1.0  0.02696  0.17091  0.88368  1.0000
  N   N3        1.0  0.75451  0.87503  0.89415  1.0000
  N   N4        1.0  0.24549  0.12497  0.10585  1.0000
  N   N5        1.0  0.43663  0.76827  0.74505  1.0000
  N   N6        1.0  0.56338  0.23174  0.25495  1.0000
  O   O1        1.0  0.20234  0.85439  0.87331  1.0000
  O   O2        1.0  0.79766  0.14561  0.12669  1.0000
  O   O3        1.0  0.88835  0.22748  0.36183  1.0000
  O   O4        1.0  0.11165  0.77252  0.63816  1.0000
