data_image0
_chemical_formula_structural       Ag2H46C38N8O4
_chemical_formula_sum              "Ag2 H46 C38 N8 O4"
_cell_length_a       8.95653
_cell_length_b       10.4021
_cell_length_c       10.5482
_cell_angle_alpha    68.5397
_cell_angle_beta     77.6128
_cell_angle_gamma    82.8131

_space_group_name_H-M_alt    "P 1"
_space_group_IT_number       1

loop_
  _space_group_symop_operation_xyz
  'x, y, z'

loop_
  _atom_site_type_symbol
  _atom_site_label
  _atom_site_symmetry_multiplicity
  _atom_site_fract_x
  _atom_site_fract_y
  _atom_site_fract_z
  _atom_site_occupancy
  Ag  Ag1       1.0  0.31276  0.36736  0.01359  1.0000
  Ag  Ag2       1.0  0.68724  0.63264  0.98641  1.0000
  H   H1        1.0  0.37917  0.53120  0.20782  1.0000
  H   H2        1.0  0.62083  0.46880  0.79218  1.0000
  H   H3        1.0  0.96528  0.77473  0.15719  1.0000
  H   H4        1.0  0.03472  0.22527  0.84281  1.0000
  H   H5        1.0  0.98178  0.58418  0.03121  1.0000
  H   H6        1.0  0.01822  0.41582  0.96879  1.0000
  H   H7        1.0  0.30233  0.84170  0.19369  1.0000
  H   H8        1.0  0.69767  0.15831  0.80631  1.0000
  H   H9        1.0  0.30516  0.69219  0.34300  1.0000
  H   H10       1.0  0.69484  0.30781  0.65700  1.0000
  H   H11       1.0  0.84794  0.71979  0.65822  1.0000
  H   H12       1.0  0.15206  0.28021  0.34178  1.0000
  H   H13       1.0  0.17061  0.11715  0.14310  1.0000
  H   H14       1.0  0.82939  0.88285  0.85690  1.0000
  H   H15       1.0  0.00654  0.10105  0.08396  1.0000
  H   H16       1.0  0.99346  0.89895  0.91604  1.0000
  H   H17       1.0  0.16470  0.98326  0.07927  1.0000
  H   H18       1.0  0.83529  0.01674  0.92073  1.0000
  H   H19       1.0  0.03373  0.54185  0.65586  1.0000
  H   H20       1.0  0.96627  0.45816  0.34414  1.0000
  H   H21       1.0  0.21726  0.60490  0.57660  1.0000
  H   H22       1.0  0.78274  0.39511  0.42340  1.0000
  H   H23       1.0  0.12283  0.52907  0.49330  1.0000
  H   H24       1.0  0.87717  0.47093  0.50670  1.0000
  H   H25       1.0  0.63629  0.87783  0.66017  1.0000
  H   H26       1.0  0.36371  0.12217  0.33983  1.0000
  H   H27       1.0  0.60307  0.01287  0.50495  1.0000
  H   H28       1.0  0.39693  0.98713  0.49506  1.0000
  H   H29       1.0  0.71369  0.04118  0.61113  1.0000
  H   H30       1.0  0.28631  0.95882  0.38887  1.0000
  H   H31       1.0  0.78071  0.18627  0.37908  1.0000
  H   H32       1.0  0.21929  0.81373  0.62092  1.0000
  H   H33       1.0  0.91942  0.21285  0.22673  1.0000
  H   H34       1.0  0.08058  0.78715  0.77327  1.0000
  H   H35       1.0  0.60563  0.35287  0.20797  1.0000
  H   H36       1.0  0.39437  0.64713  0.79203  1.0000
  H   H37       1.0  0.50485  0.06711  0.04339  1.0000
  H   H38       1.0  0.49515  0.93288  0.95662  1.0000
  H   H39       1.0  0.74340  0.95391  0.18731  1.0000
  H   H40       1.0  0.25661  0.04608  0.81269  1.0000
  H   H41       1.0  0.45133  0.21045  0.62825  1.0000
  H   H42       1.0  0.54867  0.78955  0.37175  1.0000
  H   H43       1.0  0.44313  0.38967  0.52072  1.0000
  H   H44       1.0  0.55687  0.61033  0.47928  1.0000
  H   H45       1.0  0.27310  0.29540  0.59761  1.0000
  H   H46       1.0  0.72690  0.70460  0.40239  1.0000
  C   C1        1.0  0.26883  0.56707  0.17608  1.0000
  C   C2        1.0  0.73117  0.43293  0.82392  1.0000
  C   C3        1.0  0.05540  0.69830  0.14518  1.0000
  C   C4        1.0  0.94460  0.30170  0.85482  1.0000
  C   C5        1.0  0.06508  0.60077  0.08402  1.0000
  C   C6        1.0  0.93492  0.39923  0.91598  1.0000
  C   C7        1.0  0.23154  0.75990  0.27207  1.0000
  C   C8        1.0  0.76846  0.24010  0.72793  1.0000
  C   C9        1.0  0.09429  0.81765  0.34883  1.0000
  C   C10       1.0  0.90571  0.18235  0.65118  1.0000
  C   C11       1.0  0.03096  0.73473  0.48468  1.0000
  C   C12       1.0  0.96904  0.26527  0.51532  1.0000
  C   C13       1.0  0.89896  0.78463  0.55378  1.0000
  C   C14       1.0  0.10104  0.21537  0.44622  1.0000
  C   C15       1.0  0.83054  0.91521  0.49326  1.0000
  C   C16       1.0  0.16946  0.08479  0.50674  1.0000
  C   C17       1.0  0.89771  0.99925  0.35981  1.0000
  C   C18       1.0  0.10229  0.00075  0.64019  1.0000
  C   C19       1.0  0.02835  0.95030  0.28560  1.0000
  C   C20       1.0  0.97165  0.04970  0.71440  1.0000
  C   C21       1.0  0.09572  0.04124  0.14143  1.0000
  C   C22       1.0  0.90428  0.95876  0.85857  1.0000
  C   C23       1.0  0.10430  0.59596  0.55575  1.0000
  C   C24       1.0  0.89570  0.40404  0.44425  1.0000
  C   C25       1.0  0.68818  0.96389  0.57137  1.0000
  C   C26       1.0  0.31182  0.03612  0.42863  1.0000
  C   C27       1.0  0.83050  0.14360  0.29755  1.0000
  C   C28       1.0  0.16950  0.85640  0.70245  1.0000
  C   C29       1.0  0.60765  0.26074  0.18144  1.0000
  C   C30       1.0  0.39235  0.73926  0.81856  1.0000
  C   C31       1.0  0.56253  0.11001  0.09805  1.0000
  C   C32       1.0  0.43748  0.88999  0.90196  1.0000
  C   C33       1.0  0.68114  0.05328  0.16874  1.0000
  C   C34       1.0  0.31886  0.94671  0.83126  1.0000
  C   C35       1.0  0.36854  0.34749  0.74276  1.0000
  C   C36       1.0  0.63146  0.65251  0.25724  1.0000
  C   C37       1.0  0.38618  0.31010  0.61352  1.0000
  C   C38       1.0  0.61382  0.68990  0.38648  1.0000
  N   N1        1.0  0.19835  0.51913  0.10403  1.0000
  N   N2        1.0  0.80165  0.48087  0.89597  1.0000
  N   N3        1.0  0.18523  0.67569  0.20260  1.0000
  N   N4        1.0  0.81477  0.32431  0.79740  1.0000
  N   N5        1.0  0.70822  0.15024  0.22116  1.0000
  N   N6        1.0  0.29178  0.84976  0.77884  1.0000
  N   N7        1.0  0.51780  0.23890  0.10639  1.0000
  N   N8        1.0  0.48220  0.76110  0.89361  1.0000
  O   O1        1.0  0.30679  0.25880  0.85764  1.0000
  O   O2        1.0  0.69321  0.74120  0.14236  1.0000
  O   O3        1.0  0.41496  0.46219  0.73188  1.0000
  O   O4        1.0  0.58504  0.53782  0.26812  1.0000
