data_image0
_chemical_formula_structural       Zn2H28C32O12
_chemical_formula_sum              "Zn2 H28 C32 O12"
_cell_length_a       5.54682
_cell_length_b       7.90524
_cell_length_c       15.5315
_cell_angle_alpha    90.0001
_cell_angle_beta     95.7762
_cell_angle_gamma    90.0004

_space_group_name_H-M_alt    "P 1"
_space_group_IT_number       1

loop_
  _space_group_symop_operation_xyz
  'x, y, z'

loop_
  _atom_site_type_symbol
  _atom_site_label
  _atom_site_symmetry_multiplicity
  _atom_site_fract_x
  _atom_site_fract_y
  _atom_site_fract_z
  _atom_site_occupancy
  Zn  Zn1       1.0  0.00885  0.91428  0.42459  1.0000
  Zn  Zn2       1.0  0.99114  0.41429  0.57541  1.0000
  H   H1        1.0  0.18563  0.74313  0.74520  1.0000
  H   H2        1.0  0.81437  0.24314  0.25480  1.0000
  H   H3        1.0  0.41543  0.74448  0.88865  1.0000
  H   H4        1.0  0.58457  0.24448  0.11135  1.0000
  H   H5        1.0  0.88023  0.07938  0.98046  1.0000
  H   H6        1.0  0.11978  0.57938  0.01954  1.0000
  H   H7        1.0  0.65364  0.07569  0.83779  1.0000
  H   H8        1.0  0.34638  0.57571  0.16221  1.0000
  H   H9        1.0  0.60589  0.75913  0.99895  1.0000
  H   H10       1.0  0.39411  0.25912  0.00104  1.0000
  H   H11       1.0  0.83259  0.76249  0.14267  1.0000
  H   H12       1.0  0.16742  0.26249  0.85732  1.0000
  H   H13       1.0  0.28058  0.07128  0.23884  1.0000
  H   H14       1.0  0.71943  0.57131  0.76116  1.0000
  H   H15       1.0  0.04945  0.06759  0.09674  1.0000
  H   H16       1.0  0.95056  0.56760  0.90326  1.0000
  H   H17       1.0  0.74315  0.15311  0.69451  1.0000
  H   H18       1.0  0.25685  0.65312  0.30549  1.0000
  H   H19       1.0  0.35911  0.90666  0.60930  1.0000
  H   H20       1.0  0.64087  0.40666  0.39071  1.0000
  H   H21       1.0  0.34297  0.12973  0.59590  1.0000
  H   H22       1.0  0.65704  0.62973  0.40410  1.0000
  H   H23       1.0  0.32815  0.03969  0.70062  1.0000
  H   H24       1.0  0.67184  0.53968  0.29939  1.0000
  H   H25       1.0  0.40349  0.06790  0.39047  1.0000
  H   H26       1.0  0.59650  0.56790  0.60953  1.0000
  H   H27       1.0  0.22412  0.20876  0.42912  1.0000
  H   H28       1.0  0.77587  0.70876  0.57089  1.0000
  C   C1        1.0  0.90546  0.90767  0.78194  1.0000
  C   C2        1.0  0.09454  0.40768  0.21805  1.0000
  C   C3        1.0  0.12020  0.81500  0.79794  1.0000
  C   C4        1.0  0.87980  0.31500  0.20206  1.0000
  C   C5        1.0  0.24877  0.81780  0.87943  1.0000
  C   C6        1.0  0.75123  0.31780  0.12057  1.0000
  C   C7        1.0  0.16834  0.91202  0.94807  1.0000
  C   C8        1.0  0.83166  0.41202  0.05192  1.0000
  C   C9        1.0  0.95160  0.00432  0.93007  1.0000
  C   C10       1.0  0.04840  0.50433  0.06993  1.0000
  C   C11       1.0  0.82131  0.00362  0.84855  1.0000
  C   C12       1.0  0.17870  0.50362  0.15145  1.0000
  C   C13       1.0  0.30662  0.91333  0.03469  1.0000
  C   C14       1.0  0.69338  0.41333  0.96531  1.0000
  C   C15       1.0  0.53025  0.82782  0.05065  1.0000
  C   C16       1.0  0.46977  0.32781  0.94934  1.0000
  C   C17       1.0  0.66026  0.82893  0.13193  1.0000
  C   C18       1.0  0.33975  0.32894  0.86807  1.0000
  C   C19       1.0  0.57273  0.91694  0.20083  1.0000
  C   C20       1.0  0.42727  0.41695  0.79917  1.0000
  C   C21       1.0  0.35049  0.00184  0.18623  1.0000
  C   C22       1.0  0.64952  0.50185  0.81377  1.0000
  C   C23       1.0  0.22070  0.99972  0.10496  1.0000
  C   C24       1.0  0.77931  0.49974  0.89504  1.0000
  C   C25       1.0  0.79650  0.04978  0.57022  1.0000
  C   C26       1.0  0.20349  0.54977  0.42978  1.0000
  C   C27       1.0  0.68604  0.04015  0.65658  1.0000
  C   C28       1.0  0.31397  0.54015  0.34342  1.0000
  C   C29       1.0  0.41152  0.02825  0.63985  1.0000
  C   C30       1.0  0.58847  0.52825  0.36015  1.0000
  C   C31       1.0  0.71714  0.92507  0.28616  1.0000
  C   C32       1.0  0.28284  0.42508  0.71383  1.0000
  O   O1        1.0  0.83115  0.19125  0.53586  1.0000
  O   O2        1.0  0.16881  0.69123  0.46414  1.0000
  O   O3        1.0  0.84198  0.90924  0.53400  1.0000
  O   O4        1.0  0.15801  0.40924  0.46600  1.0000
  O   O5        1.0  0.78251  0.89060  0.70132  1.0000
  O   O6        1.0  0.21750  0.39061  0.29868  1.0000
  O   O7        1.0  0.64740  0.01261  0.34840  1.0000
  O   O8        1.0  0.35259  0.51262  0.65160  1.0000
  O   O9        1.0  0.91985  0.84527  0.29780  1.0000
  O   O10       1.0  0.08015  0.34526  0.70220  1.0000
  O   O11       1.0  0.26622  0.08650  0.42697  1.0000
  O   O12       1.0  0.73377  0.58650  0.57303  1.0000
