data_image0
_chemical_formula_structural       Zn2H28C28O14
_chemical_formula_sum              "Zn2 H28 C28 O14"
_cell_length_a       5.91225
_cell_length_b       7.44682
_cell_length_c       15.8645
_cell_angle_alpha    90.0021
_cell_angle_beta     97.0523
_cell_angle_gamma    90.0028

_space_group_name_H-M_alt    "P 1"
_space_group_IT_number       1

loop_
  _space_group_symop_operation_xyz
  'x, y, z'

loop_
  _atom_site_type_symbol
  _atom_site_label
  _atom_site_symmetry_multiplicity
  _atom_site_fract_x
  _atom_site_fract_y
  _atom_site_fract_z
  _atom_site_occupancy
  Zn  Zn1       1.0  0.25824  0.42595  0.85227  1.0000
  Zn  Zn2       1.0  0.74178  0.92590  0.14773  1.0000
  H   H1        1.0  0.66950  0.39021  0.93467  1.0000
  H   H2        1.0  0.33050  0.89023  0.06533  1.0000
  H   H3        1.0  0.68939  0.40377  0.83355  1.0000
  H   H4        1.0  0.31062  0.90375  0.16645  1.0000
  H   H5        1.0  0.03284  0.31284  0.97713  1.0000
  H   H6        1.0  0.96715  0.81281  0.02287  1.0000
  H   H7        1.0  0.15932  0.13286  0.94887  1.0000
  H   H8        1.0  0.84067  0.63282  0.05112  1.0000
  H   H9        1.0  0.16589  0.39768  0.57713  1.0000
  H   H10       1.0  0.83411  0.89767  0.42287  1.0000
  H   H11       1.0  0.52484  0.23733  0.65690  1.0000
  H   H12       1.0  0.47512  0.73733  0.34310  1.0000
  H   H13       1.0  0.38094  0.15163  0.50917  1.0000
  H   H14       1.0  0.61901  0.65163  0.49082  1.0000
  H   H15       1.0  0.20872  0.41187  0.42538  1.0000
  H   H16       1.0  0.79129  0.91191  0.57462  1.0000
  H   H17       1.0  0.43284  0.14756  0.35155  1.0000
  H   H18       1.0  0.56713  0.64758  0.64845  1.0000
  H   H19       1.0  0.06131  0.34512  0.27567  1.0000
  H   H20       1.0  0.93869  0.84518  0.72433  1.0000
  H   H21       1.0  0.75732  0.46749  0.19468  1.0000
  H   H22       1.0  0.24272  0.96753  0.80534  1.0000
  H   H23       1.0  0.39895  0.52205  0.08997  1.0000
  H   H24       1.0  0.60114  0.02208  0.91003  1.0000
  H   H25       1.0  0.30333  0.30377  0.11657  1.0000
  H   H26       1.0  0.69670  0.80379  0.88342  1.0000
  H   H27       1.0  0.34542  0.47635  0.19549  1.0000
  H   H28       1.0  0.65462  0.97635  0.80450  1.0000
  C   C1        1.0  0.95163  0.36780  0.71463  1.0000
  C   C2        1.0  0.04834  0.86776  0.28537  1.0000
  C   C3        1.0  0.85852  0.31947  0.62599  1.0000
  C   C4        1.0  0.14146  0.81945  0.37401  1.0000
  C   C5        1.0  0.99321  0.34647  0.56182  1.0000
  C   C6        1.0  0.00676  0.84646  0.43818  1.0000
  C   C7        1.0  0.63222  0.25439  0.60618  1.0000
  C   C8        1.0  0.36772  0.75438  0.39381  1.0000
  C   C9        1.0  0.90725  0.31521  0.47605  1.0000
  C   C10       1.0  0.09273  0.81521  0.52396  1.0000
  C   C11       1.0  0.55056  0.20964  0.52357  1.0000
  C   C12       1.0  0.44942  0.70965  0.47642  1.0000
  C   C13       1.0  0.68300  0.24094  0.45588  1.0000
  C   C14       1.0  0.31698  0.74096  0.54412  1.0000
  C   C15       1.0  0.03948  0.35429  0.40957  1.0000
  C   C16       1.0  0.96052  0.85432  0.59042  1.0000
  C   C17       1.0  0.60081  0.20616  0.36953  1.0000
  C   C18       1.0  0.39914  0.70621  0.63047  1.0000
  C   C19       1.0  0.95676  0.31995  0.32642  1.0000
  C   C20       1.0  0.04324  0.82002  0.67358  1.0000
  C   C21       1.0  0.73579  0.24636  0.30695  1.0000
  C   C22       1.0  0.26418  0.74640  0.69305  1.0000
  C   C23       1.0  0.65478  0.35648  0.16402  1.0000
  C   C24       1.0  0.34526  0.85652  0.83598  1.0000
  C   C25       1.0  0.76856  0.29611  0.08741  1.0000
  C   C26       1.0  0.23150  0.79615  0.91259  1.0000
  C   C27       1.0  0.40975  0.41856  0.13937  1.0000
  C   C28       1.0  0.59031  0.91858  0.86062  1.0000
  O   O1        1.0  0.34685  0.70806  0.77697  1.0000
  O   O2        1.0  0.65312  0.20802  0.22303  1.0000
  O   O3        1.0  0.18637  0.63245  0.92362  1.0000
  O   O4        1.0  0.81380  0.13243  0.07641  1.0000
  O   O5        1.0  0.58798  0.36743  0.87731  1.0000
  O   O6        1.0  0.41202  0.86742  0.12269  1.0000
  O   O7        1.0  0.15247  0.26678  0.94443  1.0000
  O   O8        1.0  0.84751  0.76674  0.05556  1.0000
  O   O9        1.0  0.16117  0.32423  0.73956  1.0000
  O   O10       1.0  0.83879  0.82420  0.26045  1.0000
  O   O11       1.0  0.82894  0.45377  0.76043  1.0000
  O   O12       1.0  0.17102  0.95372  0.23956  1.0000
  O   O13       1.0  0.81529  0.41668  0.03484  1.0000
  O   O14       1.0  0.18475  0.91672  0.96516  1.0000
