data_image0
_chemical_formula_structural       Zn2H28C28O14
_chemical_formula_sum              "Zn2 H28 C28 O14"
_cell_length_a       5.90267
_cell_length_b       7.45365
_cell_length_c       15.8621
_cell_angle_alpha    89.9989
_cell_angle_beta     97.0093
_cell_angle_gamma    89.9994

_space_group_name_H-M_alt    "P 1"
_space_group_IT_number       1

loop_
  _space_group_symop_operation_xyz
  'x, y, z'

loop_
  _atom_site_type_symbol
  _atom_site_label
  _atom_site_symmetry_multiplicity
  _atom_site_fract_x
  _atom_site_fract_y
  _atom_site_fract_z
  _atom_site_occupancy
  Zn  Zn1       1.0  0.73872  0.06038  0.64737  1.0000
  Zn  Zn2       1.0  0.26128  0.56041  0.35263  1.0000
  H   H1        1.0  0.93950  0.13980  0.22427  1.0000
  H   H2        1.0  0.06049  0.63978  0.77572  1.0000
  H   H3        1.0  0.79140  0.07193  0.07485  1.0000
  H   H4        1.0  0.20861  0.57192  0.92516  1.0000
  H   H5        1.0  0.56815  0.33703  0.14714  1.0000
  H   H6        1.0  0.43183  0.83700  0.85285  1.0000
  H   H7        1.0  0.61880  0.33254  0.98923  1.0000
  H   H8        1.0  0.38119  0.83254  0.01076  1.0000
  H   H9        1.0  0.47256  0.24735  0.84193  1.0000
  H   H10       1.0  0.52745  0.74738  0.15807  1.0000
  H   H11       1.0  0.83271  0.08582  0.92298  1.0000
  H   H12       1.0  0.16728  0.58583  0.07702  1.0000
  H   H13       1.0  0.24164  0.01861  0.30508  1.0000
  H   H14       1.0  0.75839  0.51857  0.69493  1.0000
  H   H15       1.0  0.65323  0.00465  0.30397  1.0000
  H   H16       1.0  0.34679  0.50461  0.69604  1.0000
  H   H17       1.0  0.60118  0.96361  0.41008  1.0000
  H   H18       1.0  0.39884  0.46356  0.58992  1.0000
  H   H19       1.0  0.69907  0.17944  0.38153  1.0000
  H   H20       1.0  0.30096  0.67940  0.61848  1.0000
  H   H21       1.0  0.32659  0.09542  0.56534  1.0000
  H   H22       1.0  0.67340  0.59544  0.43466  1.0000
  H   H23       1.0  0.30691  0.07985  0.66650  1.0000
  H   H24       1.0  0.69308  0.57989  0.33349  1.0000
  H   H25       1.0  0.96321  0.17335  0.52207  1.0000
  H   H26       1.0  0.03677  0.67336  0.47792  1.0000
  H   H27       1.0  0.83862  0.35334  0.55101  1.0000
  H   H28       1.0  0.16136  0.85333  0.44898  1.0000
  C   C1        1.0  0.26526  0.23847  0.19260  1.0000
  C   C2        1.0  0.73474  0.73844  0.80740  1.0000
  C   C3        1.0  0.04405  0.16466  0.17343  1.0000
  C   C4        1.0  0.95595  0.66464  0.82656  1.0000
  C   C5        1.0  0.96082  0.12966  0.09041  1.0000
  C   C6        1.0  0.03917  0.62963  0.90960  1.0000
  C   C7        1.0  0.09253  0.16858  0.02370  1.0000
  C   C8        1.0  0.90746  0.66857  0.97629  1.0000
  C   C9        1.0  0.31698  0.24325  0.04346  1.0000
  C   C10       1.0  0.68302  0.74325  0.95654  1.0000
  C   C11       1.0  0.39986  0.27830  0.12973  1.0000
  C   C12       1.0  0.60013  0.77828  0.87026  1.0000
  C   C13       1.0  0.44869  0.27460  0.97540  1.0000
  C   C14       1.0  0.55131  0.77462  0.02459  1.0000
  C   C15       1.0  0.36578  0.23004  0.89291  1.0000
  C   C16       1.0  0.63422  0.73005  0.10709  1.0000
  C   C17       1.0  0.13929  0.16470  0.87355  1.0000
  C   C18       1.0  0.86071  0.66473  0.12645  1.0000
  C   C19       1.0  0.00555  0.13721  0.93803  1.0000
  C   C20       1.0  0.99444  0.63723  0.06197  1.0000
  C   C21       1.0  0.04507  0.11665  0.78507  1.0000
  C   C22       1.0  0.95494  0.61668  0.21493  1.0000
  C   C23       1.0  0.34590  0.12886  0.33554  1.0000
  C   C24       1.0  0.65412  0.62883  0.66446  1.0000
  C   C25       1.0  0.23294  0.18968  0.41235  1.0000
  C   C26       1.0  0.76706  0.68966  0.58765  1.0000
  C   C27       1.0  0.59063  0.06510  0.35985  1.0000
  C   C28       1.0  0.40940  0.56506  0.64016  1.0000
  O   O1        1.0  0.16656  0.02906  0.73935  1.0000
  O   O2        1.0  0.83343  0.52908  0.26065  1.0000
  O   O3        1.0  0.83591  0.16205  0.76017  1.0000
  O   O4        1.0  0.16410  0.66208  0.23983  1.0000
  O   O5        1.0  0.40794  0.11778  0.62279  1.0000
  O   O6        1.0  0.59206  0.61782  0.37721  1.0000
  O   O7        1.0  0.84349  0.21932  0.55481  1.0000
  O   O8        1.0  0.15651  0.71932  0.44519  1.0000
  O   O9        1.0  0.34827  0.27696  0.27646  1.0000
  O   O10       1.0  0.65173  0.77692  0.72353  1.0000
  O   O11       1.0  0.18996  0.35350  0.42382  1.0000
  O   O12       1.0  0.81005  0.85347  0.57619  1.0000
  O   O13       1.0  0.18434  0.06918  0.46464  1.0000
  O   O14       1.0  0.81563  0.56916  0.53536  1.0000
