data_image0
_chemical_formula_structural       Cu2H24C28S4N16
_chemical_formula_sum              "Cu2 H24 C28 S4 N16"
_cell_length_a       8.01309
_cell_length_b       9.07905
_cell_length_c       12.2809
_cell_angle_alpha    111.735
_cell_angle_beta     101.793
_cell_angle_gamma    90.0066

_space_group_name_H-M_alt    "P 1"
_space_group_IT_number       1

loop_
  _space_group_symop_operation_xyz
  'x, y, z'

loop_
  _atom_site_type_symbol
  _atom_site_label
  _atom_site_symmetry_multiplicity
  _atom_site_fract_x
  _atom_site_fract_y
  _atom_site_fract_z
  _atom_site_occupancy
  Cu  Cu1       1.0  1.00000  0.50000  0.49999  1.0000
  Cu  Cu2       1.0  0.50000  0.99998  0.50001  1.0000
  H   H1        1.0  0.93124  0.67119  0.30948  1.0000
  H   H2        1.0  0.56926  0.36209  0.69080  1.0000
  H   H3        1.0  0.06875  0.32881  0.69052  1.0000
  H   H4        1.0  0.43072  0.63787  0.30920  1.0000
  H   H5        1.0  0.63410  0.29755  0.32010  1.0000
  H   H6        1.0  0.86554  0.97741  0.68037  1.0000
  H   H7        1.0  0.36590  0.70245  0.67988  1.0000
  H   H8        1.0  0.13448  0.02258  0.31965  1.0000
  H   H9        1.0  0.44017  0.39422  0.03910  1.0000
  H   H10       1.0  0.05983  0.35556  0.96160  1.0000
  H   H11       1.0  0.55983  0.60579  0.96089  1.0000
  H   H12       1.0  0.94017  0.64446  0.03841  1.0000
  H   H13       1.0  0.34648  0.35914  0.14841  1.0000
  H   H14       1.0  0.15347  0.21124  0.85197  1.0000
  H   H15       1.0  0.65351  0.64087  0.85158  1.0000
  H   H16       1.0  0.84653  0.78878  0.14804  1.0000
  H   H17       1.0  0.38831  0.10870  0.18633  1.0000
  H   H18       1.0  0.11128  0.92217  0.81347  1.0000
  H   H19       1.0  0.61169  0.89131  0.81365  1.0000
  H   H20       1.0  0.88873  0.07784  0.18654  1.0000
  H   H21       1.0  0.56305  0.17841  0.89828  1.0000
  H   H22       1.0  0.93744  0.28032  0.10211  1.0000
  H   H23       1.0  0.43695  0.82160  0.10171  1.0000
  H   H24       1.0  0.06256  0.71971  0.89791  1.0000
  C   C1        1.0  0.83221  0.57634  0.28435  1.0000
  C   C2        1.0  0.66799  0.29217  0.71597  1.0000
  C   C3        1.0  0.16779  0.42367  0.71564  1.0000
  C   C4        1.0  0.33199  0.70780  0.28403  1.0000
  C   C5        1.0  0.68348  0.38717  0.29356  1.0000
  C   C6        1.0  0.81643  0.09372  0.70685  1.0000
  C   C7        1.0  0.31651  0.61283  0.70643  1.0000
  C   C8        1.0  0.18357  0.90627  0.29316  1.0000
  C   C9        1.0  0.45581  0.33722  0.10475  1.0000
  C   C10       1.0  0.04427  0.23291  0.89574  1.0000
  C   C11       1.0  0.54419  0.66277  0.89525  1.0000
  C   C12       1.0  0.95573  0.76710  0.10426  1.0000
  C   C13       1.0  0.47439  0.16177  0.04838  1.0000
  C   C14       1.0  0.02592  0.11352  0.95188  1.0000
  C   C15       1.0  0.52561  0.83824  0.95161  1.0000
  C   C16       1.0  0.97409  0.88650  0.04813  1.0000
  C   C17       1.0  0.43903  0.06093  0.10524  1.0000
  C   C18       1.0  0.06098  0.95568  0.89472  1.0000
  C   C19       1.0  0.56097  0.93906  0.89474  1.0000
  C   C20       1.0  0.93903  0.04434  0.10529  1.0000
  C   C21       1.0  0.53524  0.09998  0.94268  1.0000
  C   C22       1.0  0.96516  0.15741  0.05760  1.0000
  C   C23       1.0  0.46477  0.90002  0.05731  1.0000
  C   C24       1.0  0.03486  0.84260  0.94240  1.0000
  C   C25       1.0  0.35302  0.27107  0.42779  1.0000
  C   C26       1.0  0.14727  0.84342  0.57263  1.0000
  C   C27       1.0  0.64698  0.72890  0.57223  1.0000
  C   C28       1.0  0.85272  0.15659  0.42736  1.0000
  S   S1        1.0  0.25858  0.37802  0.35794  1.0000
  S   S2        1.0  0.24183  0.02030  0.64257  1.0000
  S   S3        1.0  0.74145  0.62194  0.64207  1.0000
  S   S4        1.0  0.75815  0.97970  0.35744  1.0000
  N   N1        1.0  0.61027  0.41835  0.19660  1.0000
  N   N2        1.0  0.88970  0.22198  0.80387  1.0000
  N   N3        1.0  0.38972  0.58165  0.80339  1.0000
  N   N4        1.0  0.11030  0.77802  0.19613  1.0000
  N   N5        1.0  0.70353  0.53852  0.18884  1.0000
  N   N6        1.0  0.79657  0.34998  0.81155  1.0000
  N   N7        1.0  0.29645  0.46149  0.81115  1.0000
  N   N8        1.0  0.20341  0.65000  0.18845  1.0000
  N   N9        1.0  0.82545  0.48530  0.35053  1.0000
  N   N10       1.0  0.67464  0.13485  0.64975  1.0000
  N   N11       1.0  0.17456  0.51471  0.64946  1.0000
  N   N12       1.0  0.32536  0.86512  0.35026  1.0000
  N   N13       1.0  0.42203  0.19432  0.48127  1.0000
  N   N14       1.0  0.07795  0.71322  0.51908  1.0000
  N   N15       1.0  0.57797  0.80565  0.51876  1.0000
  N   N16       1.0  0.92204  0.28676  0.48090  1.0000
