data_image0
_chemical_formula_structural       Zn2H42C20N6O8
_chemical_formula_sum              "Zn2 H42 C20 N6 O8"
_cell_length_a       6.95505
_cell_length_b       9.79478
_cell_length_c       10.432
_cell_angle_alpha    115.811
_cell_angle_beta     95.6289
_cell_angle_gamma    93.021

_space_group_name_H-M_alt    "P 1"
_space_group_IT_number       1

loop_
  _space_group_symop_operation_xyz
  'x, y, z'

loop_
  _atom_site_type_symbol
  _atom_site_label
  _atom_site_symmetry_multiplicity
  _atom_site_fract_x
  _atom_site_fract_y
  _atom_site_fract_z
  _atom_site_occupancy
  Zn  Zn1       1.0  0.94459  0.11909  0.84248  1.0000
  Zn  Zn2       1.0  0.05541  0.88090  0.15752  1.0000
  H   H1        1.0  0.49876  0.70475  0.56684  1.0000
  H   H2        1.0  0.50124  0.29527  0.43316  1.0000
  H   H3        1.0  0.65718  0.63399  0.66094  1.0000
  H   H4        1.0  0.34281  0.36601  0.33905  1.0000
  H   H5        1.0  0.67208  0.58351  0.47551  1.0000
  H   H6        1.0  0.32790  0.41649  0.52448  1.0000
  H   H7        1.0  0.89266  0.50837  0.33710  1.0000
  H   H8        1.0  0.10733  0.49162  0.66290  1.0000
  H   H9        1.0  0.92217  0.32640  0.33342  1.0000
  H   H10       1.0  0.07783  0.67359  0.66657  1.0000
  H   H11       1.0  0.69613  0.35853  0.26484  1.0000
  H   H12       1.0  0.30387  0.64146  0.73515  1.0000
  H   H13       1.0  0.21947  0.89399  0.66701  1.0000
  H   H14       1.0  0.78053  0.10601  0.33299  1.0000
  H   H15       1.0  0.44382  0.92200  0.78154  1.0000
  H   H16       1.0  0.55618  0.07800  0.21846  1.0000
  H   H17       1.0  0.49773  0.02255  0.61499  1.0000
  H   H18       1.0  0.50227  0.97745  0.38501  1.0000
  H   H19       1.0  0.29600  0.13010  0.65187  1.0000
  H   H20       1.0  0.70400  0.86991  0.34813  1.0000
  H   H21       1.0  0.32031  0.35035  0.91727  1.0000
  H   H22       1.0  0.67969  0.64966  0.08274  1.0000
  H   H23       1.0  0.54689  0.38046  0.02572  1.0000
  H   H24       1.0  0.45311  0.61954  0.97429  1.0000
  H   H25       1.0  0.48700  0.13128  0.02644  1.0000
  H   H26       1.0  0.51299  0.86872  0.97357  1.0000
  H   H27       1.0  0.28937  0.24119  0.08800  1.0000
  H   H28       1.0  0.71062  0.75881  0.91200  1.0000
  H   H29       1.0  0.68182  0.42641  0.85856  1.0000
  H   H30       1.0  0.31819  0.57359  0.14144  1.0000
  H   H31       1.0  0.49070  0.35765  0.71160  1.0000
  H   H32       1.0  0.50930  0.64235  0.28841  1.0000
  H   H33       1.0  0.71202  0.14958  0.57446  1.0000
  H   H34       1.0  0.28798  0.85043  0.42555  1.0000
  H   H35       1.0  0.78820  0.34034  0.61318  1.0000
  H   H36       1.0  0.21180  0.65966  0.38683  1.0000
  H   H37       1.0  0.18763  0.97977  0.91645  1.0000
  H   H38       1.0  0.81237  0.02023  0.08355  1.0000
  H   H39       1.0  0.99776  0.36279  0.81386  1.0000
  H   H40       1.0  0.00224  0.63720  0.18614  1.0000
  H   H41       1.0  0.04283  0.21773  0.66334  1.0000
  H   H42       1.0  0.95717  0.78227  0.33666  1.0000
  C   C1        1.0  0.78948  0.81619  0.62331  1.0000
  C   C2        1.0  0.21054  0.18381  0.37667  1.0000
  C   C3        1.0  0.64746  0.67478  0.57802  1.0000
  C   C4        1.0  0.35253  0.32521  0.42196  1.0000
  C   C5        1.0  0.91649  0.32846  0.12683  1.0000
  C   C6        1.0  0.08351  0.67153  0.87316  1.0000
  C   C7        1.0  0.85397  0.38515  0.27501  1.0000
  C   C8        1.0  0.14603  0.61485  0.72499  1.0000
  C   C9        1.0  0.32595  0.97897  0.75336  1.0000
  C   C10       1.0  0.67405  0.02103  0.24664  1.0000
  C   C11       1.0  0.41262  0.08778  0.70099  1.0000
  C   C12       1.0  0.58738  0.91223  0.29902  1.0000
  C   C13       1.0  0.44212  0.29174  0.94063  1.0000
  C   C14       1.0  0.55788  0.70826  0.05937  1.0000
  C   C15       1.0  0.36423  0.18166  0.99449  1.0000
  C   C16       1.0  0.63577  0.81834  0.00552  1.0000
  C   C17       1.0  0.61245  0.32319  0.76464  1.0000
  C   C18       1.0  0.38756  0.67682  0.23536  1.0000
  C   C19       1.0  0.76218  0.26282  0.66230  1.0000
  C   C20       1.0  0.23782  0.73719  0.33770  1.0000
  N   N1        1.0  0.22541  0.05962  0.88038  1.0000
  N   N2        1.0  0.77460  0.94038  0.11962  1.0000
  N   N3        1.0  0.54130  0.21451  0.81485  1.0000
  N   N4        1.0  0.45870  0.78550  0.18516  1.0000
  N   N5        1.0  0.94768  0.25213  0.73844  1.0000
  N   N6        1.0  0.05232  0.74787  0.26157  1.0000
  O   O1        1.0  0.79114  0.91564  0.75506  1.0000
  O   O2        1.0  0.20887  0.08435  0.24493  1.0000
  O   O3        1.0  0.89158  0.83052  0.53618  1.0000
  O   O4        1.0  0.10843  0.16946  0.46382  1.0000
  O   O5        1.0  0.87569  0.18393  0.04290  1.0000
  O   O6        1.0  0.12431  0.81607  0.95710  1.0000
  O   O7        1.0  0.00096  0.41902  0.08973  1.0000
  O   O8        1.0  0.99904  0.58098  0.91027  1.0000
