data_image0
_chemical_formula_structural       Ba2H32C24Br4N4O4
_chemical_formula_sum              "Ba2 H32 C24 Br4 N4 O4"
_cell_length_a       7.39572
_cell_length_b       10.9034
_cell_length_c       10.9033
_cell_angle_alpha    79.192
_cell_angle_beta     74.2623
_cell_angle_gamma    74.2624

_space_group_name_H-M_alt    "P 1"
_space_group_IT_number       1

loop_
  _space_group_symop_operation_xyz
  'x, y, z'

loop_
  _atom_site_type_symbol
  _atom_site_label
  _atom_site_symmetry_multiplicity
  _atom_site_fract_x
  _atom_site_fract_y
  _atom_site_fract_z
  _atom_site_occupancy
  Ba  Ba1       1.0  0.25000  0.12076  0.87925  1.0000
  Ba  Ba2       1.0  0.75000  0.87924  0.12076  1.0000
  H   H1        1.0  0.23468  0.60992  0.52827  1.0000
  H   H2        1.0  0.26533  0.47172  0.39007  1.0000
  H   H3        1.0  0.76532  0.39007  0.47172  1.0000
  H   H4        1.0  0.73468  0.52828  0.60993  1.0000
  H   H5        1.0  0.00334  0.75542  0.68509  1.0000
  H   H6        1.0  0.49666  0.31491  0.24458  1.0000
  H   H7        1.0  0.99666  0.24458  0.31491  1.0000
  H   H8        1.0  0.50335  0.68509  0.75542  1.0000
  H   H9        1.0  0.82746  0.65704  0.89341  1.0000
  H   H10       1.0  0.67254  0.10659  0.34296  1.0000
  H   H11       1.0  0.17253  0.34296  0.10659  1.0000
  H   H12       1.0  0.32746  0.89341  0.65705  1.0000
  H   H13       1.0  0.90150  0.41667  0.94223  1.0000
  H   H14       1.0  0.59850  0.05777  0.58333  1.0000
  H   H15       1.0  0.09851  0.58333  0.05777  1.0000
  H   H16       1.0  0.40149  0.94223  0.41668  1.0000
  H   H17       1.0  0.53660  0.24398  0.97879  1.0000
  H   H18       1.0  0.96340  0.02121  0.75602  1.0000
  H   H19       1.0  0.46339  0.75602  0.02121  1.0000
  H   H20       1.0  0.03660  0.97879  0.24398  1.0000
  H   H21       1.0  0.65113  0.39028  0.85091  1.0000
  H   H22       1.0  0.84887  0.14909  0.60971  1.0000
  H   H23       1.0  0.34886  0.60972  0.14909  1.0000
  H   H24       1.0  0.15113  0.85091  0.39028  1.0000
  H   H25       1.0  0.48968  0.39796  0.75263  1.0000
  H   H26       1.0  0.01032  0.24738  0.60204  1.0000
  H   H27       1.0  0.51032  0.60204  0.24737  1.0000
  H   H28       1.0  0.98967  0.75263  0.39795  1.0000
  H   H29       1.0  0.40975  0.48752  0.88701  1.0000
  H   H30       1.0  0.09025  0.11299  0.51249  1.0000
  H   H31       1.0  0.59025  0.51249  0.11299  1.0000
  H   H32       1.0  0.90975  0.88701  0.48752  1.0000
  C   C1        1.0  0.18334  0.43703  0.65283  1.0000
  C   C2        1.0  0.31666  0.34717  0.56297  1.0000
  C   C3        1.0  0.81667  0.56297  0.34717  1.0000
  C   C4        1.0  0.68334  0.65283  0.43703  1.0000
  C   C5        1.0  0.15468  0.57041  0.61969  1.0000
  C   C6        1.0  0.34532  0.38031  0.42958  1.0000
  C   C7        1.0  0.84532  0.42959  0.38031  1.0000
  C   C8        1.0  0.65469  0.61969  0.57042  1.0000
  C   C9        1.0  0.02812  0.65133  0.70668  1.0000
  C   C10       1.0  0.47188  0.29332  0.34867  1.0000
  C   C11       1.0  0.97187  0.34867  0.29332  1.0000
  C   C12       1.0  0.52812  0.70668  0.65133  1.0000
  C   C13       1.0  0.93168  0.59723  0.82398  1.0000
  C   C14       1.0  0.56832  0.17602  0.40277  1.0000
  C   C15       1.0  0.06832  0.40277  0.17602  1.0000
  C   C16       1.0  0.43168  0.82398  0.59723  1.0000
  C   C17       1.0  0.97102  0.46379  0.85068  1.0000
  C   C18       1.0  0.52898  0.14932  0.53621  1.0000
  C   C19       1.0  0.02899  0.53621  0.14933  1.0000
  C   C20       1.0  0.47102  0.85067  0.46379  1.0000
  C   C21       1.0  0.50003  0.39710  0.85134  1.0000
  C   C22       1.0  0.99996  0.14866  0.60290  1.0000
  C   C23       1.0  0.49996  0.60291  0.14866  1.0000
  C   C24       1.0  0.00003  0.85134  0.39710  1.0000
  Br  Br1       1.0  0.30654  0.05287  0.18115  1.0000
  Br  Br2       1.0  0.19346  0.81886  0.94712  1.0000
  Br  Br3       1.0  0.69346  0.94713  0.81885  1.0000
  Br  Br4       1.0  0.80654  0.18115  0.05287  1.0000
  N   N1        1.0  0.09447  0.38447  0.76829  1.0000
  N   N2        1.0  0.40554  0.23171  0.61553  1.0000
  N   N3        1.0  0.90554  0.61553  0.23171  1.0000
  N   N4        1.0  0.59447  0.76828  0.38447  1.0000
  O   O1        1.0  0.43601  0.28907  0.93056  1.0000
  O   O2        1.0  0.06398  0.06945  0.71094  1.0000
  O   O3        1.0  0.56397  0.71094  0.06944  1.0000
  O   O4        1.0  0.93601  0.93056  0.28907  1.0000
