data_image0
_chemical_formula_structural       Ca2H16C20Br4N4
_chemical_formula_sum              "Ca2 H16 C20 Br4 N4"
_cell_length_a       7.55961
_cell_length_b       9.80808
_cell_length_c       9.60197
_cell_angle_alpha    120.707
_cell_angle_beta     103.655
_cell_angle_gamma    89.9882

_space_group_name_H-M_alt    "P 1"
_space_group_IT_number       1

loop_
  _space_group_symop_operation_xyz
  'x, y, z'

loop_
  _atom_site_type_symbol
  _atom_site_label
  _atom_site_symmetry_multiplicity
  _atom_site_fract_x
  _atom_site_fract_y
  _atom_site_fract_z
  _atom_site_occupancy
  Ca  Ca1       1.0  0.74999  0.90980  0.99985  1.0000
  Ca  Ca2       1.0  0.25001  0.09020  0.00015  1.0000
  H   H1        1.0  0.83284  0.41471  0.11899  1.0000
  H   H2        1.0  0.66704  0.29569  0.88096  1.0000
  H   H3        1.0  0.16716  0.58529  0.88102  1.0000
  H   H4        1.0  0.33296  0.70431  0.11904  1.0000
  H   H5        1.0  0.06310  0.56448  0.39460  1.0000
  H   H6        1.0  0.43678  0.16995  0.60540  1.0000
  H   H7        1.0  0.93690  0.43553  0.60540  1.0000
  H   H8        1.0  0.56321  0.83005  0.39461  1.0000
  H   H9        1.0  0.18666  0.85184  0.51096  1.0000
  H   H10       1.0  0.31318  0.34093  0.48898  1.0000
  H   H11       1.0  0.81334  0.14816  0.48904  1.0000
  H   H12       1.0  0.68682  0.65907  0.51102  1.0000
  H   H13       1.0  0.06643  0.97417  0.33855  1.0000
  H   H14       1.0  0.43347  0.63561  0.66127  1.0000
  H   H15       1.0  0.93357  0.02583  0.66144  1.0000
  H   H16       1.0  0.56653  0.36439  0.33873  1.0000
  C   C1        1.0  0.82114  0.61639  0.08233  1.0000
  C   C2        1.0  0.67884  0.53402  0.91755  1.0000
  C   C3        1.0  0.17886  0.38361  0.91767  1.0000
  C   C4        1.0  0.32116  0.46597  0.08245  1.0000
  C   C5        1.0  0.88457  0.53920  0.16961  1.0000
  C   C6        1.0  0.61536  0.36960  0.83034  1.0000
  C   C7        1.0  0.11542  0.46079  0.83039  1.0000
  C   C8        1.0  0.38465  0.63040  0.16966  1.0000
  C   C9        1.0  0.01511  0.62349  0.32534  1.0000
  C   C10       1.0  0.48480  0.29817  0.67461  1.0000
  C   C11       1.0  0.98489  0.37651  0.67466  1.0000
  C   C12       1.0  0.51520  0.70183  0.32539  1.0000
  C   C13       1.0  0.08260  0.78263  0.39029  1.0000
  C   C14       1.0  0.41727  0.39236  0.60963  1.0000
  C   C15       1.0  0.91740  0.21737  0.60970  1.0000
  C   C16       1.0  0.58273  0.60764  0.39037  1.0000
  C   C17       1.0  0.01591  0.85074  0.29519  1.0000
  C   C18       1.0  0.48403  0.55553  0.70465  1.0000
  C   C19       1.0  0.98409  0.14926  0.70481  1.0000
  C   C20       1.0  0.51597  0.44447  0.29535  1.0000
  Br  Br1       1.0  0.00463  0.19980  0.21744  1.0000
  Br  Br2       1.0  0.49526  0.98260  0.78271  1.0000
  Br  Br3       1.0  0.99537  0.80020  0.78256  1.0000
  Br  Br4       1.0  0.50474  0.01740  0.21729  1.0000
  N   N1        1.0  0.88741  0.77119  0.14579  1.0000
  N   N2        1.0  0.61256  0.62535  0.85402  1.0000
  N   N3        1.0  0.11259  0.22881  0.85421  1.0000
  N   N4        1.0  0.38744  0.37465  0.14598  1.0000
