data_image0
_chemical_formula_structural       Ba2H32C40I4N8
_chemical_formula_sum              "Ba2 H32 C40 I4 N8"
_cell_length_a       9.13492
_cell_length_b       10.908
_cell_length_c       11.1846
_cell_angle_alpha    88.949
_cell_angle_beta     78.247
_cell_angle_gamma    81.7637

_space_group_name_H-M_alt    "P 1"
_space_group_IT_number       1

loop_
  _space_group_symop_operation_xyz
  'x, y, z'

loop_
  _atom_site_type_symbol
  _atom_site_label
  _atom_site_symmetry_multiplicity
  _atom_site_fract_x
  _atom_site_fract_y
  _atom_site_fract_z
  _atom_site_occupancy
  Ba  Ba1       1.0  0.74114  0.88917  0.61158  1.0000
  Ba  Ba2       1.0  0.25886  0.11083  0.38842  1.0000
  H   H1        1.0  0.01269  0.36737  0.68537  1.0000
  H   H2        1.0  0.98731  0.63263  0.31463  1.0000
  H   H3        1.0  0.28289  0.38787  0.60465  1.0000
  H   H4        1.0  0.71711  0.61212  0.39535  1.0000
  H   H5        1.0  0.34720  0.59620  0.52255  1.0000
  H   H6        1.0  0.65280  0.40380  0.47745  1.0000
  H   H7        1.0  0.13955  0.77001  0.52749  1.0000
  H   H8        1.0  0.86045  0.23000  0.47251  1.0000
  H   H9        1.0  0.81474  0.38991  0.81904  1.0000
  H   H10       1.0  0.18526  0.61008  0.18096  1.0000
  H   H11       1.0  0.54245  0.38335  0.90229  1.0000
  H   H12       1.0  0.45755  0.61665  0.09771  1.0000
  H   H13       1.0  0.34923  0.53983  0.82967  1.0000
  H   H14       1.0  0.65076  0.46017  0.17033  1.0000
  H   H15       1.0  0.44213  0.70269  0.68426  1.0000
  H   H16       1.0  0.55787  0.29731  0.31574  1.0000
  H   H17       1.0  0.39999  0.83303  0.12676  1.0000
  H   H18       1.0  0.60001  0.16697  0.87324  1.0000
  H   H19       1.0  0.14549  0.90075  0.08883  1.0000
  H   H20       1.0  0.85451  0.09925  0.91117  1.0000
  H   H21       1.0  0.11741  0.97052  0.87444  1.0000
  H   H22       1.0  0.88259  0.02948  0.12556  1.0000
  H   H23       1.0  0.34882  0.96873  0.71455  1.0000
  H   H24       1.0  0.65117  0.03127  0.28545  1.0000
  H   H25       1.0  0.60410  0.76644  0.14831  1.0000
  H   H26       1.0  0.39590  0.23356  0.85168  1.0000
  H   H27       1.0  0.86377  0.69079  0.16853  1.0000
  H   H28       1.0  0.13623  0.30922  0.83147  1.0000
  H   H29       1.0  0.07758  0.70184  0.98650  1.0000
  H   H30       1.0  0.92242  0.29815  0.01350  1.0000
  H   H31       1.0  0.01407  0.79403  0.79448  1.0000
  H   H32       1.0  0.98593  0.20597  0.20552  1.0000
  C   C1        1.0  0.93383  0.56123  0.65793  1.0000
  C   C2        1.0  0.06617  0.43877  0.34207  1.0000
  C   C3        1.0  0.04455  0.45744  0.65569  1.0000
  C   C4        1.0  0.95545  0.54256  0.34431  1.0000
  C   C5        1.0  0.19538  0.46821  0.60829  1.0000
  C   C6        1.0  0.80462  0.53179  0.39171  1.0000
  C   C7        1.0  0.23173  0.58210  0.56262  1.0000
  C   C8        1.0  0.76827  0.41790  0.43739  1.0000
  C   C9        1.0  0.11505  0.68027  0.56523  1.0000
  C   C10       1.0  0.88495  0.31973  0.43477  1.0000
  C   C11       1.0  0.77243  0.55333  0.71036  1.0000
  C   C12       1.0  0.22757  0.44667  0.28964  1.0000
  C   C13       1.0  0.72979  0.45905  0.79164  1.0000
  C   C14       1.0  0.27020  0.54095  0.20836  1.0000
  C   C15       1.0  0.57710  0.45448  0.83734  1.0000
  C   C16       1.0  0.42290  0.54552  0.16266  1.0000
  C   C17       1.0  0.46996  0.54177  0.79864  1.0000
  C   C18       1.0  0.53003  0.45823  0.20136  1.0000
  C   C19       1.0  0.52134  0.63258  0.71801  1.0000
  C   C20       1.0  0.47866  0.36742  0.28199  1.0000
  C   C21       1.0  0.51256  0.85831  0.93828  1.0000
  C   C22       1.0  0.48743  0.14170  0.06172  1.0000
  C   C23       1.0  0.38691  0.85940  0.03465  1.0000
  C   C24       1.0  0.61309  0.14060  0.96535  1.0000
  C   C25       1.0  0.24275  0.89870  0.01330  1.0000
  C   C26       1.0  0.75725  0.10130  0.98670  1.0000
  C   C27       1.0  0.22678  0.93726  0.89678  1.0000
  C   C28       1.0  0.77321  0.06274  0.10322  1.0000
  C   C29       1.0  0.35686  0.93629  0.80643  1.0000
  C   C30       1.0  0.64314  0.06371  0.19357  1.0000
  C   C31       1.0  0.66824  0.81410  0.95597  1.0000
  C   C32       1.0  0.33176  0.18590  0.04403  1.0000
  C   C33       1.0  0.69513  0.76750  0.06859  1.0000
  C   C34       1.0  0.30487  0.23251  0.93141  1.0000
  C   C35       1.0  0.84232  0.72555  0.08097  1.0000
  C   C36       1.0  0.15768  0.27445  0.91903  1.0000
  C   C37       1.0  0.96023  0.73231  0.98120  1.0000
  C   C38       1.0  0.03978  0.26769  0.01880  1.0000
  C   C39       1.0  0.92489  0.78302  0.87357  1.0000
  C   C40       1.0  0.07512  0.21698  0.12643  1.0000
  I   I1        1.0  0.48584  0.82337  0.42015  1.0000
  I   I2        1.0  0.51416  0.17662  0.57985  1.0000
  I   I3        1.0  0.00199  0.08734  0.66799  1.0000
  I   I4        1.0  0.99801  0.91265  0.33200  1.0000
  N   N1        1.0  0.96924  0.67110  0.61130  1.0000
  N   N2        1.0  0.03076  0.32890  0.38870  1.0000
  N   N3        1.0  0.66816  0.64048  0.67653  1.0000
  N   N4        1.0  0.33184  0.35952  0.32347  1.0000
  N   N5        1.0  0.49651  0.89795  0.82560  1.0000
  N   N6        1.0  0.50349  0.10205  0.17440  1.0000
  N   N7        1.0  0.78330  0.82176  0.85965  1.0000
  N   N8        1.0  0.21670  0.17824  0.14035  1.0000
