data_image0
_chemical_formula_structural       Na2H16C12N2O10
_chemical_formula_sum              "Na2 H16 C12 N2 O10"
_cell_length_a       6.36063
_cell_length_b       6.68858
_cell_length_c       11.0636
_cell_angle_alpha    107.625
_cell_angle_beta     106.789
_cell_angle_gamma    89.9958

_space_group_name_H-M_alt    "P 1"
_space_group_IT_number       1

loop_
  _space_group_symop_operation_xyz
  'x, y, z'

loop_
  _atom_site_type_symbol
  _atom_site_label
  _atom_site_symmetry_multiplicity
  _atom_site_fract_x
  _atom_site_fract_y
  _atom_site_fract_z
  _atom_site_occupancy
  Na  Na1       1.0  0.73137  0.03190  0.56357  1.0000
  Na  Na2       1.0  0.16723  0.96798  0.43589  1.0000
  H   H1        1.0  0.90617  0.73470  0.97210  1.0000
  H   H2        1.0  0.93239  0.26120  0.02757  1.0000
  H   H3        1.0  0.87712  0.61366  0.72955  1.0000
  H   H4        1.0  0.14650  0.38304  0.27028  1.0000
  H   H5        1.0  0.80427  0.62685  0.41673  1.0000
  H   H6        1.0  0.38771  0.37329  0.58307  1.0000
  H   H7        1.0  0.80429  0.29004  0.41675  1.0000
  H   H8        1.0  0.38761  0.71039  0.58307  1.0000
  H   H9        1.0  0.02319  0.68281  0.53603  1.0000
  H   H10       1.0  0.48695  0.31717  0.46379  1.0000
  H   H11       1.0  0.02313  0.35353  0.53603  1.0000
  H   H12       1.0  0.48674  0.64671  0.46387  1.0000
  H   H13       1.0  0.58714  0.66866  0.83372  1.0000
  H   H14       1.0  0.75229  0.33602  0.16680  1.0000
  H   H15       1.0  0.61421  0.78968  0.07673  1.0000
  H   H16       1.0  0.53585  0.21398  0.92370  1.0000
  C   C1        1.0  0.26035  0.76803  0.03609  1.0000
  C   C2        1.0  0.22268  0.23150  0.96401  1.0000
  C   C3        1.0  0.05226  0.71888  0.93913  1.0000
  C   C4        1.0  0.11163  0.27865  0.06077  1.0000
  C   C5        1.0  0.03749  0.65255  0.80597  1.0000
  C   C6        1.0  0.23022  0.34528  0.19398  1.0000
  C   C7        1.0  0.23162  0.63316  0.76541  1.0000
  C   C8        1.0  0.46507  0.36695  0.23471  1.0000
  C   C9        1.0  0.43981  0.68399  0.86593  1.0000
  C   C10       1.0  0.57266  0.31833  0.13444  1.0000
  C   C11       1.0  0.45525  0.75048  0.99934  1.0000
  C   C12       1.0  0.45444  0.25141  0.00097  1.0000
  N   N1        1.0  0.27192  0.83605  0.17291  1.0000
  N   N2        1.0  0.09706  0.16334  0.82719  1.0000
  O   O1        1.0  0.09407  0.85049  0.20270  1.0000
  O   O2        1.0  0.88927  0.14831  0.79734  1.0000
  O   O3        1.0  0.45649  0.88005  0.26040  1.0000
  O   O4        1.0  0.19392  0.12018  0.73981  1.0000
  O   O5        1.0  0.21892  0.56980  0.63846  1.0000
  O   O6        1.0  0.57969  0.43063  0.36174  1.0000
  O   O7        1.0  0.92311  0.22931  0.47103  1.0000
  O   O8        1.0  0.45178  0.77100  0.52869  1.0000
  O   O9        1.0  0.92300  0.74198  0.47110  1.0000
  O   O10       1.0  0.45152  0.25801  0.52860  1.0000
