data_image0
_chemical_formula_structural       Cd4H32C32O24
_chemical_formula_sum              "Cd4 H32 C32 O24"
_cell_length_a       6.1902
_cell_length_b       10.3347
_cell_length_c       13.9578
_cell_angle_alpha    100.632
_cell_angle_beta     90.0011
_cell_angle_gamma    89.9999

_space_group_name_H-M_alt    "P 1"
_space_group_IT_number       1

loop_
  _space_group_symop_operation_xyz
  'x, y, z'

loop_
  _atom_site_type_symbol
  _atom_site_label
  _atom_site_symmetry_multiplicity
  _atom_site_fract_x
  _atom_site_fract_y
  _atom_site_fract_z
  _atom_site_occupancy
  Cd  Cd1       1.0  0.07575  0.92067  0.66742  1.0000
  Cd  Cd2       1.0  0.57576  0.57933  0.33259  1.0000
  Cd  Cd3       1.0  0.92426  0.07934  0.33258  1.0000
  Cd  Cd4       1.0  0.42424  0.42067  0.66742  1.0000
  H   H1        1.0  0.92944  0.30816  0.88455  1.0000
  H   H2        1.0  0.42945  0.19185  0.11545  1.0000
  H   H3        1.0  0.07056  0.69185  0.11546  1.0000
  H   H4        1.0  0.57055  0.80814  0.88455  1.0000
  H   H5        1.0  0.11863  0.06791  0.90986  1.0000
  H   H6        1.0  0.61863  0.43211  0.09013  1.0000
  H   H7        1.0  0.88139  0.93211  0.09014  1.0000
  H   H8        1.0  0.38136  0.56789  0.90986  1.0000
  H   H9        1.0  0.80410  0.15283  0.04172  1.0000
  H   H10       1.0  0.30408  0.34717  0.95828  1.0000
  H   H11       1.0  0.19591  0.84715  0.95828  1.0000
  H   H12       1.0  0.69591  0.65283  0.04171  1.0000
  H   H13       1.0  0.43169  0.10345  0.94013  1.0000
  H   H14       1.0  0.93167  0.39654  0.05987  1.0000
  H   H15       1.0  0.56833  0.89654  0.05987  1.0000
  H   H16       1.0  0.06830  0.60344  0.94013  1.0000
  H   H17       1.0  0.55281  0.99103  0.75852  1.0000
  H   H18       1.0  0.05283  0.50897  0.24148  1.0000
  H   H19       1.0  0.44721  0.00897  0.24147  1.0000
  H   H20       1.0  0.94717  0.49102  0.75852  1.0000
  H   H21       1.0  0.61826  0.26311  0.79624  1.0000
  H   H22       1.0  0.11828  0.23689  0.20377  1.0000
  H   H23       1.0  0.38175  0.73690  0.20377  1.0000
  H   H24       1.0  0.88173  0.76310  0.79623  1.0000
  H   H25       1.0  0.50319  0.83652  0.58644  1.0000
  H   H26       1.0  0.00320  0.66347  0.41357  1.0000
  H   H27       1.0  0.49682  0.16347  0.41357  1.0000
  H   H28       1.0  0.99681  0.33654  0.58644  1.0000
  H   H29       1.0  0.33735  0.81542  0.49686  1.0000
  H   H30       1.0  0.83736  0.68458  0.50315  1.0000
  H   H31       1.0  0.66265  0.18458  0.50315  1.0000
  H   H32       1.0  0.16264  0.31543  0.49686  1.0000
  C   C1        1.0  0.15240  0.22741  0.77350  1.0000
  C   C2        1.0  0.65244  0.27258  0.22648  1.0000
  C   C3        1.0  0.84759  0.77258  0.22651  1.0000
  C   C4        1.0  0.34756  0.72743  0.77352  1.0000
  C   C5        1.0  0.94907  0.21504  0.83329  1.0000
  C   C6        1.0  0.44905  0.28496  0.16671  1.0000
  C   C7        1.0  0.05095  0.78497  0.16671  1.0000
  C   C8        1.0  0.55093  0.71503  0.83329  1.0000
  C   C9        1.0  0.95848  0.09608  0.88831  1.0000
  C   C10       1.0  0.45847  0.40394  0.11168  1.0000
  C   C11       1.0  0.04153  0.90393  0.11169  1.0000
  C   C12       1.0  0.54151  0.59607  0.88833  1.0000
  C   C13       1.0  0.78083  0.11818  0.96397  1.0000
  C   C14       1.0  0.28082  0.38183  0.03602  1.0000
  C   C15       1.0  0.21919  0.88181  0.03601  1.0000
  C   C16       1.0  0.71914  0.61817  0.96398  1.0000
  C   C17       1.0  0.59643  0.09327  0.91343  1.0000
  C   C18       1.0  0.09643  0.40674  0.08657  1.0000
  C   C19       1.0  0.40358  0.90673  0.08656  1.0000
  C   C20       1.0  0.90353  0.59327  0.91344  1.0000
  C   C21       1.0  0.66095  0.05489  0.80745  1.0000
  C   C22       1.0  0.16095  0.44511  0.19255  1.0000
  C   C23       1.0  0.33907  0.94510  0.19255  1.0000
  C   C24       1.0  0.83902  0.55488  0.80745  1.0000
  C   C25       1.0  0.73389  0.18362  0.77339  1.0000
  C   C26       1.0  0.23392  0.31638  0.22661  1.0000
  C   C27       1.0  0.26612  0.81638  0.22661  1.0000
  C   C28       1.0  0.76609  0.68361  0.77338  1.0000
  C   C29       1.0  0.75778  0.16455  0.66280  1.0000
  C   C30       1.0  0.25781  0.33544  0.33721  1.0000
  C   C31       1.0  0.24223  0.83544  0.33721  1.0000
  C   C32       1.0  0.74219  0.66457  0.66279  1.0000
  O   O1        1.0  0.23844  0.12757  0.72168  1.0000
  O   O2        1.0  0.73848  0.37241  0.27833  1.0000
  O   O3        1.0  0.76157  0.87242  0.27834  1.0000
  O   O4        1.0  0.26151  0.62758  0.72167  1.0000
  O   O5        1.0  0.35908  0.85970  0.56621  1.0000
  O   O6        1.0  0.85910  0.64029  0.43379  1.0000
  O   O7        1.0  0.64093  0.14031  0.43380  1.0000
  O   O8        1.0  0.14091  0.35971  0.56621  1.0000
  O   O9        1.0  0.22681  0.34467  0.78289  1.0000
  O   O10       1.0  0.72682  0.15532  0.21711  1.0000
  O   O11       1.0  0.77320  0.65532  0.21711  1.0000
  O   O12       1.0  0.27317  0.84467  0.78289  1.0000
  O   O13       1.0  0.83582  0.06049  0.61388  1.0000
  O   O14       1.0  0.33585  0.43951  0.38612  1.0000
  O   O15       1.0  0.16418  0.93951  0.38613  1.0000
  O   O16       1.0  0.66414  0.56050  0.61387  1.0000
  O   O17       1.0  0.69553  0.26004  0.62064  1.0000
  O   O18       1.0  0.19556  0.23995  0.37936  1.0000
  O   O19       1.0  0.30445  0.73997  0.37937  1.0000
  O   O20       1.0  0.80444  0.76004  0.62064  1.0000
  O   O21       1.0  0.86769  0.99052  0.81638  1.0000
  O   O22       1.0  0.36771  0.50949  0.18361  1.0000
  O   O23       1.0  0.13232  0.00949  0.18361  1.0000
  O   O24       1.0  0.63228  0.49051  0.81638  1.0000
