data_image0
_chemical_formula_structural       Cu4H36C36Br4N12O4
_chemical_formula_sum              "Cu4 H36 C36 Br4 N12 O4"
_cell_length_a       7.61368
_cell_length_b       9.84411
_cell_length_c       14.781
_cell_angle_alpha    105.29
_cell_angle_beta     94.9552
_cell_angle_gamma    108.569

_space_group_name_H-M_alt    "P 1"
_space_group_IT_number       1

loop_
  _space_group_symop_operation_xyz
  'x, y, z'

loop_
  _atom_site_type_symbol
  _atom_site_label
  _atom_site_symmetry_multiplicity
  _atom_site_fract_x
  _atom_site_fract_y
  _atom_site_fract_z
  _atom_site_occupancy
  Cu  Cu1       1.0  0.22452  0.06842  0.45855  1.0000
  Cu  Cu2       1.0  0.77547  0.93158  0.54145  1.0000
  Cu  Cu3       1.0  0.40096  0.45554  0.08455  1.0000
  Cu  Cu4       1.0  0.59905  0.54447  0.91545  1.0000
  H   H1        1.0  0.16894  0.29445  0.66284  1.0000
  H   H2        1.0  0.83105  0.70555  0.33716  1.0000
  H   H3        1.0  0.12856  0.52544  0.76430  1.0000
  H   H4        1.0  0.87144  0.47456  0.23570  1.0000
  H   H5        1.0  0.15968  0.74585  0.70648  1.0000
  H   H6        1.0  0.84032  0.25415  0.29352  1.0000
  H   H7        1.0  0.23396  0.74559  0.54658  1.0000
  H   H8        1.0  0.76603  0.25441  0.45342  1.0000
  H   H9        1.0  0.20037  0.38319  0.23863  1.0000
  H   H10       1.0  0.79963  0.61681  0.76137  1.0000
  H   H11       1.0  0.44378  0.42986  0.28600  1.0000
  H   H12       1.0  0.55621  0.57014  0.71400  1.0000
  H   H13       1.0  0.52983  0.67399  0.24589  1.0000
  H   H14       1.0  0.47017  0.32601  0.75411  1.0000
  H   H15       1.0  0.11732  0.52592  0.13239  1.0000
  H   H16       1.0  0.88268  0.47408  0.86760  1.0000
  H   H17       1.0  0.30321  0.69367  0.12313  1.0000
  H   H18       1.0  0.69680  0.30633  0.87687  1.0000
  H   H19       1.0  0.60005  0.89053  0.14564  1.0000
  H   H20       1.0  0.39995  0.10947  0.85436  1.0000
  H   H21       1.0  0.90977  0.98201  0.09758  1.0000
  H   H22       1.0  0.09022  0.01797  0.90242  1.0000
  H   H23       1.0  0.00956  0.21306  0.04907  1.0000
  H   H24       1.0  0.99044  0.78693  0.95093  1.0000
  H   H25       1.0  0.80210  0.36575  0.04817  1.0000
  H   H26       1.0  0.19792  0.63425  0.95183  1.0000
  H   H27       1.0  0.03123  0.89749  0.24191  1.0000
  H   H28       1.0  0.96877  0.10251  0.75808  1.0000
  H   H29       1.0  0.14072  0.09460  0.25819  1.0000
  H   H30       1.0  0.85928  0.90540  0.74181  1.0000
  H   H31       1.0  0.45028  0.08257  0.34064  1.0000
  H   H32       1.0  0.54972  0.91743  0.65936  1.0000
  H   H33       1.0  0.15516  0.79222  0.35767  1.0000
  H   H34       1.0  0.84483  0.20778  0.64233  1.0000
  H   H35       1.0  0.40495  0.88510  0.41946  1.0000
  H   H36       1.0  0.59504  0.11489  0.58054  1.0000
  C   C1        1.0  0.22244  0.38981  0.54713  1.0000
  C   C2        1.0  0.77755  0.61019  0.45286  1.0000
  C   C3        1.0  0.18128  0.39141  0.63816  1.0000
  C   C4        1.0  0.81870  0.60859  0.36184  1.0000
  C   C5        1.0  0.15992  0.52065  0.69331  1.0000
  C   C6        1.0  0.84007  0.47935  0.30669  1.0000
  C   C7        1.0  0.17928  0.64699  0.66067  1.0000
  C   C8        1.0  0.82071  0.35301  0.33933  1.0000
  C   C9        1.0  0.22178  0.64869  0.57146  1.0000
  C   C10       1.0  0.77821  0.35131  0.42854  1.0000
  C   C11       1.0  0.24316  0.51757  0.51615  1.0000
  C   C12       1.0  0.75682  0.48243  0.48384  1.0000
  C   C13       1.0  0.33420  0.47631  0.27320  1.0000
  C   C14       1.0  0.66579  0.52368  0.72680  1.0000
  C   C15       1.0  0.39089  0.58552  0.21853  1.0000
  C   C16       1.0  0.60911  0.41448  0.78147  1.0000
  C   C17       1.0  0.26659  0.59633  0.14912  1.0000
  C   C18       1.0  0.73341  0.40366  0.85088  1.0000
  C   C19       1.0  0.52894  0.07944  0.12324  1.0000
  C   C20       1.0  0.47107  0.92056  0.87676  1.0000
  C   C21       1.0  0.64332  0.99313  0.12532  1.0000
  C   C22       1.0  0.35668  0.00687  0.87468  1.0000
  C   C23       1.0  0.81634  0.04603  0.09867  1.0000
  C   C24       1.0  0.18366  0.95397  0.90133  1.0000
  C   C25       1.0  0.87342  0.17857  0.07092  1.0000
  C   C26       1.0  0.12659  0.82142  0.92908  1.0000
  C   C27       1.0  0.75994  0.26375  0.06933  1.0000
  C   C28       1.0  0.24007  0.73625  0.93067  1.0000
  C   C29       1.0  0.58461  0.21299  0.09683  1.0000
  C   C30       1.0  0.41540  0.78701  0.90317  1.0000
  C   C31       1.0  0.16580  0.98922  0.25197  1.0000
  C   C32       1.0  0.83420  0.01078  0.74803  1.0000
  C   C33       1.0  0.30853  0.00070  0.33216  1.0000
  C   C34       1.0  0.69147  0.99930  0.66784  1.0000
  C   C35       1.0  0.28363  0.89173  0.37827  1.0000
  C   C36       1.0  0.71637  0.10827  0.62173  1.0000
  Br  Br1       1.0  0.19111  0.02156  0.60809  1.0000
  Br  Br2       1.0  0.80896  0.97847  0.39193  1.0000
  Br  Br3       1.0  0.24649  0.36789  0.91906  1.0000
  Br  Br4       1.0  0.75354  0.63211  0.08094  1.0000
  N   N1        1.0  0.28071  0.47302  0.42668  1.0000
  N   N2        1.0  0.71928  0.52698  0.57332  1.0000
  N   N3        1.0  0.28260  0.33355  0.40154  1.0000
  N   N4        1.0  0.71739  0.66645  0.59846  1.0000
  N   N5        1.0  0.24769  0.28079  0.47464  1.0000
  N   N6        1.0  0.75230  0.71922  0.52536  1.0000
  N   N7        1.0  0.43995  0.26907  0.10271  1.0000
  N   N8        1.0  0.56007  0.73094  0.89729  1.0000
  N   N9        1.0  0.29860  0.17693  0.12786  1.0000
  N   N10       1.0  0.70141  0.82308  0.87214  1.0000
  N   N11       1.0  0.35250  0.06615  0.14170  1.0000
  N   N12       1.0  0.64751  0.93386  0.85830  1.0000
  O   O1        1.0  0.31121  0.56081  0.36732  1.0000
  O   O2        1.0  0.68878  0.43919  0.63268  1.0000
  O   O3        1.0  0.22676  0.94542  0.15858  1.0000
  O   O4        1.0  0.77325  0.05459  0.84142  1.0000
