data_image0
_chemical_formula_structural       Cs4H12C28N8O28
_chemical_formula_sum              "Cs4 H12 C28 N8 O28"
_cell_length_a       7.41435
_cell_length_b       7.8315
_cell_length_c       17.5962
_cell_angle_alpha    96.758
_cell_angle_beta     90.0004
_cell_angle_gamma    90.0008

_space_group_name_H-M_alt    "P 1"
_space_group_IT_number       1

loop_
  _space_group_symop_operation_xyz
  'x, y, z'

loop_
  _atom_site_type_symbol
  _atom_site_label
  _atom_site_symmetry_multiplicity
  _atom_site_fract_x
  _atom_site_fract_y
  _atom_site_fract_z
  _atom_site_occupancy
  Cs  Cs1       1.0  0.83080  0.38674  0.79798  1.0000
  Cs  Cs2       1.0  0.33080  0.61326  0.70202  1.0000
  Cs  Cs3       1.0  0.16920  0.61326  0.20202  1.0000
  Cs  Cs4       1.0  0.66920  0.38674  0.29798  1.0000
  H   H1        1.0  0.41677  0.31540  0.03541  1.0000
  H   H2        1.0  0.91677  0.68460  0.46459  1.0000
  H   H3        1.0  0.58322  0.68461  0.96459  1.0000
  H   H4        1.0  0.08323  0.31539  0.53541  1.0000
  H   H5        1.0  0.19090  0.01775  0.83595  1.0000
  H   H6        1.0  0.69090  0.98226  0.66405  1.0000
  H   H7        1.0  0.80910  0.98224  0.16406  1.0000
  H   H8        1.0  0.30910  0.01775  0.33594  1.0000
  H   H9        1.0  0.09292  0.66833  0.99989  1.0000
  H   H10       1.0  0.59292  0.33166  0.50010  1.0000
  H   H11       1.0  0.90708  0.33166  0.00012  1.0000
  H   H12       1.0  0.40708  0.66833  0.49989  1.0000
  C   C1        1.0  0.09791  0.74007  0.89997  1.0000
  C   C2        1.0  0.59791  0.25993  0.60002  1.0000
  C   C3        1.0  0.90211  0.25992  0.10003  1.0000
  C   C4        1.0  0.40210  0.74008  0.39997  1.0000
  C   C5        1.0  0.18279  0.89872  0.93966  1.0000
  C   C6        1.0  0.68280  0.10128  0.56034  1.0000
  C   C7        1.0  0.81722  0.10128  0.06035  1.0000
  C   C8        1.0  0.31721  0.89872  0.43966  1.0000
  C   C9        1.0  0.21746  0.91242  0.02156  1.0000
  C   C10       1.0  0.71748  0.08758  0.47844  1.0000
  C   C11       1.0  0.78254  0.08759  0.97844  1.0000
  C   C12       1.0  0.28254  0.91242  0.52156  1.0000
  C   C13       1.0  0.30473  0.07039  0.05398  1.0000
  C   C14       1.0  0.80474  0.92961  0.44602  1.0000
  C   C15       1.0  0.69525  0.92962  0.94602  1.0000
  C   C16       1.0  0.19526  0.07039  0.55398  1.0000
  C   C17       1.0  0.34927  0.19961  0.00940  1.0000
  C   C18       1.0  0.84927  0.80038  0.49060  1.0000
  C   C19       1.0  0.65071  0.80040  0.99060  1.0000
  C   C20       1.0  0.15072  0.19961  0.50940  1.0000
  C   C21       1.0  0.30645  0.18001  0.93189  1.0000
  C   C22       1.0  0.80645  0.81999  0.56811  1.0000
  C   C23       1.0  0.69354  0.81999  0.06812  1.0000
  C   C24       1.0  0.19355  0.18001  0.43189  1.0000
  C   C25       1.0  0.22255  0.03078  0.89690  1.0000
  C   C26       1.0  0.72256  0.96923  0.60310  1.0000
  C   C27       1.0  0.77745  0.96922  0.10311  1.0000
  C   C28       1.0  0.27745  0.03078  0.39690  1.0000
  N   N1        1.0  0.35183  0.10097  0.13449  1.0000
  N   N2        1.0  0.85183  0.89902  0.36551  1.0000
  N   N3        1.0  0.64816  0.89904  0.86552  1.0000
  N   N4        1.0  0.14818  0.10096  0.63449  1.0000
  N   N5        1.0  0.35042  0.31603  0.88627  1.0000
  N   N6        1.0  0.85041  0.68398  0.61373  1.0000
  N   N7        1.0  0.64958  0.68397  0.11373  1.0000
  N   N8        1.0  0.14958  0.31603  0.38628  1.0000
  O   O1        1.0  0.05436  0.61885  0.94393  1.0000
  O   O2        1.0  0.55437  0.38115  0.55607  1.0000
  O   O3        1.0  0.94565  0.38115  0.05608  1.0000
  O   O4        1.0  0.44563  0.61885  0.44392  1.0000
  O   O5        1.0  0.06778  0.72105  0.83037  1.0000
  O   O6        1.0  0.56779  0.27894  0.66962  1.0000
  O   O7        1.0  0.93222  0.27894  0.16964  1.0000
  O   O8        1.0  0.43223  0.72106  0.33037  1.0000
  O   O9        1.0  0.16880  0.79173  0.06008  1.0000
  O   O10       1.0  0.66881  0.20827  0.43992  1.0000
  O   O11       1.0  0.83119  0.20828  0.93993  1.0000
  O   O12       1.0  0.33119  0.79173  0.56007  1.0000
  O   O13       1.0  0.34855  0.97970  0.17422  1.0000
  O   O14       1.0  0.84855  0.02029  0.32578  1.0000
  O   O15       1.0  0.65145  0.02032  0.82579  1.0000
  O   O16       1.0  0.15146  0.97969  0.67422  1.0000
  O   O17       1.0  0.39899  0.24989  0.16044  1.0000
  O   O18       1.0  0.89899  0.75010  0.33956  1.0000
  O   O19       1.0  0.60101  0.75012  0.83956  1.0000
  O   O20       1.0  0.10101  0.24989  0.66044  1.0000
  O   O21       1.0  0.46186  0.42706  0.91203  1.0000
  O   O22       1.0  0.96185  0.57295  0.58797  1.0000
  O   O23       1.0  0.53814  0.57294  0.08797  1.0000
  O   O24       1.0  0.03814  0.42706  0.41203  1.0000
  O   O25       1.0  0.27510  0.31522  0.82275  1.0000
  O   O26       1.0  0.77510  0.68479  0.67725  1.0000
  O   O27       1.0  0.72490  0.68477  0.17725  1.0000
  O   O28       1.0  0.22490  0.31522  0.32275  1.0000
