data_image0
_chemical_formula_structural       Li4B4H48C14N4O4
_chemical_formula_sum              "Li4 B4 H48 C14 N4 O4"
_cell_length_a       8.76727
_cell_length_b       9.15514
_cell_length_c       9.60434
_cell_angle_alpha    79.3308
_cell_angle_beta     65.5662
_cell_angle_gamma    63.6853

_space_group_name_H-M_alt    "P 1"
_space_group_IT_number       1

loop_
  _space_group_symop_operation_xyz
  'x, y, z'

loop_
  _atom_site_type_symbol
  _atom_site_label
  _atom_site_symmetry_multiplicity
  _atom_site_fract_x
  _atom_site_fract_y
  _atom_site_fract_z
  _atom_site_occupancy
  Li  Li1       1.0  0.25340  0.92794  0.37678  1.0000
  Li  Li2       1.0  0.74660  0.07206  0.62322  1.0000
  Li  Li3       1.0  0.64989  0.33124  0.34641  1.0000
  Li  Li4       1.0  0.35010  0.66876  0.65359  1.0000
  B   B1        1.0  0.91908  0.08169  0.32787  1.0000
  B   B2        1.0  0.08093  0.91831  0.67213  1.0000
  B   B3        1.0  0.51789  0.67406  0.35371  1.0000
  B   B4        1.0  0.48211  0.32595  0.64629  1.0000
  H   H1        1.0  0.18071  0.18682  0.15126  1.0000
  H   H2        1.0  0.81929  0.81318  0.84875  1.0000
  H   H3        1.0  0.34641  0.00666  0.04400  1.0000
  H   H4        1.0  0.65359  0.99334  0.95599  1.0000
  H   H5        1.0  0.12907  0.11467  0.02344  1.0000
  H   H6        1.0  0.87093  0.88533  0.97655  1.0000
  H   H7        1.0  0.09293  0.75863  0.26089  1.0000
  H   H8        1.0  0.90707  0.24137  0.73910  1.0000
  H   H9        1.0  0.06326  0.86935  0.09369  1.0000
  H   H10       1.0  0.93675  0.13065  0.90630  1.0000
  H   H11       1.0  0.28749  0.76400  0.09873  1.0000
  H   H12       1.0  0.71251  0.23600  0.90127  1.0000
  H   H13       1.0  0.90168  0.19467  0.39461  1.0000
  H   H14       1.0  0.09832  0.80532  0.60539  1.0000
  H   H15       1.0  0.85420  0.99234  0.42003  1.0000
  H   H16       1.0  0.14580  0.00766  0.57997  1.0000
  H   H17       1.0  0.83049  0.13895  0.24302  1.0000
  H   H18       1.0  0.16951  0.86105  0.75698  1.0000
  H   H19       1.0  0.36789  0.66969  0.38786  1.0000
  H   H20       1.0  0.63211  0.33031  0.61214  1.0000
  H   H21       1.0  0.51225  0.80836  0.29456  1.0000
  H   H22       1.0  0.48775  0.19164  0.70544  1.0000
  H   H23       1.0  0.55031  0.66217  0.46884  1.0000
  H   H24       1.0  0.44968  0.33784  0.53116  1.0000
  H   H25       1.0  0.65436  0.66544  0.03724  1.0000
  H   H26       1.0  0.34566  0.33455  0.96276  1.0000
  H   H27       1.0  0.76663  0.44750  0.02067  1.0000
  H   H28       1.0  0.23338  0.55249  0.97933  1.0000
  H   H29       1.0  0.52397  0.54553  0.11538  1.0000
  H   H30       1.0  0.47604  0.45446  0.88462  1.0000
  H   H31       1.0  0.96536  0.43419  0.13535  1.0000
  H   H32       1.0  0.03464  0.56580  0.86467  1.0000
  H   H33       1.0  0.87456  0.51363  0.32226  1.0000
  H   H34       1.0  0.12543  0.48637  0.67775  1.0000
  H   H35       1.0  0.06754  0.30199  0.43201  1.0000
  H   H36       1.0  0.93246  0.69801  0.56799  1.0000
  H   H37       1.0  0.26738  0.49202  0.37779  1.0000
  H   H38       1.0  0.73261  0.50799  0.62220  1.0000
  H   H39       1.0  0.86322  0.64963  0.16396  1.0000
  H   H40       1.0  0.13679  0.35036  0.83605  1.0000
  H   H41       1.0  0.20578  0.26774  0.54131  1.0000
  H   H42       1.0  0.79421  0.73227  0.45869  1.0000
  H   H43       1.0  0.25128  0.42501  0.22142  1.0000
  H   H44       1.0  0.74871  0.57499  0.77858  1.0000
  H   H45       1.0  0.59012  0.04601  0.18852  1.0000
  H   H46       1.0  0.40987  0.95400  0.81148  1.0000
  H   H47       1.0  0.57035  0.06091  0.38134  1.0000
  H   H48       1.0  0.42965  0.93909  0.61866  1.0000
  C   C1        1.0  0.19815  0.07628  0.10654  1.0000
  C   C2        1.0  0.80186  0.92373  0.89345  1.0000
  C   C3        1.0  0.14270  0.83606  0.16810  1.0000
  C   C4        1.0  0.85730  0.16394  0.83190  1.0000
  C   C5        1.0  0.65433  0.54923  0.09685  1.0000
  C   C6        1.0  0.34568  0.45076  0.90315  1.0000
  C   C7        1.0  0.85317  0.53317  0.21421  1.0000
  C   C8        1.0  0.14683  0.46682  0.78580  1.0000
  C   C9        1.0  0.20525  0.27464  0.42580  1.0000
  C   C10       1.0  0.79474  0.72536  0.57421  1.0000
  C   C11       1.0  0.29210  0.38567  0.32086  1.0000
  C   C12       1.0  0.70790  0.61433  0.67914  1.0000
  C   C13       1.0  0.50681  0.11504  0.29569  1.0000
  C   C14       1.0  0.49319  0.88496  0.70431  1.0000
  N   N1        1.0  0.12221  0.98000  0.23187  1.0000
  N   N2        1.0  0.87780  0.02000  0.76813  1.0000
  N   N3        1.0  0.67491  0.53547  0.24283  1.0000
  N   N4        1.0  0.32509  0.46452  0.75717  1.0000
  O   O1        1.0  0.48685  0.28180  0.26985  1.0000
  O   O2        1.0  0.51314  0.71820  0.73015  1.0000
  O   O3        1.0  0.32736  0.12001  0.34918  1.0000
  O   O4        1.0  0.67263  0.87999  0.65082  1.0000
