data_image0
_chemical_formula_structural       Cs4H20C24N8O24
_chemical_formula_sum              "Cs4 H20 C24 N8 O24"
_cell_length_a       5.55135
_cell_length_b       7.76733
_cell_length_c       22.4205
_cell_angle_alpha    90.0001
_cell_angle_beta     90.0011
_cell_angle_gamma    89.0075

_space_group_name_H-M_alt    "P 1"
_space_group_IT_number       1

loop_
  _space_group_symop_operation_xyz
  'x, y, z'

loop_
  _atom_site_type_symbol
  _atom_site_label
  _atom_site_symmetry_multiplicity
  _atom_site_fract_x
  _atom_site_fract_y
  _atom_site_fract_z
  _atom_site_occupancy
  Cs  Cs1       1.0  0.31603  0.26298  0.51634  1.0000
  Cs  Cs2       1.0  0.68398  0.23703  0.01634  1.0000
  Cs  Cs3       1.0  0.68397  0.73703  0.48366  1.0000
  Cs  Cs4       1.0  0.31605  0.76297  0.98366  1.0000
  H   H1        1.0  0.95179  0.11184  0.73531  1.0000
  H   H2        1.0  0.04821  0.38815  0.23532  1.0000
  H   H3        1.0  0.04821  0.88816  0.26469  1.0000
  H   H4        1.0  0.95179  0.61184  0.76468  1.0000
  H   H5        1.0  0.32532  0.83827  0.79392  1.0000
  H   H6        1.0  0.67467  0.66173  0.29393  1.0000
  H   H7        1.0  0.67466  0.16174  0.20608  1.0000
  H   H8        1.0  0.32532  0.33826  0.70607  1.0000
  H   H9        1.0  0.20362  0.79623  0.68823  1.0000
  H   H10       1.0  0.79640  0.70376  0.18824  1.0000
  H   H11       1.0  0.79639  0.20377  0.31177  1.0000
  H   H12       1.0  0.20361  0.29624  0.81176  1.0000
  H   H13       1.0  0.06116  0.60645  0.58842  1.0000
  H   H14       1.0  0.93884  0.89354  0.08842  1.0000
  H   H15       1.0  0.93883  0.39355  0.41158  1.0000
  H   H16       1.0  0.06118  0.10646  0.91158  1.0000
  H   H17       1.0  0.24440  0.74630  0.57201  1.0000
  H   H18       1.0  0.75559  0.75369  0.07201  1.0000
  H   H19       1.0  0.75559  0.25371  0.42799  1.0000
  H   H20       1.0  0.24442  0.24631  0.92799  1.0000
  C   C1        1.0  0.50398  0.92964  0.64903  1.0000
  C   C2        1.0  0.49603  0.57035  0.14904  1.0000
  C   C3        1.0  0.49602  0.07036  0.35096  1.0000
  C   C4        1.0  0.50398  0.42965  0.85096  1.0000
  C   C5        1.0  0.72145  0.02182  0.66571  1.0000
  C   C6        1.0  0.27856  0.47818  0.16572  1.0000
  C   C7        1.0  0.27856  0.97818  0.33429  1.0000
  C   C8        1.0  0.72144  0.52182  0.83428  1.0000
  C   C9        1.0  0.78871  0.04283  0.72491  1.0000
  C   C10       1.0  0.21128  0.45716  0.22491  1.0000
  C   C11       1.0  0.21128  0.95717  0.27509  1.0000
  C   C12       1.0  0.78872  0.54283  0.77509  1.0000
  C   C13       1.0  0.64799  0.97660  0.77034  1.0000
  C   C14       1.0  0.35201  0.52340  0.27035  1.0000
  C   C15       1.0  0.35200  0.02341  0.22965  1.0000
  C   C16       1.0  0.64798  0.47658  0.72965  1.0000
  C   C17       1.0  0.43345  0.88767  0.75741  1.0000
  C   C18       1.0  0.56654  0.61233  0.25741  1.0000
  C   C19       1.0  0.56654  0.11234  0.24259  1.0000
  C   C20       1.0  0.43345  0.38767  0.74259  1.0000
  C   C21       1.0  0.36689  0.86553  0.69916  1.0000
  C   C22       1.0  0.63313  0.63446  0.19917  1.0000
  C   C23       1.0  0.63312  0.13447  0.30084  1.0000
  C   C24       1.0  0.36687  0.36554  0.80083  1.0000
  N   N1        1.0  0.87630  0.09881  0.62204  1.0000
  N   N2        1.0  0.12368  0.40119  0.12205  1.0000
  N   N3        1.0  0.12369  0.90119  0.37795  1.0000
  N   N4        1.0  0.87632  0.59882  0.87795  1.0000
  N   N5        1.0  0.72025  0.00389  0.83060  1.0000
  N   N6        1.0  0.27973  0.49610  0.33060  1.0000
  N   N7        1.0  0.27974  0.99611  0.16940  1.0000
  N   N8        1.0  0.72027  0.50388  0.66940  1.0000
  O   O1        1.0  0.43343  0.90717  0.59585  1.0000
  O   O2        1.0  0.56657  0.59283  0.09586  1.0000
  O   O3        1.0  0.56657  0.09284  0.40415  1.0000
  O   O4        1.0  0.43344  0.40717  0.90415  1.0000
  O   O5        1.0  0.84328  0.07003  0.56784  1.0000
  O   O6        1.0  0.15672  0.42997  0.06784  1.0000
  O   O7        1.0  0.15673  0.92997  0.43216  1.0000
  O   O8        1.0  0.84331  0.57004  0.93215  1.0000
  O   O9        1.0  0.04117  0.19457  0.63995  1.0000
  O   O10       1.0  0.95883  0.30543  0.13995  1.0000
  O   O11       1.0  0.95884  0.80543  0.36006  1.0000
  O   O12       1.0  0.04116  0.69459  0.86005  1.0000
  O   O13       1.0  0.90573  0.09115  0.84001  1.0000
  O   O14       1.0  0.09425  0.40884  0.34000  1.0000
  O   O15       1.0  0.09426  0.90885  0.15999  1.0000
  O   O16       1.0  0.90577  0.59112  0.66000  1.0000
  O   O17       1.0  0.59775  0.94218  0.87192  1.0000
  O   O18       1.0  0.40222  0.55781  0.37193  1.0000
  O   O19       1.0  0.40225  0.05783  0.12808  1.0000
  O   O20       1.0  0.59776  0.44218  0.62808  1.0000
  O   O21       1.0  0.15643  0.64774  0.55445  1.0000
  O   O22       1.0  0.84356  0.85225  0.05445  1.0000
  O   O23       1.0  0.84356  0.35227  0.44555  1.0000
  O   O24       1.0  0.15646  0.14775  0.94555  1.0000
