data_image0
_chemical_formula_structural       Li4B4H52C16N4O4
_chemical_formula_sum              "Li4 B4 H52 C16 N4 O4"
_cell_length_a       8.74643
_cell_length_b       9.3837
_cell_length_c       10.4196
_cell_angle_alpha    77.3621
_cell_angle_beta     64.9246
_cell_angle_gamma    63.8947

_space_group_name_H-M_alt    "P 1"
_space_group_IT_number       1

loop_
  _space_group_symop_operation_xyz
  'x, y, z'

loop_
  _atom_site_type_symbol
  _atom_site_label
  _atom_site_symmetry_multiplicity
  _atom_site_fract_x
  _atom_site_fract_y
  _atom_site_fract_z
  _atom_site_occupancy
  Li  Li1       1.0  0.84910  0.64158  0.64450  1.0000
  Li  Li2       1.0  0.15090  0.35842  0.35550  1.0000
  Li  Li3       1.0  0.06071  0.06671  0.61893  1.0000
  Li  Li4       1.0  0.93928  0.93329  0.38107  1.0000
  B   B1        1.0  0.05238  0.33054  0.63368  1.0000
  B   B2        1.0  0.94762  0.66946  0.36632  1.0000
  B   B3        1.0  0.85008  0.90661  0.65463  1.0000
  B   B4        1.0  0.14992  0.09338  0.34537  1.0000
  H   H1        1.0  0.47028  0.96427  0.67011  1.0000
  H   H2        1.0  0.52972  0.03574  0.32989  1.0000
  H   H3        1.0  0.63199  0.21847  0.70216  1.0000
  H   H4        1.0  0.36802  0.78153  0.29784  1.0000
  H   H5        1.0  0.65784  0.23147  0.85898  1.0000
  H   H6        1.0  0.34216  0.76852  0.14102  1.0000
  H   H7        1.0  0.52554  0.79452  0.48967  1.0000
  H   H8        1.0  0.47446  0.20547  0.51033  1.0000
  H   H9        1.0  0.40070  0.56669  0.73212  1.0000
  H   H10       1.0  0.59929  0.43331  0.26789  1.0000
  H   H11       1.0  0.78074  0.98716  0.56840  1.0000
  H   H12       1.0  0.21926  0.01284  0.43160  1.0000
  H   H13       1.0  0.50984  0.80086  0.88363  1.0000
  H   H14       1.0  0.49015  0.19915  0.11637  1.0000
  H   H15       1.0  0.34529  0.73143  0.52278  1.0000
  H   H16       1.0  0.65471  0.26857  0.47723  1.0000
  H   H17       1.0  0.08838  0.55205  0.83608  1.0000
  H   H18       1.0  0.91162  0.44795  0.16392  1.0000
  H   H19       1.0  0.92457  0.33436  0.60919  1.0000
  H   H20       1.0  0.07543  0.66564  0.39081  1.0000
  H   H21       1.0  0.25198  0.01737  0.81369  1.0000
  H   H22       1.0  0.74802  0.98263  0.18630  1.0000
  H   H23       1.0  0.76924  0.88646  0.94625  1.0000
  H   H24       1.0  0.23077  0.11353  0.05375  1.0000
  H   H25       1.0  0.13243  0.19550  0.67635  1.0000
  H   H26       1.0  0.86757  0.80450  0.32365  1.0000
  H   H27       1.0  0.16734  0.35986  0.52555  1.0000
  H   H28       1.0  0.83265  0.64014  0.47445  1.0000
  H   H29       1.0  0.75576  0.82987  0.72889  1.0000
  H   H30       1.0  0.24424  0.17013  0.27111  1.0000
  H   H31       1.0  0.33692  0.73402  0.90393  1.0000
  H   H32       1.0  0.66307  0.26599  0.09607  1.0000
  H   H33       1.0  0.80966  0.51212  0.95640  1.0000
  H   H34       1.0  0.19034  0.48788  0.04360  1.0000
  H   H35       1.0  0.00892  0.83003  0.84380  1.0000
  H   H36       1.0  0.99109  0.16996  0.15619  1.0000
  H   H37       1.0  0.61637  0.51778  0.58448  1.0000
  H   H38       1.0  0.38362  0.48222  0.41553  1.0000
  H   H39       1.0  0.00962  0.81384  0.59478  1.0000
  H   H40       1.0  0.99038  0.18616  0.40522  1.0000
  H   H41       1.0  0.88332  0.00906  0.93765  1.0000
  H   H42       1.0  0.11669  0.99093  0.06234  1.0000
  H   H43       1.0  0.22796  0.49355  0.65758  1.0000
  H   H44       1.0  0.77204  0.50645  0.34242  1.0000
  H   H45       1.0  0.93001  0.30349  0.92921  1.0000
  H   H46       1.0  0.06999  0.69651  0.07079  1.0000
  H   H47       1.0  0.22264  0.34634  0.79912  1.0000
  H   H48       1.0  0.77736  0.65366  0.20088  1.0000
  H   H49       1.0  0.54766  0.10962  0.85950  1.0000
  H   H50       1.0  0.45235  0.89037  0.14050  1.0000
  H   H51       1.0  0.74305  0.41669  0.87083  1.0000
  H   H52       1.0  0.25695  0.58331  0.12917  1.0000
  C   C1        1.0  0.36277  0.92160  0.74365  1.0000
  C   C2        1.0  0.63723  0.07840  0.25635  1.0000
  C   C3        1.0  0.50434  0.61219  0.65586  1.0000
  C   C4        1.0  0.49565  0.38781  0.34414  1.0000
  C   C5        1.0  0.41837  0.75708  0.57250  1.0000
  C   C6        1.0  0.58163  0.24292  0.42750  1.0000
  C   C7        1.0  0.44379  0.77571  0.82733  1.0000
  C   C8        1.0  0.55620  0.22430  0.17267  1.0000
  C   C9        1.0  0.66103  0.15047  0.79497  1.0000
  C   C10       1.0  0.33897  0.84953  0.20503  1.0000
  C   C11       1.0  0.13806  0.46148  0.76019  1.0000
  C   C12       1.0  0.86193  0.53852  0.23982  1.0000
  C   C13       1.0  0.86102  0.41967  0.88163  1.0000
  C   C14       1.0  0.13898  0.58033  0.11838  1.0000
  C   C15       1.0  0.87675  0.93200  0.87555  1.0000
  C   C16       1.0  0.12326  0.06799  0.12444  1.0000
  N   N1        1.0  0.98506  0.45296  0.74350  1.0000
  N   N2        1.0  0.01493  0.54704  0.25650  1.0000
  N   N3        1.0  0.83964  0.01813  0.75014  1.0000
  N   N4        1.0  0.16036  0.98187  0.24986  1.0000
  O   O1        1.0  0.58405  0.65004  0.73275  1.0000
  O   O2        1.0  0.41594  0.34996  0.26726  1.0000
  O   O3        1.0  0.28313  0.88625  0.66460  1.0000
  O   O4        1.0  0.71687  0.11375  0.33540  1.0000
