data_image0
_chemical_formula_structural       Cs4H16C28S4O24
_chemical_formula_sum              "Cs4 H16 C28 S4 O24"
_cell_length_a       7.68027
_cell_length_b       9.62073
_cell_length_c       13.7959
_cell_angle_alpha    93.766
_cell_angle_beta     89.9992
_cell_angle_gamma    90.0004

_space_group_name_H-M_alt    "P 1"
_space_group_IT_number       1

loop_
  _space_group_symop_operation_xyz
  'x, y, z'

loop_
  _atom_site_type_symbol
  _atom_site_label
  _atom_site_symmetry_multiplicity
  _atom_site_fract_x
  _atom_site_fract_y
  _atom_site_fract_z
  _atom_site_occupancy
  Cs  Cs1       1.0  0.82129  0.03006  0.86119  1.0000
  Cs  Cs2       1.0  0.32128  0.96993  0.63880  1.0000
  Cs  Cs3       1.0  0.17874  0.96989  0.13880  1.0000
  Cs  Cs4       1.0  0.67872  0.03008  0.36119  1.0000
  H   H1        1.0  0.21759  0.58101  0.98826  1.0000
  H   H2        1.0  0.71755  0.41904  0.51176  1.0000
  H   H3        1.0  0.78244  0.41900  0.01175  1.0000
  H   H4        1.0  0.28246  0.58098  0.48824  1.0000
  H   H5        1.0  0.54723  0.34493  0.71074  1.0000
  H   H6        1.0  0.04727  0.65506  0.78926  1.0000
  H   H7        1.0  0.45271  0.65505  0.28925  1.0000
  H   H8        1.0  0.95270  0.34493  0.21075  1.0000
  H   H9        1.0  0.55115  0.60704  0.73735  1.0000
  H   H10       1.0  0.05115  0.39294  0.76263  1.0000
  H   H11       1.0  0.44880  0.39293  0.26262  1.0000
  H   H12       1.0  0.94880  0.60705  0.23738  1.0000
  H   H13       1.0  0.25494  0.14672  0.90402  1.0000
  H   H14       1.0  0.75497  0.85331  0.59600  1.0000
  H   H15       1.0  0.74505  0.85328  0.09600  1.0000
  H   H16       1.0  0.24505  0.14670  0.40400  1.0000
  C   C1        1.0  0.38460  0.60832  0.86325  1.0000
  C   C2        1.0  0.88458  0.39169  0.63675  1.0000
  C   C3        1.0  0.61540  0.39167  0.13674  1.0000
  C   C4        1.0  0.11541  0.60831  0.36325  1.0000
  C   C5        1.0  0.29062  0.52955  0.92851  1.0000
  C   C6        1.0  0.79059  0.47048  0.57151  1.0000
  C   C7        1.0  0.70939  0.47045  0.07150  1.0000
  C   C8        1.0  0.20941  0.52953  0.42849  1.0000
  C   C9        1.0  0.28878  0.38620  0.91677  1.0000
  C   C10       1.0  0.78879  0.61383  0.58325  1.0000
  C   C11       1.0  0.71122  0.61380  0.08324  1.0000
  C   C12       1.0  0.21123  0.38618  0.41675  1.0000
  C   C13       1.0  0.38359  0.31554  0.83586  1.0000
  C   C14       1.0  0.88362  0.68448  0.66415  1.0000
  C   C15       1.0  0.61638  0.68446  0.16414  1.0000
  C   C16       1.0  0.11639  0.31553  0.33585  1.0000
  C   C17       1.0  0.48076  0.39964  0.77161  1.0000
  C   C18       1.0  0.98079  0.60036  0.72840  1.0000
  C   C19       1.0  0.51920  0.60035  0.22839  1.0000
  C   C20       1.0  0.01920  0.39963  0.27161  1.0000
  C   C21       1.0  0.47967  0.54238  0.78557  1.0000
  C   C22       1.0  0.97967  0.45762  0.71443  1.0000
  C   C23       1.0  0.52030  0.45760  0.21441  1.0000
  C   C24       1.0  0.02030  0.54238  0.28558  1.0000
  C   C25       1.0  0.18589  0.30586  0.98580  1.0000
  C   C26       1.0  0.68592  0.69418  0.51422  1.0000
  C   C27       1.0  0.81412  0.69415  0.01422  1.0000
  C   C28       1.0  0.31412  0.30583  0.48578  1.0000
  S   S1        1.0  0.38571  0.79328  0.88214  1.0000
  S   S2        1.0  0.88568  0.20674  0.61785  1.0000
  S   S3        1.0  0.61431  0.20672  0.11786  1.0000
  S   S4        1.0  0.11431  0.79326  0.38215  1.0000
  O   O1        1.0  0.42935  0.81738  0.98540  1.0000
  O   O2        1.0  0.92928  0.18268  0.51457  1.0000
  O   O3        1.0  0.57077  0.18261  0.01458  1.0000
  O   O4        1.0  0.07071  0.81733  0.48542  1.0000
  O   O5        1.0  0.51812  0.84053  0.81491  1.0000
  O   O6        1.0  0.01811  0.15948  0.68505  1.0000
  O   O7        1.0  0.48185  0.15946  0.18505  1.0000
  O   O8        1.0  0.98187  0.84053  0.31495  1.0000
  O   O9        1.0  0.20908  0.83943  0.85842  1.0000
  O   O10       1.0  0.70906  0.16057  0.64158  1.0000
  O   O11       1.0  0.79093  0.16057  0.14163  1.0000
  O   O12       1.0  0.29093  0.83943  0.35841  1.0000
  O   O13       1.0  0.11399  0.36095  0.05782  1.0000
  O   O14       1.0  0.61404  0.63909  0.44220  1.0000
  O   O15       1.0  0.88601  0.63907  0.94220  1.0000
  O   O16       1.0  0.38601  0.36092  0.55779  1.0000
  O   O17       1.0  0.17253  0.16822  0.96217  1.0000
  O   O18       1.0  0.67256  0.83181  0.53785  1.0000
  O   O19       1.0  0.82748  0.83178  0.03785  1.0000
  O   O20       1.0  0.32747  0.16819  0.46215  1.0000
  O   O21       1.0  0.37803  0.18349  0.82068  1.0000
  O   O22       1.0  0.87808  0.81653  0.67933  1.0000
  O   O23       1.0  0.62193  0.81651  0.17932  1.0000
  O   O24       1.0  0.12195  0.18348  0.32067  1.0000
