data_image0
_chemical_formula_structural       Tb4H32C30O32
_chemical_formula_sum              "Tb4 H32 C30 O32"
_cell_length_a       7.83495
_cell_length_b       10.2079
_cell_length_c       14.4307
_cell_angle_alpha    70.8201
_cell_angle_beta     74.2378
_cell_angle_gamma    67.4354

_space_group_name_H-M_alt    "P 1"
_space_group_IT_number       1

loop_
  _space_group_symop_operation_xyz
  'x, y, z'

loop_
  _atom_site_type_symbol
  _atom_site_label
  _atom_site_symmetry_multiplicity
  _atom_site_fract_x
  _atom_site_fract_y
  _atom_site_fract_z
  _atom_site_occupancy
  Tb  Tb1       1.0  0.88716  0.87495  0.61445  1.0000
  Tb  Tb2       1.0  0.37629  0.62508  0.88565  1.0000
  Tb  Tb3       1.0  0.11284  0.12504  0.38555  1.0000
  Tb  Tb4       1.0  0.62371  0.37493  0.11435  1.0000
  H   H1        1.0  0.77503  0.59603  0.71596  1.0000
  H   H2        1.0  0.08715  0.90417  0.78405  1.0000
  H   H3        1.0  0.22498  0.40396  0.28404  1.0000
  H   H4        1.0  0.91284  0.09583  0.21595  1.0000
  H   H5        1.0  0.72084  0.66897  0.60921  1.0000
  H   H6        1.0  0.99852  0.83116  0.89060  1.0000
  H   H7        1.0  0.27914  0.33104  0.39080  1.0000
  H   H8        1.0  0.00148  0.16882  0.10940  1.0000
  H   H9        1.0  0.47520  0.01796  0.58963  1.0000
  H   H10       1.0  0.08271  0.48214  0.91024  1.0000
  H   H11       1.0  0.52481  0.98202  0.41033  1.0000
  H   H12       1.0  0.91721  0.51789  0.08980  1.0000
  H   H13       1.0  0.50441  0.87998  0.68149  1.0000
  H   H14       1.0  0.06591  0.62024  0.81850  1.0000
  H   H15       1.0  0.49558  0.12004  0.31850  1.0000
  H   H16       1.0  0.93408  0.37974  0.18151  1.0000
  H   H17       1.0  0.51291  0.36840  0.67729  1.0000
  H   H18       1.0  0.55737  0.13198  0.82268  1.0000
  H   H19       1.0  0.48709  0.63159  0.32271  1.0000
  H   H20       1.0  0.44262  0.86802  0.17732  1.0000
  H   H21       1.0  0.23835  0.23698  0.64768  1.0000
  H   H22       1.0  0.12285  0.26354  0.85190  1.0000
  H   H23       1.0  0.76166  0.76301  0.35233  1.0000
  H   H24       1.0  0.87716  0.73646  0.14810  1.0000
  H   H25       1.0  0.24176  0.07738  0.74832  1.0000
  H   H26       1.0  0.06713  0.42339  0.75146  1.0000
  H   H27       1.0  0.75823  0.92261  0.25169  1.0000
  H   H28       1.0  0.93288  0.57661  0.24854  1.0000
  H   H29       1.0  0.88021  0.32715  0.69735  1.0000
  H   H30       1.0  0.90417  0.17379  0.80202  1.0000
  H   H31       1.0  0.11979  0.67285  0.30266  1.0000
  H   H32       1.0  0.09583  0.82621  0.19798  1.0000
  C   C1        1.0  0.60288  0.35019  0.52602  1.0000
  C   C2        1.0  0.47900  0.14981  0.97403  1.0000
  C   C3        1.0  0.39713  0.64981  0.47398  1.0000
  C   C4        1.0  0.52099  0.85020  0.02597  1.0000
  C   C5        1.0  0.59669  0.42388  0.42495  1.0000
  C   C6        1.0  0.44610  0.07592  0.07511  1.0000
  C   C7        1.0  0.40331  0.57612  0.57505  1.0000
  C   C8        1.0  0.55389  0.92409  0.92489  1.0000
  C   C9        1.0  0.50690  0.42709  0.59940  1.0000
  C   C10       1.0  0.53260  0.07315  0.90058  1.0000
  C   C11       1.0  0.49311  0.57290  0.40060  1.0000
  C   C12       1.0  0.46740  0.92686  0.09942  1.0000
  C   C13       1.0  0.70143  0.18989  0.55990  1.0000
  C   C14       1.0  0.45110  0.31011  0.94023  1.0000
  C   C15       1.0  0.29857  0.81011  0.44010  1.0000
  C   C16       1.0  0.54890  0.68990  0.05976  1.0000
  C   C17       1.0  0.69511  0.35603  0.33798  1.0000
  C   C18       1.0  0.38987  0.14379  0.16207  1.0000
  C   C19       1.0  0.30489  0.64397  0.66202  1.0000
  C   C20       1.0  0.61014  0.85622  0.83793  1.0000
  C   C21       1.0  0.11235  0.09766  0.62759  1.0000
  C   C22       1.0  0.83745  0.40262  0.87223  1.0000
  C   C23       1.0  0.88766  0.90234  0.37241  1.0000
  C   C24       1.0  0.16256  0.59738  0.12777  1.0000
  C   C25       1.0  0.15777  0.16387  0.69386  1.0000
  C   C26       1.0  0.01529  0.33671  0.80582  1.0000
  C   C27       1.0  0.84223  0.83612  0.30615  1.0000
  C   C28       1.0  0.98471  0.66328  0.19418  1.0000
  C   C29       1.0  0.97523  0.25042  0.74974  1.0000
  C   C30       1.0  0.02477  0.74958  0.25026  1.0000
  O   O1        1.0  0.66111  0.12110  0.64849  1.0000
  O   O2        1.0  0.43029  0.37901  0.85169  1.0000
  O   O3        1.0  0.33890  0.87889  0.35151  1.0000
  O   O4        1.0  0.56971  0.62099  0.14830  1.0000
  O   O5        1.0  0.82432  0.12047  0.49705  1.0000
  O   O6        1.0  0.44191  0.37940  0.00310  1.0000
  O   O7        1.0  0.17569  0.87952  0.50296  1.0000
  O   O8        1.0  0.55810  0.62061  0.99688  1.0000
  O   O9        1.0  0.81799  0.64983  0.64661  1.0000
  O   O10       1.0  0.11414  0.85020  0.85345  1.0000
  O   O11       1.0  0.18200  0.35016  0.35340  1.0000
  O   O12       1.0  0.88585  0.14980  0.14656  1.0000
  O   O13       1.0  0.55328  0.91630  0.60997  1.0000
  O   O14       1.0  0.07942  0.58380  0.89004  1.0000
  O   O15       1.0  0.44674  0.08369  0.39002  1.0000
  O   O16       1.0  0.92058  0.41620  0.10997  1.0000
  O   O17       1.0  0.87307  0.32706  0.31383  1.0000
  O   O18       1.0  0.51477  0.17255  0.18627  1.0000
  O   O19       1.0  0.12693  0.67293  0.68617  1.0000
  O   O20       1.0  0.48522  0.82747  0.81372  1.0000
  O   O21       1.0  0.59427  0.34440  0.28833  1.0000
  O   O22       1.0  0.22753  0.15584  0.21159  1.0000
  O   O23       1.0  0.40574  0.65561  0.71166  1.0000
  O   O24       1.0  0.77248  0.84415  0.78841  1.0000
  O   O25       1.0  0.04919  0.98967  0.66918  1.0000
  O   O26       1.0  0.70770  0.51057  0.83078  1.0000
  O   O27       1.0  0.95081  0.01033  0.33082  1.0000
  O   O28       1.0  0.29230  0.48943  0.16921  1.0000
  O   O29       1.0  0.13320  0.15703  0.53493  1.0000
  O   O30       1.0  0.82519  0.34307  0.96486  1.0000
  O   O31       1.0  0.86681  0.84296  0.46507  1.0000
  O   O32       1.0  0.17482  0.65694  0.03514  1.0000
