data_image0
_chemical_formula_structural       Dy2H10C12O16
_chemical_formula_sum              "Dy2 H10 C12 O16"
_cell_length_a       6.22645
_cell_length_b       8.63977
_cell_length_c       8.7778
_cell_angle_alpha    111.239
_cell_angle_beta     109.852
_cell_angle_gamma    91.451

_space_group_name_H-M_alt    "P 1"
_space_group_IT_number       1

loop_
  _space_group_symop_operation_xyz
  'x, y, z'

loop_
  _atom_site_type_symbol
  _atom_site_label
  _atom_site_symmetry_multiplicity
  _atom_site_fract_x
  _atom_site_fract_y
  _atom_site_fract_z
  _atom_site_occupancy
  Dy  Dy1       1.0  0.68050  0.64943  0.81869  1.0000
  Dy  Dy2       1.0  0.31949  0.35057  0.18131  1.0000
  H   H1        1.0  0.19029  0.71810  0.71764  1.0000
  H   H2        1.0  0.80970  0.28189  0.28236  1.0000
  H   H3        1.0  0.22799  0.64411  0.53285  1.0000
  H   H4        1.0  0.77201  0.35588  0.46715  1.0000
  H   H5        1.0  0.51193  0.66894  0.10856  1.0000
  H   H6        1.0  0.48807  0.33105  0.89144  1.0000
  H   H7        1.0  0.31783  0.72683  0.97254  1.0000
  H   H8        1.0  0.68217  0.27316  0.02746  1.0000
  H   H9        1.0  0.74136  0.03112  0.66709  1.0000
  H   H10       1.0  0.25864  0.96887  0.33291  1.0000
  C   C1        1.0  0.68504  0.71160  0.44128  1.0000
  C   C2        1.0  0.31496  0.28840  0.55873  1.0000
  C   C3        1.0  0.85039  0.85911  0.47117  1.0000
  C   C4        1.0  0.14962  0.14090  0.52883  1.0000
  C   C5        1.0  0.85728  0.01812  0.59539  1.0000
  C   C6        1.0  0.14272  0.98188  0.40461  1.0000
  C   C7        1.0  0.99503  0.84048  0.37473  1.0000
  C   C8        1.0  0.00496  0.15952  0.62526  1.0000
  C   C9        1.0  0.00285  0.67145  0.24318  1.0000
  C   C10       1.0  0.99715  0.32856  0.75682  1.0000
  C   C11       1.0  0.89360  0.03930  0.01009  1.0000
  C   C12       1.0  0.10643  0.96071  0.98992  1.0000
  O   O1        1.0  0.55358  0.62044  0.28251  1.0000
  O   O2        1.0  0.44642  0.37957  0.71749  1.0000
  O   O3        1.0  0.68242  0.68384  0.57215  1.0000
  O   O4        1.0  0.31757  0.31616  0.42785  1.0000
  O   O5        1.0  0.30527  0.68691  0.66345  1.0000
  O   O6        1.0  0.69473  0.31309  0.33655  1.0000
  O   O7        1.0  0.46950  0.68792  0.99770  1.0000
  O   O8        1.0  0.53049  0.31208  0.00230  1.0000
  O   O9        1.0  0.11115  0.57012  0.30480  1.0000
  O   O10       1.0  0.88885  0.42990  0.69521  1.0000
  O   O11       1.0  0.91155  0.64354  0.08212  1.0000
  O   O12       1.0  0.08844  0.35645  0.91787  1.0000
  O   O13       1.0  0.70254  0.94318  0.94044  1.0000
  O   O14       1.0  0.29746  0.05682  0.05957  1.0000
  O   O15       1.0  0.06847  0.80085  0.90388  1.0000
  O   O16       1.0  0.93154  0.19914  0.09613  1.0000
