data_image0
_chemical_formula_structural       Ho2H10C12O16
_chemical_formula_sum              "Ho2 H10 C12 O16"
_cell_length_a       6.22024
_cell_length_b       8.61902
_cell_length_c       8.75551
_cell_angle_alpha    111.195
_cell_angle_beta     109.805
_cell_angle_gamma    91.5212

_space_group_name_H-M_alt    "P 1"
_space_group_IT_number       1

loop_
  _space_group_symop_operation_xyz
  'x, y, z'

loop_
  _atom_site_type_symbol
  _atom_site_label
  _atom_site_symmetry_multiplicity
  _atom_site_fract_x
  _atom_site_fract_y
  _atom_site_fract_z
  _atom_site_occupancy
  Ho  Ho1       1.0  0.31952  0.35015  0.18134  1.0000
  Ho  Ho2       1.0  0.68049  0.64985  0.81866  1.0000
  H   H1        1.0  0.80844  0.28112  0.28253  1.0000
  H   H2        1.0  0.19156  0.71889  0.71748  1.0000
  H   H3        1.0  0.48788  0.33190  0.89210  1.0000
  H   H4        1.0  0.51212  0.66811  0.10790  1.0000
  H   H5        1.0  0.68174  0.27334  0.02774  1.0000
  H   H6        1.0  0.31826  0.72669  0.97226  1.0000
  H   H7        1.0  0.77046  0.35548  0.46749  1.0000
  H   H8        1.0  0.22954  0.64453  0.53252  1.0000
  H   H9        1.0  0.25910  0.96916  0.33282  1.0000
  H   H10       1.0  0.74090  0.03084  0.66717  1.0000
  C   C1        1.0  0.15005  0.14135  0.52927  1.0000
  C   C2        1.0  0.84994  0.85864  0.47072  1.0000
  C   C3        1.0  0.00523  0.15979  0.62590  1.0000
  C   C4        1.0  0.99476  0.84021  0.37410  1.0000
  C   C5        1.0  0.14289  0.98210  0.40456  1.0000
  C   C6        1.0  0.85711  0.01789  0.59543  1.0000
  C   C7        1.0  0.31507  0.28928  0.55883  1.0000
  C   C8        1.0  0.68493  0.71071  0.44116  1.0000
  C   C9        1.0  0.99727  0.32888  0.75806  1.0000
  C   C10       1.0  0.00273  0.67111  0.24193  1.0000
  C   C11       1.0  0.89359  0.03933  0.01027  1.0000
  C   C12       1.0  0.10641  0.96065  0.98973  1.0000
  O   O1        1.0  0.44682  0.38096  0.71775  1.0000
  O   O2        1.0  0.55319  0.61903  0.28225  1.0000
  O   O3        1.0  0.69303  0.31211  0.33662  1.0000
  O   O4        1.0  0.30697  0.68791  0.66339  1.0000
  O   O5        1.0  0.52969  0.31181  0.00257  1.0000
  O   O6        1.0  0.47031  0.68822  0.99744  1.0000
  O   O7        1.0  0.31673  0.31698  0.42734  1.0000
  O   O8        1.0  0.68326  0.68303  0.57266  1.0000
  O   O9        1.0  0.08944  0.35652  0.91935  1.0000
  O   O10       1.0  0.91054  0.64347  0.08067  1.0000
  O   O11       1.0  0.88834  0.43040  0.69669  1.0000
  O   O12       1.0  0.11167  0.56958  0.30330  1.0000
  O   O13       1.0  0.93176  0.19945  0.09682  1.0000
  O   O14       1.0  0.06824  0.80054  0.90318  1.0000
  O   O15       1.0  0.29766  0.05714  0.05968  1.0000
  O   O16       1.0  0.70235  0.94285  0.94033  1.0000
