data_image0
_chemical_formula_structural       Dy4H32C30O32
_chemical_formula_sum              "Dy4 H32 C30 O32"
_cell_length_a       7.81227
_cell_length_b       10.1908
_cell_length_c       14.4153
_cell_angle_alpha    70.8915
_cell_angle_beta     74.2657
_cell_angle_gamma    67.4562

_space_group_name_H-M_alt    "P 1"
_space_group_IT_number       1

loop_
  _space_group_symop_operation_xyz
  'x, y, z'

loop_
  _atom_site_type_symbol
  _atom_site_label
  _atom_site_symmetry_multiplicity
  _atom_site_fract_x
  _atom_site_fract_y
  _atom_site_fract_z
  _atom_site_occupancy
  Dy  Dy1       1.0  0.37760  0.62485  0.88568  1.0000
  Dy  Dy2       1.0  0.88819  0.87516  0.61438  1.0000
  Dy  Dy3       1.0  0.62240  0.37516  0.11432  1.0000
  Dy  Dy4       1.0  0.11180  0.12484  0.38563  1.0000
  H   H1        1.0  0.06703  0.62238  0.81775  1.0000
  H   H2        1.0  0.50714  0.87756  0.68230  1.0000
  H   H3        1.0  0.93297  0.37762  0.18225  1.0000
  H   H4        1.0  0.49286  0.12244  0.31770  1.0000
  H   H5        1.0  0.08982  0.90380  0.78324  1.0000
  H   H6        1.0  0.77688  0.59625  0.71674  1.0000
  H   H7        1.0  0.91018  0.09620  0.21676  1.0000
  H   H8        1.0  0.22312  0.40375  0.28326  1.0000
  H   H9        1.0  0.00123  0.83196  0.89027  1.0000
  H   H10       1.0  0.72375  0.66818  0.60966  1.0000
  H   H11       1.0  0.99877  0.16805  0.10973  1.0000
  H   H12       1.0  0.27624  0.33183  0.39034  1.0000
  H   H13       1.0  0.08621  0.48246  0.90822  1.0000
  H   H14       1.0  0.47696  0.01747  0.59185  1.0000
  H   H15       1.0  0.91379  0.51754  0.09179  1.0000
  H   H16       1.0  0.52303  0.98253  0.40815  1.0000
  H   H17       1.0  0.43949  0.86870  0.17732  1.0000
  H   H18       1.0  0.48565  0.63130  0.32267  1.0000
  H   H19       1.0  0.56051  0.13130  0.82267  1.0000
  H   H20       1.0  0.51434  0.36870  0.67733  1.0000
  H   H21       1.0  0.12344  0.26103  0.85329  1.0000
  H   H22       1.0  0.23795  0.23902  0.64649  1.0000
  H   H23       1.0  0.87656  0.73897  0.14671  1.0000
  H   H24       1.0  0.76205  0.76097  0.35351  1.0000
  H   H25       1.0  0.06882  0.42197  0.75322  1.0000
  H   H26       1.0  0.24407  0.07814  0.74660  1.0000
  H   H27       1.0  0.93117  0.57804  0.24677  1.0000
  H   H28       1.0  0.75592  0.92186  0.25341  1.0000
  H   H29       1.0  0.90531  0.17247  0.80168  1.0000
  H   H30       1.0  0.87959  0.32767  0.69804  1.0000
  H   H31       1.0  0.09469  0.82753  0.19832  1.0000
  H   H32       1.0  0.12040  0.67232  0.30196  1.0000
  C   C1        1.0  0.44433  0.07657  0.07512  1.0000
  C   C2        1.0  0.59599  0.42340  0.42487  1.0000
  C   C3        1.0  0.55568  0.92343  0.92487  1.0000
  C   C4        1.0  0.40400  0.57660  0.57513  1.0000
  C   C5        1.0  0.47925  0.14995  0.97400  1.0000
  C   C6        1.0  0.60303  0.35001  0.52600  1.0000
  C   C7        1.0  0.52075  0.85006  0.02599  1.0000
  C   C8        1.0  0.39696  0.64999  0.47400  1.0000
  C   C9        1.0  0.46544  0.92733  0.09942  1.0000
  C   C10       1.0  0.49224  0.57265  0.40058  1.0000
  C   C11       1.0  0.53456  0.07267  0.90057  1.0000
  C   C12       1.0  0.50775  0.42735  0.59942  1.0000
  C   C13       1.0  0.45117  0.31050  0.94006  1.0000
  C   C14       1.0  0.70153  0.18944  0.55996  1.0000
  C   C15       1.0  0.54884  0.68950  0.05994  1.0000
  C   C16       1.0  0.29847  0.81055  0.44004  1.0000
  C   C17       1.0  0.83741  0.40136  0.87337  1.0000
  C   C18       1.0  0.11223  0.09872  0.62651  1.0000
  C   C19       1.0  0.16259  0.59864  0.12663  1.0000
  C   C20       1.0  0.88777  0.90129  0.37349  1.0000
  C   C21       1.0  0.01605  0.33524  0.80702  1.0000
  C   C22       1.0  0.15844  0.16487  0.69278  1.0000
  C   C23       1.0  0.98395  0.66476  0.19297  1.0000
  C   C24       1.0  0.84156  0.83513  0.30722  1.0000
  C   C25       1.0  0.97573  0.25008  0.74988  1.0000
  C   C26       1.0  0.02427  0.74992  0.25012  1.0000
  C   C27       1.0  0.38731  0.14458  0.16221  1.0000
  C   C28       1.0  0.69395  0.35536  0.33779  1.0000
  C   C29       1.0  0.61269  0.85541  0.83780  1.0000
  C   C30       1.0  0.30605  0.64464  0.66221  1.0000
  O   O1        1.0  0.11737  0.85018  0.85258  1.0000
  O   O2        1.0  0.82035  0.64982  0.64742  1.0000
  O   O3        1.0  0.88264  0.14982  0.14742  1.0000
  O   O4        1.0  0.17965  0.35018  0.35258  1.0000
  O   O5        1.0  0.08117  0.58455  0.88928  1.0000
  O   O6        1.0  0.55501  0.91535  0.61076  1.0000
  O   O7        1.0  0.91884  0.41545  0.11072  1.0000
  O   O8        1.0  0.44499  0.08465  0.38924  1.0000
  O   O9        1.0  0.43087  0.37903  0.85138  1.0000
  O   O10       1.0  0.66097  0.12094  0.64864  1.0000
  O   O11       1.0  0.56914  0.62097  0.14862  1.0000
  O   O12       1.0  0.33902  0.87906  0.35136  1.0000
  O   O13       1.0  0.44125  0.38058  0.00276  1.0000
  O   O14       1.0  0.82458  0.11936  0.49731  1.0000
  O   O15       1.0  0.55876  0.61942  0.99724  1.0000
  O   O16       1.0  0.17541  0.88064  0.50269  1.0000
  O   O17       1.0  0.70814  0.51000  0.83167  1.0000
  O   O18       1.0  0.04982  0.99011  0.66825  1.0000
  O   O19       1.0  0.29186  0.49000  0.16833  1.0000
  O   O20       1.0  0.95018  0.00989  0.33175  1.0000
  O   O21       1.0  0.82425  0.34118  0.96598  1.0000
  O   O22       1.0  0.13141  0.15885  0.53390  1.0000
  O   O23       1.0  0.17576  0.65882  0.03402  1.0000
  O   O24       1.0  0.86859  0.84115  0.46611  1.0000
  O   O25       1.0  0.51183  0.17510  0.18580  1.0000
  O   O26       1.0  0.87263  0.32477  0.31415  1.0000
  O   O27       1.0  0.48818  0.82490  0.81419  1.0000
  O   O28       1.0  0.12737  0.67523  0.68585  1.0000
  O   O29       1.0  0.22539  0.15467  0.21244  1.0000
  O   O30       1.0  0.59225  0.34538  0.28756  1.0000
  O   O31       1.0  0.77462  0.84533  0.78756  1.0000
  O   O32       1.0  0.40774  0.65462  0.71244  1.0000
