data_image0
_chemical_formula_structural       Tb2H10C12O16
_chemical_formula_sum              "Tb2 H10 C12 O16"
_cell_length_a       6.22955
_cell_length_b       8.6578
_cell_length_c       8.81435
_cell_angle_alpha    111.15
_cell_angle_beta     109.977
_cell_angle_gamma    91.3256

_space_group_name_H-M_alt    "P 1"
_space_group_IT_number       1

loop_
  _space_group_symop_operation_xyz
  'x, y, z'

loop_
  _atom_site_type_symbol
  _atom_site_label
  _atom_site_symmetry_multiplicity
  _atom_site_fract_x
  _atom_site_fract_y
  _atom_site_fract_z
  _atom_site_occupancy
  Tb  Tb1       1.0  0.18113  0.64869  0.31791  1.0000
  Tb  Tb2       1.0  0.81887  0.35131  0.68210  1.0000
  H   H1        1.0  0.72567  0.64419  0.03283  1.0000
  H   H2        1.0  0.27433  0.35580  0.96716  1.0000
  H   H3        1.0  0.68937  0.71852  0.21729  1.0000
  H   H4        1.0  0.31063  0.28148  0.78271  1.0000
  H   H5        1.0  0.01243  0.66945  0.60854  1.0000
  H   H6        1.0  0.98757  0.33055  0.39147  1.0000
  H   H7        1.0  0.81853  0.72721  0.47246  1.0000
  H   H8        1.0  0.18147  0.27278  0.52754  1.0000
  H   H9        1.0  0.75796  0.96971  0.83347  1.0000
  H   H10       1.0  0.24203  0.03029  0.16653  1.0000
  C   C1        1.0  0.49488  0.84121  0.87494  1.0000
  C   C2        1.0  0.50512  0.15880  0.12508  1.0000
  C   C3        1.0  0.50371  0.67308  0.74411  1.0000
  C   C4        1.0  0.49629  0.32693  0.25589  1.0000
  C   C5        1.0  0.35063  0.85931  0.97109  1.0000
  C   C6        1.0  0.64935  0.14068  0.02890  1.0000
  C   C7        1.0  0.64206  0.98238  0.90473  1.0000
  C   C8        1.0  0.35794  0.01761  0.09527  1.0000
  C   C9        1.0  0.39322  0.03902  0.50989  1.0000
  C   C10       1.0  0.60680  0.96099  0.49012  1.0000
  C   C11       1.0  0.18513  0.71224  0.94077  1.0000
  C   C12       1.0  0.81486  0.28776  0.05921  1.0000
  O   O1        1.0  0.60966  0.57100  0.80570  1.0000
  O   O2        1.0  0.39034  0.42900  0.19431  1.0000
  O   O3        1.0  0.20220  0.94320  0.43912  1.0000
  O   O4        1.0  0.79780  0.05680  0.56089  1.0000
  O   O5        1.0  0.80350  0.68616  0.16281  1.0000
  O   O6        1.0  0.19650  0.31384  0.83719  1.0000
  O   O7        1.0  0.56960  0.80186  0.40329  1.0000
  O   O8        1.0  0.43041  0.19814  0.59672  1.0000
  O   O9        1.0  0.96918  0.68682  0.49716  1.0000
  O   O10       1.0  0.03082  0.31318  0.50284  1.0000
  O   O11       1.0  0.41580  0.64644  0.58376  1.0000
  O   O12       1.0  0.58420  0.35357  0.41623  1.0000
  O   O13       1.0  0.05406  0.62190  0.78244  1.0000
  O   O14       1.0  0.94594  0.37809  0.21755  1.0000
  O   O15       1.0  0.18204  0.68395  0.07077  1.0000
  O   O16       1.0  0.81795  0.31605  0.92921  1.0000
