data_image0
_chemical_formula_structural       Tb4H28C32O28
_chemical_formula_sum              "Tb4 H28 C32 O28"
_cell_length_a       7.20165
_cell_length_b       7.66668
_cell_length_c       17.3523
_cell_angle_alpha    92.0356
_cell_angle_beta     90.0001
_cell_angle_gamma    90

_space_group_name_H-M_alt    "P 1"
_space_group_IT_number       1

loop_
  _space_group_symop_operation_xyz
  'x, y, z'

loop_
  _atom_site_type_symbol
  _atom_site_label
  _atom_site_symmetry_multiplicity
  _atom_site_fract_x
  _atom_site_fract_y
  _atom_site_fract_z
  _atom_site_occupancy
  Tb  Tb1       1.0  0.49285  0.14454  0.75347  1.0000
  Tb  Tb2       1.0  0.99285  0.35546  0.74653  1.0000
  Tb  Tb3       1.0  0.50715  0.85546  0.24653  1.0000
  Tb  Tb4       1.0  0.00714  0.64454  0.25347  1.0000
  H   H1        1.0  0.66197  0.03527  0.02043  1.0000
  H   H2        1.0  0.16197  0.46473  0.47957  1.0000
  H   H3        1.0  0.33803  0.96473  0.97957  1.0000
  H   H4        1.0  0.83803  0.53527  0.52043  1.0000
  H   H5        1.0  0.51510  0.75252  0.88735  1.0000
  H   H6        1.0  0.01510  0.74748  0.61265  1.0000
  H   H7        1.0  0.48490  0.24748  0.11265  1.0000
  H   H8        1.0  0.98490  0.25252  0.38735  1.0000
  H   H9        1.0  0.70856  0.70011  0.94491  1.0000
  H   H10       1.0  0.20856  0.79989  0.55509  1.0000
  H   H11       1.0  0.29144  0.29989  0.05509  1.0000
  H   H12       1.0  0.79144  0.20011  0.44491  1.0000
  H   H13       1.0  0.39988  0.67496  0.01258  1.0000
  H   H14       1.0  0.89988  0.82504  0.48741  1.0000
  H   H15       1.0  0.60012  0.32504  0.98742  1.0000
  H   H16       1.0  0.10012  0.17496  0.51258  1.0000
  H   H17       1.0  0.33219  0.50842  0.94533  1.0000
  H   H18       1.0  0.83219  0.99158  0.55466  1.0000
  H   H19       1.0  0.66781  0.49158  0.05467  1.0000
  H   H20       1.0  0.16781  0.00842  0.44533  1.0000
  H   H21       1.0  0.68923  0.79347  0.69238  1.0000
  H   H22       1.0  0.18923  0.70653  0.80762  1.0000
  H   H23       1.0  0.31077  0.20653  0.30762  1.0000
  H   H24       1.0  0.81077  0.29347  0.19238  1.0000
  H   H25       1.0  0.81697  0.96384  0.69816  1.0000
  H   H26       1.0  0.31697  0.53616  0.80184  1.0000
  H   H27       1.0  0.18304  0.03616  0.30184  1.0000
  H   H28       1.0  0.68303  0.46384  0.19816  1.0000
  C   C1        1.0  0.75517  0.09436  0.87595  1.0000
  C   C2        1.0  0.25517  0.40564  0.62404  1.0000
  C   C3        1.0  0.24482  0.90564  0.12405  1.0000
  C   C4        1.0  0.74483  0.59436  0.37596  1.0000
  C   C5        1.0  0.88558  0.04907  0.93876  1.0000
  C   C6        1.0  0.38558  0.45093  0.56124  1.0000
  C   C7        1.0  0.11441  0.95093  0.06124  1.0000
  C   C8        1.0  0.61441  0.54906  0.43877  1.0000
  C   C9        1.0  0.07761  0.02780  0.92682  1.0000
  C   C10       1.0  0.57760  0.47220  0.57318  1.0000
  C   C11       1.0  0.92239  0.97220  0.07317  1.0000
  C   C12       1.0  0.42239  0.52779  0.42683  1.0000
  C   C13       1.0  0.81103  0.02103  0.01173  1.0000
  C   C14       1.0  0.31103  0.47897  0.48827  1.0000
  C   C15       1.0  0.18897  0.97897  0.98827  1.0000
  C   C16       1.0  0.68896  0.52103  0.51173  1.0000
  C   C17       1.0  0.18026  0.05376  0.85283  1.0000
  C   C18       1.0  0.68026  0.44624  0.64717  1.0000
  C   C19       1.0  0.81974  0.94624  0.14717  1.0000
  C   C20       1.0  0.31974  0.55376  0.35282  1.0000
  C   C21       1.0  0.64894  0.51599  0.85399  1.0000
  C   C22       1.0  0.14894  0.98401  0.64601  1.0000
  C   C23       1.0  0.35106  0.48401  0.14601  1.0000
  C   C24       1.0  0.85107  0.01599  0.35399  1.0000
  C   C25       1.0  0.58484  0.64505  0.91633  1.0000
  C   C26       1.0  0.08484  0.85494  0.58367  1.0000
  C   C27       1.0  0.41516  0.35495  0.08367  1.0000
  C   C28       1.0  0.91516  0.14505  0.41633  1.0000
  C   C29       1.0  0.45283  0.56744  0.97523  1.0000
  C   C30       1.0  0.95283  0.93256  0.52477  1.0000
  C   C31       1.0  0.54717  0.43256  0.02477  1.0000
  C   C32       1.0  0.04717  0.06744  0.47523  1.0000
  O   O1        1.0  0.58190  0.07435  0.88471  1.0000
  O   O2        1.0  0.08190  0.42565  0.61529  1.0000
  O   O3        1.0  0.41809  0.92565  0.11529  1.0000
  O   O4        1.0  0.91809  0.57435  0.38471  1.0000
  O   O5        1.0  0.68943  0.91853  0.70834  1.0000
  O   O6        1.0  0.18943  0.58147  0.79166  1.0000
  O   O7        1.0  0.31057  0.08147  0.29166  1.0000
  O   O8        1.0  0.81057  0.41853  0.20834  1.0000
  O   O9        1.0  0.81871  0.15018  0.81233  1.0000
  O   O10       1.0  0.31871  0.34981  0.68767  1.0000
  O   O11       1.0  0.18129  0.84982  0.18767  1.0000
  O   O12       1.0  0.68129  0.65019  0.31233  1.0000
  O   O13       1.0  0.26312  0.92652  0.82039  1.0000
  O   O14       1.0  0.76312  0.57348  0.67962  1.0000
  O   O15       1.0  0.73688  0.07348  0.17961  1.0000
  O   O16       1.0  0.23689  0.42653  0.32038  1.0000
  O   O17       1.0  0.20221  0.20994  0.82867  1.0000
  O   O18       1.0  0.70222  0.29005  0.67133  1.0000
  O   O19       1.0  0.79778  0.79006  0.17133  1.0000
  O   O20       1.0  0.29779  0.70995  0.32867  1.0000
  O   O21       1.0  0.52463  0.42774  0.81637  1.0000
  O   O22       1.0  0.02463  0.07226  0.68363  1.0000
  O   O23       1.0  0.47537  0.57226  0.18363  1.0000
  O   O24       1.0  0.97538  0.92774  0.31637  1.0000
  O   O25       1.0  0.82169  0.50239  0.84105  1.0000
  O   O26       1.0  0.32169  0.99760  0.65895  1.0000
  O   O27       1.0  0.17831  0.49760  0.15895  1.0000
  O   O28       1.0  0.67831  0.00239  0.34105  1.0000
