data_image0
_chemical_formula_structural       NiH50C28N4O4
_chemical_formula_sum              "Ni1 H50 C28 N4 O4"
_cell_length_a       8.80628
_cell_length_b       10.0563
_cell_length_c       10.2806
_cell_angle_alpha    63.4383
_cell_angle_beta     88.1442
_cell_angle_gamma    66.325

_space_group_name_H-M_alt    "P 1"
_space_group_IT_number       1

loop_
  _space_group_symop_operation_xyz
  'x, y, z'

loop_
  _atom_site_type_symbol
  _atom_site_label
  _atom_site_symmetry_multiplicity
  _atom_site_fract_x
  _atom_site_fract_y
  _atom_site_fract_z
  _atom_site_occupancy
  Ni  Ni1       1.0  0.50000  1.00000  0.50000  1.0000
  H   H1        1.0  0.47463  0.09003  0.69235  1.0000
  H   H2        1.0  0.52538  0.90997  0.30764  1.0000
  H   H3        1.0  0.23465  0.98964  0.48048  1.0000
  H   H4        1.0  0.76536  0.01036  0.51953  1.0000
  H   H5        1.0  0.33868  0.39467  0.56278  1.0000
  H   H6        1.0  0.66132  0.60532  0.43722  1.0000
  H   H7        1.0  0.30958  0.38299  0.39901  1.0000
  H   H8        1.0  0.69043  0.61702  0.60098  1.0000
  H   H9        1.0  0.14180  0.23700  0.50609  1.0000
  H   H10       1.0  0.85820  0.76300  0.49392  1.0000
  H   H11       1.0  0.23198  0.16639  0.82395  1.0000
  H   H12       1.0  0.76802  0.83360  0.17606  1.0000
  H   H13       1.0  0.13093  0.36444  0.66808  1.0000
  H   H14       1.0  0.86908  0.63555  0.33193  1.0000
  H   H15       1.0  0.92224  0.28604  0.81730  1.0000
  H   H16       1.0  0.07776  0.71396  0.18271  1.0000
  H   H17       1.0  0.88367  0.31397  0.63745  1.0000
  H   H18       1.0  0.11633  0.68604  0.36255  1.0000
  H   H19       1.0  0.86708  0.05500  0.82376  1.0000
  H   H20       1.0  0.13292  0.94500  0.17624  1.0000
  H   H21       1.0  0.07229  0.98178  0.91528  1.0000
  H   H22       1.0  0.92771  0.01821  0.08472  1.0000
  H   H23       1.0  0.98210  0.05599  0.59698  1.0000
  H   H24       1.0  0.01790  0.94401  0.40301  1.0000
  H   H25       1.0  0.07899  0.85783  0.75278  1.0000
  H   H26       1.0  0.92101  0.14217  0.24722  1.0000
  H   H27       1.0  0.32617  0.91030  0.78640  1.0000
  H   H28       1.0  0.67383  0.08970  0.21360  1.0000
  H   H29       1.0  0.23045  0.73320  0.63252  1.0000
  H   H30       1.0  0.76955  0.26681  0.36747  1.0000
  H   H31       1.0  0.43145  0.57527  0.54232  1.0000
  H   H32       1.0  0.56855  0.42474  0.45768  1.0000
  H   H33       1.0  0.34534  0.78264  0.40339  1.0000
  H   H34       1.0  0.65466  0.21736  0.59661  1.0000
  H   H35       1.0  0.39222  0.64885  0.86796  1.0000
  H   H36       1.0  0.60777  0.35115  0.13204  1.0000
  H   H37       1.0  0.57594  0.63987  0.78797  1.0000
  H   H38       1.0  0.42405  0.36013  0.21204  1.0000
  H   H39       1.0  0.49019  0.49875  0.80905  1.0000
  H   H40       1.0  0.50980  0.50125  0.19095  1.0000
  H   H41       1.0  0.96109  0.72788  0.95157  1.0000
  H   H42       1.0  0.03890  0.27213  0.04843  1.0000
  H   H43       1.0  0.04333  0.65773  0.74518  1.0000
  H   H44       1.0  0.95667  0.34227  0.25482  1.0000
  H   H45       1.0  0.93262  0.53560  0.79872  1.0000
  H   H46       1.0  0.06738  0.46440  0.20129  1.0000
  H   H47       1.0  0.75934  0.64165  0.09751  1.0000
  H   H48       1.0  0.24066  0.35836  0.90250  1.0000
  H   H49       1.0  0.76165  0.52480  0.00948  1.0000
  H   H50       1.0  0.23835  0.47520  0.99053  1.0000
  C   C1        1.0  0.39215  0.31855  0.50693  1.0000
  C   C2        1.0  0.60786  0.68146  0.49306  1.0000
  C   C3        1.0  0.22367  0.16196  0.61618  1.0000
  C   C4        1.0  0.77634  0.83804  0.38382  1.0000
  C   C5        1.0  0.14508  0.23698  0.71702  1.0000
  C   C6        1.0  0.85493  0.76302  0.28298  1.0000
  C   C7        1.0  0.97411  0.23393  0.74293  1.0000
  C   C8        1.0  0.02590  0.76608  0.25707  1.0000
  C   C9        1.0  0.98945  0.05883  0.80616  1.0000
  C   C10       1.0  0.01055  0.94117  0.19384  1.0000
  C   C11       1.0  0.06647  0.98443  0.70556  1.0000
  C   C12       1.0  0.93353  0.01557  0.29444  1.0000
  C   C13       1.0  0.23800  0.98595  0.68003  1.0000
  C   C14       1.0  0.76200  0.01405  0.31997  1.0000
  C   C15       1.0  0.35117  0.74377  0.62863  1.0000
  C   C16       1.0  0.64883  0.25623  0.37137  1.0000
  C   C17       1.0  0.42959  0.69564  0.51164  1.0000
  C   C18       1.0  0.57041  0.30436  0.48836  1.0000
  C   C19       1.0  0.45911  0.62643  0.78256  1.0000
  C   C20       1.0  0.54089  0.37357  0.21743  1.0000
  C   C21       1.0  0.73401  0.82941  0.80380  1.0000
  C   C22       1.0  0.26600  0.17056  0.19618  1.0000
  C   C23       1.0  0.89112  0.67955  0.91167  1.0000
  C   C24       1.0  0.10887  0.32044  0.08834  1.0000
  C   C25       1.0  0.00567  0.57869  0.84188  1.0000
  C   C26       1.0  0.99432  0.42131  0.15813  1.0000
  C   C27       1.0  0.83916  0.56865  0.04684  1.0000
  C   C28       1.0  0.16084  0.43135  0.95317  1.0000
  N   N1        1.0  0.39156  0.15645  0.59150  1.0000
  N   N2        1.0  0.60844  0.84355  0.40849  1.0000
  N   N3        1.0  0.31529  0.91783  0.58041  1.0000
  N   N4        1.0  0.68472  0.08217  0.41959  1.0000
  O   O1        1.0  0.69239  0.82422  0.68778  1.0000
  O   O2        1.0  0.30762  0.17577  0.31221  1.0000
  O   O3        1.0  0.65641  0.94368  0.83606  1.0000
  O   O4        1.0  0.34357  0.05633  0.16392  1.0000
