data_image0
_chemical_formula_structural       Ag4H32C40S4N4O12
_chemical_formula_sum              "Ag4 H32 C40 S4 N4 O12"
_cell_length_a       7.13225
_cell_length_b       11.9548
_cell_length_c       13.148
_cell_angle_alpha    72.6052
_cell_angle_beta     74.2658
_cell_angle_gamma    72.5253

_space_group_name_H-M_alt    "P 1"
_space_group_IT_number       1

loop_
  _space_group_symop_operation_xyz
  'x, y, z'

loop_
  _atom_site_type_symbol
  _atom_site_label
  _atom_site_symmetry_multiplicity
  _atom_site_fract_x
  _atom_site_fract_y
  _atom_site_fract_z
  _atom_site_occupancy
  Ag  Ag1       1.0  0.83647  0.91038  0.92704  1.0000
  Ag  Ag2       1.0  0.67420  0.58946  0.57323  1.0000
  Ag  Ag3       1.0  0.16353  0.08963  0.07296  1.0000
  Ag  Ag4       1.0  0.32581  0.41054  0.42676  1.0000
  H   H1        1.0  0.84034  0.14178  0.25233  1.0000
  H   H2        1.0  0.23464  0.35798  0.24736  1.0000
  H   H3        1.0  0.15965  0.85823  0.74768  1.0000
  H   H4        1.0  0.76536  0.64203  0.75264  1.0000
  H   H5        1.0  0.07966  0.11036  0.49497  1.0000
  H   H6        1.0  0.68396  0.38968  0.00528  1.0000
  H   H7        1.0  0.92034  0.88963  0.50503  1.0000
  H   H8        1.0  0.31604  0.61031  0.99473  1.0000
  H   H9        1.0  0.05851  0.00645  0.36239  1.0000
  H   H10       1.0  0.42600  0.49347  0.13802  1.0000
  H   H11       1.0  0.94149  0.99354  0.63761  1.0000
  H   H12       1.0  0.57401  0.50652  0.86198  1.0000
  H   H13       1.0  0.27437  0.19277  0.56854  1.0000
  H   H14       1.0  0.03501  0.30760  0.93121  1.0000
  H   H15       1.0  0.72559  0.80721  0.43147  1.0000
  H   H16       1.0  0.96500  0.69240  0.06879  1.0000
  H   H17       1.0  0.85390  0.24773  0.38250  1.0000
  H   H18       1.0  0.48470  0.25218  0.11695  1.0000
  H   H19       1.0  0.14607  0.75227  0.61752  1.0000
  H   H20       1.0  0.51531  0.74782  0.88305  1.0000
  H   H21       1.0  0.58522  0.26122  0.54851  1.0000
  H   H22       1.0  0.39494  0.23899  0.95091  1.0000
  H   H23       1.0  0.41474  0.73877  0.45151  1.0000
  H   H24       1.0  0.60507  0.76101  0.04909  1.0000
  H   H25       1.0  0.21943  0.89903  0.23509  1.0000
  H   H26       1.0  0.35229  0.60136  0.26504  1.0000
  H   H27       1.0  0.78057  0.10097  0.76490  1.0000
  H   H28       1.0  0.64772  0.39863  0.73495  1.0000
  H   H29       1.0  0.46297  0.89846  0.16366  1.0000
  H   H30       1.0  0.52403  0.60156  0.33643  1.0000
  H   H31       1.0  0.53703  0.10155  0.83633  1.0000
  H   H32       1.0  0.47597  0.39844  0.66356  1.0000
  C   C1        1.0  0.54959  0.10332  0.33409  1.0000
  C   C2        1.0  0.98663  0.39665  0.16578  1.0000
  C   C3        1.0  0.45040  0.89668  0.66592  1.0000
  C   C4        1.0  0.01338  0.60336  0.83421  1.0000
  C   C5        1.0  0.71658  0.15157  0.32133  1.0000
  C   C6        1.0  0.18959  0.34839  0.17831  1.0000
  C   C7        1.0  0.28341  0.84843  0.67868  1.0000
  C   C8        1.0  0.81042  0.65162  0.82169  1.0000
  C   C9        1.0  0.54044  0.03263  0.26512  1.0000
  C   C10       1.0  0.83757  0.46734  0.23484  1.0000
  C   C11       1.0  0.45955  0.96737  0.73488  1.0000
  C   C12       1.0  0.16243  0.53266  0.76516  1.0000
  C   C13       1.0  0.36167  0.00158  0.27389  1.0000
  C   C14       1.0  0.63623  0.49852  0.22617  1.0000
  C   C15       1.0  0.63833  0.99842  0.72611  1.0000
  C   C16       1.0  0.36378  0.50148  0.77384  1.0000
  C   C17       1.0  0.20705  0.09017  0.42986  1.0000
  C   C18       1.0  0.72618  0.40984  0.07032  1.0000
  C   C19       1.0  0.79293  0.90983  0.57014  1.0000
  C   C20       1.0  0.27382  0.59015  0.92969  1.0000
  C   C21       1.0  0.19572  0.03182  0.35743  1.0000
  C   C22       1.0  0.58389  0.46819  0.14280  1.0000
  C   C23       1.0  0.80428  0.96818  0.64257  1.0000
  C   C24       1.0  0.41615  0.53179  0.85720  1.0000
  C   C25       1.0  0.38223  0.12800  0.42041  1.0000
  C   C26       1.0  0.93011  0.37201  0.07954  1.0000
  C   C27       1.0  0.61776  0.87199  0.57959  1.0000
  C   C28       1.0  0.06991  0.62799  0.92045  1.0000
  C   C29       1.0  0.39418  0.18737  0.49672  1.0000
  C   C30       1.0  0.07792  0.31278  0.00302  1.0000
  C   C31       1.0  0.60580  0.81263  0.50329  1.0000
  C   C32       1.0  0.92209  0.68721  0.99698  1.0000
  C   C33       1.0  0.72427  0.21205  0.39378  1.0000
  C   C34       1.0  0.33042  0.28805  0.10567  1.0000
  C   C35       1.0  0.27571  0.78794  0.60623  1.0000
  C   C36       1.0  0.66959  0.71195  0.89432  1.0000
  C   C37       1.0  0.56583  0.22741  0.48459  1.0000
  C   C38       1.0  0.27790  0.27290  0.01486  1.0000
  C   C39       1.0  0.43414  0.77258  0.51543  1.0000
  C   C40       1.0  0.72212  0.72710  0.98514  1.0000
  S   S1        1.0  0.76840  0.97792  0.17720  1.0000
  S   S2        1.0  0.92285  0.52191  0.32277  1.0000
  S   S3        1.0  0.23160  0.02209  0.82280  1.0000
  S   S4        1.0  0.07715  0.47809  0.67723  1.0000
  N   N1        1.0  0.33001  0.94526  0.20179  1.0000
  N   N2        1.0  0.47599  0.55490  0.29834  1.0000
  N   N3        1.0  0.67000  0.05474  0.79820  1.0000
  N   N4        1.0  0.52402  0.44511  0.70165  1.0000
  O   O1        1.0  0.72463  0.89538  0.12701  1.0000
  O   O2        1.0  0.74608  0.60451  0.37304  1.0000
  O   O3        1.0  0.27538  0.10464  0.87298  1.0000
  O   O4        1.0  0.25392  0.39549  0.62695  1.0000
  O   O5        1.0  0.82185  0.08478  0.09396  1.0000
  O   O6        1.0  0.00049  0.41494  0.40598  1.0000
  O   O7        1.0  0.17814  0.91524  0.90604  1.0000
  O   O8        1.0  0.99951  0.58506  0.59402  1.0000
  O   O9        1.0  0.91578  0.91641  0.24711  1.0000
  O   O10       1.0  0.07842  0.58327  0.25289  1.0000
  O   O11       1.0  0.08423  0.08361  0.75289  1.0000
  O   O12       1.0  0.92158  0.41673  0.74710  1.0000
