data_image0
_chemical_formula_structural       MnH12C4O8
_chemical_formula_sum              "Mn1 H12 C4 O8"
_cell_length_a       5.2357
_cell_length_b       5.34154
_cell_length_c       7.80818
_cell_angle_alpha    84.6121
_cell_angle_beta     75.8986
_cell_angle_gamma    79.7061

_space_group_name_H-M_alt    "P 1"
_space_group_IT_number       1

loop_
  _space_group_symop_operation_xyz
  'x, y, z'

loop_
  _atom_site_type_symbol
  _atom_site_label
  _atom_site_symmetry_multiplicity
  _atom_site_fract_x
  _atom_site_fract_y
  _atom_site_fract_z
  _atom_site_occupancy
  Mn  Mn1       1.0  1.00000  1.00000  0.00000  1.0000
  H   H1        1.0  0.20227  0.45034  0.05846  1.0000
  H   H2        1.0  0.79772  0.54966  0.94154  1.0000
  H   H3        1.0  0.43301  0.25758  0.94877  1.0000
  H   H4        1.0  0.56699  0.74243  0.05123  1.0000
  H   H5        1.0  0.26940  0.84369  0.63856  1.0000
  H   H6        1.0  0.73060  0.15631  0.36144  1.0000
  H   H7        1.0  0.44274  0.00171  0.70827  1.0000
  H   H8        1.0  0.55725  0.99829  0.29173  1.0000
  H   H9        1.0  0.84409  0.56223  0.35285  1.0000
  H   H10       1.0  0.15592  0.43777  0.64715  1.0000
  H   H11       1.0  0.12568  0.32374  0.34621  1.0000
  H   H12       1.0  0.87433  0.67626  0.65379  1.0000
  C   C1        1.0  0.21030  0.69807  0.31421  1.0000
  C   C2        1.0  0.78970  0.30194  0.68580  1.0000
  C   C3        1.0  0.02899  0.50952  0.40025  1.0000
  C   C4        1.0  0.97103  0.49048  0.59974  1.0000
  O   O1        1.0  0.25125  0.72665  0.14281  1.0000
  O   O2        1.0  0.74874  0.27335  0.85719  1.0000
  O   O3        1.0  0.31776  0.81605  0.40243  1.0000
  O   O4        1.0  0.68223  0.18394  0.59756  1.0000
  O   O5        1.0  0.23681  0.28378  0.00313  1.0000
  O   O6        1.0  0.76318  0.71623  0.99687  1.0000
  O   O7        1.0  0.29731  0.89637  0.75020  1.0000
  O   O8        1.0  0.70269  0.10363  0.24980  1.0000
