data_image0
_chemical_formula_structural       Y6H26C20S4O26
_chemical_formula_sum              "Y6 H26 C20 S4 O26"
_cell_length_a       7.20921
_cell_length_b       9.22381
_cell_length_c       14.3353
_cell_angle_alpha    76.8372
_cell_angle_beta     76.9018
_cell_angle_gamma    79.3095

_space_group_name_H-M_alt    "P 1"
_space_group_IT_number       1

loop_
  _space_group_symop_operation_xyz
  'x, y, z'

loop_
  _atom_site_type_symbol
  _atom_site_label
  _atom_site_symmetry_multiplicity
  _atom_site_fract_x
  _atom_site_fract_y
  _atom_site_fract_z
  _atom_site_occupancy
  Y   Y1        1.0  0.05699  0.64857  0.55713  1.0000
  Y   Y2        1.0  0.94301  0.35143  0.44287  1.0000
  Y   Y3        1.0  0.73302  0.98581  0.54882  1.0000
  Y   Y4        1.0  0.26698  0.01419  0.45117  1.0000
  Y   Y5        1.0  0.57233  0.64775  0.55620  1.0000
  Y   Y6        1.0  0.42767  0.35225  0.44380  1.0000
  H   H1        1.0  0.04873  0.89755  0.64635  1.0000
  H   H2        1.0  0.95127  0.10245  0.35365  1.0000
  H   H3        1.0  0.36492  0.89568  0.64740  1.0000
  H   H4        1.0  0.63508  0.10432  0.35260  1.0000
  H   H5        1.0  0.38466  0.72311  0.39872  1.0000
  H   H6        1.0  0.61533  0.27689  0.60129  1.0000
  H   H7        1.0  0.66436  0.58691  0.35639  1.0000
  H   H8        1.0  0.33564  0.41309  0.64361  1.0000
  H   H9        1.0  0.84684  0.39251  0.64003  1.0000
  H   H10       1.0  0.15316  0.60749  0.35997  1.0000
  H   H11       1.0  0.87059  0.80006  0.39295  1.0000
  H   H12       1.0  0.12941  0.19994  0.60705  1.0000
  H   H13       1.0  0.72046  0.71709  0.71174  1.0000
  H   H14       1.0  0.27954  0.28291  0.28826  1.0000
  H   H15       1.0  0.48832  0.45751  0.86532  1.0000
  H   H16       1.0  0.51168  0.54249  0.13468  1.0000
  H   H17       1.0  0.46628  0.29377  0.03067  1.0000
  H   H18       1.0  0.53371  0.70623  0.96933  1.0000
  H   H19       1.0  0.15371  0.28019  0.14263  1.0000
  H   H20       1.0  0.84629  0.71981  0.85737  1.0000
  H   H21       1.0  0.91406  0.18833  0.88443  1.0000
  H   H22       1.0  0.08595  0.81166  0.11557  1.0000
  H   H23       1.0  0.88667  0.12870  0.06601  1.0000
  H   H24       1.0  0.11333  0.87129  0.93399  1.0000
  H   H25       1.0  0.62571  0.99811  0.17123  1.0000
  H   H26       1.0  0.37429  0.00189  0.82877  1.0000
  C   C1        1.0  0.18967  0.54722  0.88955  1.0000
  C   C2        1.0  0.81033  0.45278  0.11045  1.0000
  C   C3        1.0  0.35192  0.45794  0.91671  1.0000
  C   C4        1.0  0.64807  0.54206  0.08329  1.0000
  C   C5        1.0  0.33779  0.36387  0.00961  1.0000
  C   C6        1.0  0.66221  0.63613  0.99039  1.0000
  C   C7        1.0  0.16306  0.35816  0.07271  1.0000
  C   C8        1.0  0.83693  0.64184  0.92729  1.0000
  C   C9        1.0  0.00581  0.54929  0.95302  1.0000
  C   C10       1.0  0.99419  0.45071  0.04698  1.0000
  C   C11       1.0  0.66346  0.09206  0.88928  1.0000
  C   C12       1.0  0.33655  0.90794  0.11072  1.0000
  C   C13       1.0  0.79702  0.13123  0.93114  1.0000
  C   C14       1.0  0.20299  0.86877  0.06886  1.0000
  C   C15       1.0  0.78174  0.09684  0.03335  1.0000
  C   C16       1.0  0.21826  0.90316  0.96666  1.0000
  C   C17       1.0  0.63483  0.02329  0.09257  1.0000
  C   C18       1.0  0.36518  0.97671  0.90743  1.0000
  C   C19       1.0  0.50642  0.01761  0.94768  1.0000
  C   C20       1.0  0.49358  0.98239  0.05232  1.0000
  S   S1        1.0  0.21156  0.65321  0.76936  1.0000
  S   S2        1.0  0.78844  0.34679  0.23064  1.0000
  S   S3        1.0  0.69216  0.14608  0.75931  1.0000
  S   S4        1.0  0.30785  0.85392  0.24069  1.0000
  O   O1        1.0  0.07838  0.59777  0.72483  1.0000
  O   O2        1.0  0.92162  0.40223  0.27517  1.0000
  O   O3        1.0  0.41441  0.61529  0.72258  1.0000
  O   O4        1.0  0.58558  0.38471  0.27742  1.0000
  O   O5        1.0  0.15961  0.81410  0.77119  1.0000
  O   O6        1.0  0.84039  0.18590  0.22881  1.0000
  O   O7        1.0  0.69537  0.00846  0.72093  1.0000
  O   O8        1.0  0.30464  0.99154  0.27907  1.0000
  O   O9        1.0  0.87572  0.20746  0.72519  1.0000
  O   O10       1.0  0.12428  0.79254  0.27482  1.0000
  O   O11       1.0  0.52560  0.25910  0.73895  1.0000
  O   O12       1.0  0.47441  0.74091  0.26105  1.0000
  O   O13       1.0  0.04431  0.90162  0.57808  1.0000
  O   O14       1.0  0.95569  0.09838  0.42191  1.0000
  O   O15       1.0  0.43642  0.90754  0.58022  1.0000
  O   O16       1.0  0.56359  0.09247  0.41978  1.0000
  O   O17       1.0  0.33692  0.75754  0.46092  1.0000
  O   O18       1.0  0.66308  0.24246  0.53908  1.0000
  O   O19       1.0  0.65685  0.52404  0.42150  1.0000
  O   O20       1.0  0.34315  0.47596  0.57850  1.0000
  O   O21       1.0  0.85128  0.46720  0.57850  1.0000
  O   O22       1.0  0.14872  0.53280  0.42150  1.0000
  O   O23       1.0  0.82390  0.78268  0.46341  1.0000
  O   O24       1.0  0.17610  0.21733  0.53659  1.0000
  O   O25       1.0  0.75292  0.73419  0.64115  1.0000
  O   O26       1.0  0.24708  0.26581  0.35885  1.0000
