data_image0
_chemical_formula_structural       Gd6H26C20S4O26
_chemical_formula_sum              "Gd6 H26 C20 S4 O26"
_cell_length_a       7.29604
_cell_length_b       9.30455
_cell_length_c       14.3871
_cell_angle_alpha    76.5276
_cell_angle_beta     76.754
_cell_angle_gamma    79.1854

_space_group_name_H-M_alt    "P 1"
_space_group_IT_number       1

loop_
  _space_group_symop_operation_xyz
  'x, y, z'

loop_
  _atom_site_type_symbol
  _atom_site_label
  _atom_site_symmetry_multiplicity
  _atom_site_fract_x
  _atom_site_fract_y
  _atom_site_fract_z
  _atom_site_occupancy
  Gd  Gd1       1.0  0.55752  0.14743  0.05837  1.0000
  Gd  Gd2       1.0  0.44248  0.85257  0.94163  1.0000
  Gd  Gd3       1.0  0.23220  0.48635  0.05021  1.0000
  Gd  Gd4       1.0  0.76780  0.51365  0.94979  1.0000
  Gd  Gd5       1.0  0.07206  0.14646  0.05718  1.0000
  Gd  Gd6       1.0  0.92793  0.85353  0.94282  1.0000
  H   H1        1.0  0.54973  0.39595  0.14663  1.0000
  H   H2        1.0  0.45026  0.60405  0.85337  1.0000
  H   H3        1.0  0.86519  0.39292  0.14710  1.0000
  H   H4        1.0  0.13481  0.60709  0.85290  1.0000
  H   H5        1.0  0.88470  0.22160  0.89885  1.0000
  H   H6        1.0  0.11529  0.77840  0.10115  1.0000
  H   H7        1.0  0.16332  0.08897  0.85523  1.0000
  H   H8        1.0  0.83667  0.91103  0.14477  1.0000
  H   H9        1.0  0.34652  0.89096  0.14009  1.0000
  H   H10       1.0  0.65348  0.10904  0.85991  1.0000
  H   H11       1.0  0.22048  0.21596  0.21379  1.0000
  H   H12       1.0  0.77952  0.78404  0.78621  1.0000
  H   H13       1.0  0.36998  0.30070  0.89360  1.0000
  H   H14       1.0  0.63001  0.69930  0.10640  1.0000
  H   H15       1.0  0.98455  0.95845  0.36723  1.0000
  H   H16       1.0  0.01545  0.04154  0.63277  1.0000
  H   H17       1.0  0.95996  0.79292  0.53187  1.0000
  H   H18       1.0  0.04004  0.20708  0.46813  1.0000
  H   H19       1.0  0.64902  0.77923  0.64242  1.0000
  H   H20       1.0  0.35098  0.22078  0.35758  1.0000
  H   H21       1.0  0.40954  0.68679  0.38452  1.0000
  H   H22       1.0  0.59047  0.31321  0.61547  1.0000
  H   H23       1.0  0.38258  0.62580  0.56583  1.0000
  H   H24       1.0  0.61742  0.37420  0.43416  1.0000
  H   H25       1.0  0.12400  0.49611  0.67085  1.0000
  H   H26       1.0  0.87600  0.50389  0.32916  1.0000
  C   C1        1.0  0.68938  0.04819  0.39081  1.0000
  C   C2        1.0  0.31062  0.95181  0.60919  1.0000
  C   C3        1.0  0.84914  0.95867  0.41824  1.0000
  C   C4        1.0  0.15086  0.04133  0.58177  1.0000
  C   C5        1.0  0.83359  0.86377  0.51068  1.0000
  C   C6        1.0  0.16642  0.13623  0.48932  1.0000
  C   C7        1.0  0.65973  0.85771  0.57289  1.0000
  C   C8        1.0  0.34026  0.14229  0.42711  1.0000
  C   C9        1.0  0.50656  0.04961  0.45328  1.0000
  C   C10       1.0  0.49344  0.95038  0.54672  1.0000
  C   C11       1.0  0.16187  0.59175  0.38949  1.0000
  C   C12       1.0  0.83814  0.40825  0.61051  1.0000
  C   C13       1.0  0.29407  0.62966  0.43122  1.0000
  C   C14       1.0  0.70593  0.37034  0.56878  1.0000
  C   C15       1.0  0.27908  0.59445  0.53321  1.0000
  C   C16       1.0  0.72091  0.40555  0.46679  1.0000
  C   C17       1.0  0.13348  0.52157  0.59232  1.0000
  C   C18       1.0  0.86652  0.47844  0.40768  1.0000
  C   C19       1.0  0.00623  0.51814  0.44781  1.0000
  C   C20       1.0  0.99377  0.48186  0.55219  1.0000
  S   S1        1.0  0.71245  0.15341  0.27062  1.0000
  S   S2        1.0  0.28755  0.84659  0.72938  1.0000
  S   S3        1.0  0.19016  0.64658  0.25975  1.0000
  S   S4        1.0  0.80984  0.35341  0.74025  1.0000
  O   O1        1.0  0.58072  0.09864  0.22657  1.0000
  O   O2        1.0  0.41928  0.90136  0.77343  1.0000
  O   O3        1.0  0.91311  0.11486  0.22433  1.0000
  O   O4        1.0  0.08689  0.88514  0.77567  1.0000
  O   O5        1.0  0.66191  0.31333  0.27147  1.0000
  O   O6        1.0  0.33809  0.68666  0.72853  1.0000
  O   O7        1.0  0.19408  0.50983  0.22192  1.0000
  O   O8        1.0  0.80592  0.49017  0.77808  1.0000
  O   O9        1.0  0.37157  0.70751  0.22539  1.0000
  O   O10       1.0  0.62844  0.29248  0.77461  1.0000
  O   O11       1.0  0.02516  0.75861  0.23935  1.0000
  O   O12       1.0  0.97485  0.24139  0.76064  1.0000
  O   O13       1.0  0.54471  0.40111  0.07855  1.0000
  O   O14       1.0  0.45529  0.59889  0.92145  1.0000
  O   O15       1.0  0.93658  0.40518  0.08015  1.0000
  O   O16       1.0  0.06342  0.59482  0.91985  1.0000
  O   O17       1.0  0.83701  0.25592  0.96066  1.0000
  O   O18       1.0  0.16298  0.74408  0.03934  1.0000
  O   O19       1.0  0.15674  0.02588  0.92010  1.0000
  O   O20       1.0  0.84326  0.97412  0.07990  1.0000
  O   O21       1.0  0.35132  0.96656  0.07913  1.0000
  O   O22       1.0  0.64868  0.03344  0.92087  1.0000
  O   O23       1.0  0.25278  0.23323  0.14332  1.0000
  O   O24       1.0  0.74722  0.76677  0.85668  1.0000
  O   O25       1.0  0.32382  0.28270  0.96392  1.0000
  O   O26       1.0  0.67618  0.71730  0.03608  1.0000
