data_image0
_chemical_formula_structural       CdB2H16C22N4O2F8
_chemical_formula_sum              "Cd1 B2 H16 C22 N4 O2 F8"
_cell_length_a       8.56613
_cell_length_b       9.16705
_cell_length_c       9.67547
_cell_angle_alpha    60.9126
_cell_angle_beta     68.4365
_cell_angle_gamma    68.9171

_space_group_name_H-M_alt    "P 1"
_space_group_IT_number       1

loop_
  _space_group_symop_operation_xyz
  'x, y, z'

loop_
  _atom_site_type_symbol
  _atom_site_label
  _atom_site_symmetry_multiplicity
  _atom_site_fract_x
  _atom_site_fract_y
  _atom_site_fract_z
  _atom_site_occupancy
  Cd  Cd1       1.0  0.50000  0.50000  0.00000  1.0000
  B   B1        1.0  0.80707  0.17419  0.20071  1.0000
  B   B2        1.0  0.19293  0.82581  0.79929  1.0000
  H   H1        1.0  0.43731  0.39981  0.38425  1.0000
  H   H2        1.0  0.56269  0.60019  0.61574  1.0000
  H   H3        1.0  0.97755  0.20348  0.64771  1.0000
  H   H4        1.0  0.02245  0.79652  0.35229  1.0000
  H   H5        1.0  0.97784  0.19189  0.39150  1.0000
  H   H6        1.0  0.02216  0.80811  0.60851  1.0000
  H   H7        1.0  0.20395  0.29929  0.14198  1.0000
  H   H8        1.0  0.79605  0.70071  0.85802  1.0000
  H   H9        1.0  0.24579  0.45631  0.84874  1.0000
  H   H10       1.0  0.75421  0.54369  0.15126  1.0000
  H   H11       1.0  0.51781  0.09599  0.62732  1.0000
  H   H12       1.0  0.48220  0.90400  0.37268  1.0000
  H   H13       1.0  0.76507  0.02919  0.74559  1.0000
  H   H14       1.0  0.23493  0.97081  0.25441  1.0000
  H   H15       1.0  0.73870  0.18099  0.91022  1.0000
  H   H16       1.0  0.26130  0.81901  0.08978  1.0000
  C   C1        1.0  0.33206  0.35481  0.39087  1.0000
  C   C2        1.0  0.66794  0.64519  0.60913  1.0000
  C   C3        1.0  0.20712  0.30176  0.53513  1.0000
  C   C4        1.0  0.79288  0.69824  0.46487  1.0000
  C   C5        1.0  0.07553  0.24472  0.53581  1.0000
  C   C6        1.0  0.92447  0.75528  0.46419  1.0000
  C   C7        1.0  0.07589  0.23821  0.39555  1.0000
  C   C8        1.0  0.92411  0.76178  0.60445  1.0000
  C   C9        1.0  0.20305  0.29756  0.25563  1.0000
  C   C10       1.0  0.79695  0.70244  0.74437  1.0000
  C   C11       1.0  0.19960  0.31549  0.68492  1.0000
  C   C12       1.0  0.80040  0.68451  0.31508  1.0000
  C   C13       1.0  0.35873  0.36027  0.82452  1.0000
  C   C14       1.0  0.64127  0.63974  0.17548  1.0000
  C   C15       1.0  0.36132  0.27969  0.73214  1.0000
  C   C16       1.0  0.63868  0.72031  0.26786  1.0000
  C   C17       1.0  0.51074  0.16110  0.69890  1.0000
  C   C18       1.0  0.48927  0.83890  0.30110  1.0000
  C   C19       1.0  0.64797  0.12371  0.76408  1.0000
  C   C20       1.0  0.35203  0.87629  0.23592  1.0000
  C   C21       1.0  0.63451  0.20806  0.85618  1.0000
  C   C22       1.0  0.36549  0.79194  0.14382  1.0000
  N   N1        1.0  0.32793  0.35645  0.25234  1.0000
  N   N2        1.0  0.67206  0.64355  0.74766  1.0000
  N   N3        1.0  0.49271  0.32697  0.88389  1.0000
  N   N4        1.0  0.50730  0.67303  0.11611  1.0000
  O   O1        1.0  0.05879  0.35634  0.76992  1.0000
  O   O2        1.0  0.94121  0.64367  0.23008  1.0000
  F   F1        1.0  0.77083  0.34016  0.06852  1.0000
  F   F2        1.0  0.22917  0.65984  0.93148  1.0000
  F   F3        1.0  0.72755  0.06461  0.20014  1.0000
  F   F4        1.0  0.27245  0.93540  0.79986  1.0000
  F   F5        1.0  0.98646  0.11337  0.17566  1.0000
  F   F6        1.0  0.01353  0.88663  0.82434  1.0000
  F   F7        1.0  0.73747  0.19671  0.34818  1.0000
  F   F8        1.0  0.26253  0.80329  0.65181  1.0000
