data_image0
_chemical_formula_structural       U2H20C16O12
_chemical_formula_sum              "U2 H20 C16 O12"
_cell_length_a       5.30864
_cell_length_b       7.58851
_cell_length_c       12.864
_cell_angle_alpha    90.0007
_cell_angle_beta     89.9998
_cell_angle_gamma    95.1851

_space_group_name_H-M_alt    "P 1"
_space_group_IT_number       1

loop_
  _space_group_symop_operation_xyz
  'x, y, z'

loop_
  _atom_site_type_symbol
  _atom_site_label
  _atom_site_symmetry_multiplicity
  _atom_site_fract_x
  _atom_site_fract_y
  _atom_site_fract_z
  _atom_site_occupancy
  U   U1        1.0  0.61671  0.01652  0.10607  1.0000
  U   U2        1.0  0.38331  0.98349  0.60606  1.0000
  H   H1        1.0  0.26463  0.37111  0.84877  1.0000
  H   H2        1.0  0.73538  0.62890  0.34876  1.0000
  H   H3        1.0  0.69479  0.26207  0.86900  1.0000
  H   H4        1.0  0.30522  0.73793  0.36900  1.0000
  H   H5        1.0  0.97589  0.49906  0.70529  1.0000
  H   H6        1.0  0.02412  0.50093  0.20530  1.0000
  H   H7        1.0  0.64568  0.43741  0.71006  1.0000
  H   H8        1.0  0.35432  0.56258  0.21006  1.0000
  H   H9        1.0  0.61263  0.60266  0.87630  1.0000
  H   H10       1.0  0.38735  0.39733  0.37630  1.0000
  H   H11       1.0  0.75806  0.74218  0.78017  1.0000
  H   H12       1.0  0.24191  0.25781  0.28017  1.0000
  H   H13       1.0  0.18292  0.70104  0.85267  1.0000
  H   H14       1.0  0.81706  0.29896  0.35267  1.0000
  H   H15       1.0  0.98683  0.77583  0.95099  1.0000
  H   H16       1.0  0.01316  0.22418  0.45099  1.0000
  H   H17       1.0  0.89505  0.47046  0.01796  1.0000
  H   H18       1.0  0.10494  0.52955  0.51796  1.0000
  H   H19       1.0  0.22654  0.52938  0.01446  1.0000
  H   H20       1.0  0.77345  0.47064  0.51446  1.0000
  C   C1        1.0  0.09273  0.34090  0.89549  1.0000
  C   C2        1.0  0.90727  0.65909  0.39549  1.0000
  C   C3        1.0  0.86494  0.30158  0.82292  1.0000
  C   C4        1.0  0.13508  0.69841  0.32292  1.0000
  C   C5        1.0  0.81534  0.46754  0.75829  1.0000
  C   C6        1.0  0.18466  0.53247  0.25829  1.0000
  C   C7        1.0  0.78487  0.62637  0.82867  1.0000
  C   C8        1.0  0.21512  0.37364  0.32867  1.0000
  C   C9        1.0  0.01340  0.66368  0.89974  1.0000
  C   C10       1.0  0.98658  0.33633  0.39975  1.0000
  C   C11       1.0  0.05750  0.50251  0.96574  1.0000
  C   C12       1.0  0.94248  0.49752  0.46574  1.0000
  C   C13       1.0  0.13861  0.18860  0.96639  1.0000
  C   C14       1.0  0.86140  0.81143  0.46640  1.0000
  C   C15       1.0  0.90352  0.15370  0.74765  1.0000
  C   C16       1.0  0.09649  0.84630  0.24764  1.0000
  O   O1        1.0  0.70010  0.22050  0.17512  1.0000
  O   O2        1.0  0.29990  0.77948  0.67512  1.0000
  O   O3        1.0  0.53146  0.81399  0.03598  1.0000
  O   O4        1.0  0.46855  0.18599  0.53599  1.0000
  O   O5        1.0  0.95065  0.08361  0.99680  1.0000
  O   O6        1.0  0.04935  0.91640  0.49680  1.0000
  O   O7        1.0  0.36247  0.17393  0.99810  1.0000
  O   O8        1.0  0.63754  0.82606  0.49810  1.0000
  O   O9        1.0  0.71059  0.05436  0.71667  1.0000
  O   O10       1.0  0.28944  0.94563  0.21667  1.0000
  O   O11       1.0  0.12504  0.13558  0.71424  1.0000
  O   O12       1.0  0.87497  0.86441  0.21423  1.0000
