data_image0
_chemical_formula_structural       Cu2P4H32C34N6O12
_chemical_formula_sum              "Cu2 P4 H32 C34 N6 O12"
_cell_length_a       9.42863
_cell_length_b       10.141
_cell_length_c       11.8659
_cell_angle_alpha    114.931
_cell_angle_beta     100.351
_cell_angle_gamma    95.7112

_space_group_name_H-M_alt    "P 1"
_space_group_IT_number       1

loop_
  _space_group_symop_operation_xyz
  'x, y, z'

loop_
  _atom_site_type_symbol
  _atom_site_label
  _atom_site_symmetry_multiplicity
  _atom_site_fract_x
  _atom_site_fract_y
  _atom_site_fract_z
  _atom_site_occupancy
  Cu  Cu1       1.0  0.15034  0.85012  0.39833  1.0000
  Cu  Cu2       1.0  0.84966  0.14988  0.60167  1.0000
  P   P1        1.0  0.00880  0.10669  0.35541  1.0000
  P   P2        1.0  0.99120  0.89331  0.64460  1.0000
  P   P3        1.0  0.70517  0.94733  0.97043  1.0000
  P   P4        1.0  0.29484  0.05267  0.02957  1.0000
  H   H1        1.0  0.21845  0.19462  0.57106  1.0000
  H   H2        1.0  0.78156  0.80539  0.42895  1.0000
  H   H3        1.0  0.41516  0.36886  0.76634  1.0000
  H   H4        1.0  0.58485  0.63114  0.23367  1.0000
  H   H5        1.0  0.61446  0.26319  0.85493  1.0000
  H   H6        1.0  0.38554  0.73680  0.14507  1.0000
  H   H7        1.0  0.61126  0.99476  0.74490  1.0000
  H   H8        1.0  0.38874  0.00523  0.25509  1.0000
  H   H9        1.0  0.57093  0.75481  0.65139  1.0000
  H   H10       1.0  0.42907  0.24519  0.34860  1.0000
  H   H11       1.0  0.31669  0.37161  0.30340  1.0000
  H   H12       1.0  0.68332  0.62839  0.69660  1.0000
  H   H13       1.0  0.11163  0.29949  0.15234  1.0000
  H   H14       1.0  0.88837  0.70051  0.84766  1.0000
  H   H15       1.0  0.86289  0.24767  0.00322  1.0000
  H   H16       1.0  0.13711  0.75232  0.99677  1.0000
  H   H17       1.0  0.74452  0.46249  0.01428  1.0000
  H   H18       1.0  0.25547  0.53750  0.98571  1.0000
  H   H19       1.0  0.87798  0.72120  0.17459  1.0000
  H   H20       1.0  0.12200  0.27879  0.82541  1.0000
  H   H21       1.0  0.75569  0.02057  0.24425  1.0000
  H   H22       1.0  0.24431  0.97945  0.75575  1.0000
  H   H23       1.0  0.82623  0.19073  0.24698  1.0000
  H   H24       1.0  0.17378  0.80928  0.75302  1.0000
  H   H25       1.0  0.90641  0.89112  0.08545  1.0000
  H   H26       1.0  0.09360  0.10888  0.91456  1.0000
  H   H27       1.0  0.95727  0.05903  0.07866  1.0000
  H   H28       1.0  0.04274  0.94097  0.92134  1.0000
  H   H29       1.0  0.17882  0.15860  0.26037  1.0000
  H   H30       1.0  0.82118  0.84139  0.73963  1.0000
  H   H31       1.0  0.49027  0.87429  0.00398  1.0000
  H   H32       1.0  0.50973  0.12571  0.99603  1.0000
  C   C1        1.0  0.30923  0.15540  0.61071  1.0000
  C   C2        1.0  0.69077  0.84461  0.38930  1.0000
  C   C3        1.0  0.41857  0.25118  0.72035  1.0000
  C   C4        1.0  0.58143  0.74882  0.27966  1.0000
  C   C5        1.0  0.52878  0.19346  0.76842  1.0000
  C   C6        1.0  0.47122  0.80654  0.23158  1.0000
  C   C7        1.0  0.52784  0.04203  0.70655  1.0000
  C   C8        1.0  0.47216  0.95797  0.29345  1.0000
  C   C9        1.0  0.41496  0.95233  0.59841  1.0000
  C   C10       1.0  0.58504  0.04767  0.40160  1.0000
  C   C11       1.0  0.39839  0.79023  0.52834  1.0000
  C   C12       1.0  0.60161  0.20977  0.47166  1.0000
  C   C13       1.0  0.48431  0.70255  0.56289  1.0000
  C   C14       1.0  0.51569  0.29745  0.43711  1.0000
  C   C15       1.0  0.45579  0.54865  0.48315  1.0000
  C   C16       1.0  0.54421  0.45135  0.51685  1.0000
  C   C17       1.0  0.34090  0.48881  0.37100  1.0000
  C   C18       1.0  0.65910  0.51119  0.62900  1.0000
  C   C19       1.0  0.25362  0.58149  0.34641  1.0000
  C   C20       1.0  0.74638  0.41851  0.65359  1.0000
  C   C21       1.0  0.11832  0.53538  0.24347  1.0000
  C   C22       1.0  0.88168  0.46462  0.75653  1.0000
  C   C23       1.0  0.05520  0.38910  0.15420  1.0000
  C   C24       1.0  0.94480  0.61090  0.84579  1.0000
  C   C25       1.0  0.91894  0.36097  0.07027  1.0000
  C   C26       1.0  0.08106  0.63902  0.92972  1.0000
  C   C27       1.0  0.85155  0.47947  0.07668  1.0000
  C   C28       1.0  0.14845  0.52052  0.92331  1.0000
  C   C29       1.0  0.92301  0.62317  0.16534  1.0000
  C   C30       1.0  0.07698  0.37682  0.83465  1.0000
  C   C31       1.0  0.84967  0.08109  0.23126  1.0000
  C   C32       1.0  0.15033  0.91892  0.76874  1.0000
  C   C33       1.0  0.87046  0.99483  0.09615  1.0000
  C   C34       1.0  0.12954  0.00518  0.90385  1.0000
  N   N1        1.0  0.30802  0.00965  0.55080  1.0000
  N   N2        1.0  0.69198  0.99035  0.44921  1.0000
  N   N3        1.0  0.28535  0.72803  0.42402  1.0000
  N   N4        1.0  0.71465  0.27197  0.57598  1.0000
  N   N5        1.0  0.05251  0.64945  0.24634  1.0000
  N   N6        1.0  0.94748  0.35055  0.75366  1.0000
  O   O1        1.0  0.03638  0.94847  0.31976  1.0000
  O   O2        1.0  0.96360  0.05153  0.68024  1.0000
  O   O3        1.0  0.14223  0.20354  0.34237  1.0000
  O   O4        1.0  0.85777  0.79645  0.65763  1.0000
  O   O5        1.0  0.59232  0.84305  0.99623  1.0000
  O   O6        1.0  0.40769  0.15696  0.00378  1.0000
  O   O7        1.0  0.74036  0.85704  0.84194  1.0000
  O   O8        1.0  0.25964  0.14296  0.15806  1.0000
  O   O9        1.0  0.65365  0.09004  0.98408  1.0000
  O   O10       1.0  0.34636  0.90996  0.01592  1.0000
  O   O11       1.0  0.98857  0.19407  0.48859  1.0000
  O   O12       1.0  0.01142  0.80593  0.51141  1.0000
