data_image0
_chemical_formula_structural       Cu4H16C8I4N8
_chemical_formula_sum              "Cu4 H16 C8 I4 N8"
_cell_length_a       7.72797
_cell_length_b       8.23529
_cell_length_c       8.63655
_cell_angle_alpha    108.049
_cell_angle_beta     97.1025
_cell_angle_gamma    102.995

_space_group_name_H-M_alt    "P 1"
_space_group_IT_number       1

loop_
  _space_group_symop_operation_xyz
  'x, y, z'

loop_
  _atom_site_type_symbol
  _atom_site_label
  _atom_site_symmetry_multiplicity
  _atom_site_fract_x
  _atom_site_fract_y
  _atom_site_fract_z
  _atom_site_occupancy
  Cu  Cu1       1.0  0.59914  0.51485  0.64019  1.0000
  Cu  Cu2       1.0  0.40085  0.48514  0.35980  1.0000
  Cu  Cu3       1.0  0.84325  0.51377  0.44237  1.0000
  Cu  Cu4       1.0  0.15674  0.48622  0.55762  1.0000
  H   H1        1.0  0.30715  0.13312  0.05081  1.0000
  H   H2        1.0  0.69284  0.86688  0.94918  1.0000
  H   H3        1.0  0.28679  0.96180  0.87502  1.0000
  H   H4        1.0  0.71321  0.03820  0.12498  1.0000
  H   H5        1.0  0.73706  0.39158  0.92486  1.0000
  H   H6        1.0  0.26294  0.60842  0.07515  1.0000
  H   H7        1.0  0.65027  0.15895  0.88308  1.0000
  H   H8        1.0  0.34973  0.84105  0.11692  1.0000
  H   H9        1.0  0.62329  0.31401  0.06780  1.0000
  H   H10       1.0  0.37671  0.68599  0.93220  1.0000
  H   H11       1.0  0.88776  0.18799  0.62324  1.0000
  H   H12       1.0  0.11224  0.81201  0.37675  1.0000
  H   H13       1.0  0.91199  0.15242  0.81850  1.0000
  H   H14       1.0  0.08802  0.84758  0.18150  1.0000
  H   H15       1.0  0.93306  0.98856  0.63988  1.0000
  H   H16       1.0  0.06695  0.01144  0.36012  1.0000
  C   C1        1.0  0.62561  0.28954  0.93573  1.0000
  C   C2        1.0  0.37440  0.71046  0.06428  1.0000
  C   C3        1.0  0.45248  0.29071  0.84387  1.0000
  C   C4        1.0  0.54752  0.70930  0.15614  1.0000
  C   C5        1.0  0.15783  0.22198  0.74015  1.0000
  C   C6        1.0  0.84217  0.77802  0.25984  1.0000
  C   C7        1.0  0.96123  0.13304  0.70210  1.0000
  C   C8        1.0  0.03878  0.86696  0.29790  1.0000
  I   I1        1.0  0.54390  0.21826  0.36377  1.0000
  I   I2        1.0  0.45609  0.78173  0.63623  1.0000
  I   I3        1.0  0.94489  0.62873  0.76228  1.0000
  I   I4        1.0  0.05510  0.37126  0.23772  1.0000
  N   N1        1.0  0.42880  0.38454  0.74755  1.0000
  N   N2        1.0  0.57121  0.61546  0.25246  1.0000
  N   N3        1.0  0.24418  0.34193  0.68266  1.0000
  N   N4        1.0  0.75583  0.65808  0.31734  1.0000
  N   N5        1.0  0.28493  0.18884  0.84293  1.0000
  N   N6        1.0  0.71507  0.81117  0.15707  1.0000
  N   N7        1.0  0.24251  0.07099  0.92787  1.0000
  N   N8        1.0  0.75749  0.92901  0.07212  1.0000
