data_image0
_chemical_formula_structural       Co2H22C34N8O8
_chemical_formula_sum              "Co2 H22 C34 N8 O8"
_cell_length_a       9.64511
_cell_length_b       9.25755
_cell_length_c       10.5157
_cell_angle_alpha    65.3027
_cell_angle_beta     70.0614
_cell_angle_gamma    88.8415

_space_group_name_H-M_alt    "P 1"
_space_group_IT_number       1

loop_
  _space_group_symop_operation_xyz
  'x, y, z'

loop_
  _atom_site_type_symbol
  _atom_site_label
  _atom_site_symmetry_multiplicity
  _atom_site_fract_x
  _atom_site_fract_y
  _atom_site_fract_z
  _atom_site_occupancy
  Co  Co1       1.0  0.60126  0.99552  0.22845  1.0000
  Co  Co2       1.0  0.39872  0.00448  0.77154  1.0000
  H   H1        1.0  0.83395  0.87194  0.00396  1.0000
  H   H2        1.0  0.16608  0.12806  0.99604  1.0000
  H   H3        1.0  0.86872  0.35871  0.27887  1.0000
  H   H4        1.0  0.13130  0.64128  0.72116  1.0000
  H   H5        1.0  0.88134  0.15007  0.90008  1.0000
  H   H6        1.0  0.11865  0.84992  0.09993  1.0000
  H   H7        1.0  0.62130  0.40318  0.33332  1.0000
  H   H8        1.0  0.37872  0.59683  0.66668  1.0000
  H   H9        1.0  0.63652  0.54015  0.78257  1.0000
  H   H10       1.0  0.36348  0.45985  0.21741  1.0000
  H   H11       1.0  0.90902  0.73958  0.84735  1.0000
  H   H12       1.0  0.09100  0.26041  0.15268  1.0000
  H   H13       1.0  0.45674  0.63261  0.40138  1.0000
  H   H14       1.0  0.54327  0.36741  0.59861  1.0000
  H   H15       1.0  0.48226  0.31374  0.07751  1.0000
  H   H16       1.0  0.51773  0.68626  0.92248  1.0000
  H   H17       1.0  0.74558  0.57723  0.55096  1.0000
  H   H18       1.0  0.25442  0.42276  0.44904  1.0000
  H   H19       1.0  0.07324  0.30799  0.70748  1.0000
  H   H20       1.0  0.92676  0.69200  0.29252  1.0000
  H   H21       1.0  0.87184  0.05102  0.72121  1.0000
  H   H22       1.0  0.12813  0.94896  0.27880  1.0000
  C   C1        1.0  0.69345  0.06635  0.57631  1.0000
  C   C2        1.0  0.30653  0.93365  0.42368  1.0000
  C   C3        1.0  0.84972  0.02651  0.53386  1.0000
  C   C4        1.0  0.15026  0.97349  0.46614  1.0000
  C   C5        1.0  0.92371  0.99731  0.40794  1.0000
  C   C6        1.0  0.07626  0.00269  0.59206  1.0000
  C   C7        1.0  0.84927  0.99108  0.30608  1.0000
  C   C8        1.0  0.15070  0.00894  0.69391  1.0000
  C   C9        1.0  0.89747  0.43593  0.64724  1.0000
  C   C10       1.0  0.10253  0.56407  0.35275  1.0000
  C   C11       1.0  0.74729  0.77885  0.09905  1.0000
  C   C12       1.0  0.25273  0.22115  0.90095  1.0000
  C   C13       1.0  0.92635  0.41996  0.15704  1.0000
  C   C14       1.0  0.07367  0.58003  0.84300  1.0000
  C   C15       1.0  0.79288  0.22386  0.91026  1.0000
  C   C16       1.0  0.20712  0.77613  0.08974  1.0000
  C   C17       1.0  0.63641  0.53333  0.27496  1.0000
  C   C18       1.0  0.36361  0.46668  0.72505  1.0000
  C   C19       1.0  0.66269  0.42653  0.85103  1.0000
  C   C20       1.0  0.33730  0.57346  0.14896  1.0000
  C   C21       1.0  0.94966  0.63518  0.91393  1.0000
  C   C22       1.0  0.05038  0.36480  0.08609  1.0000
  C   C23       1.0  0.55745  0.64597  0.30808  1.0000
  C   C24       1.0  0.44257  0.35404  0.69191  1.0000
  C   C25       1.0  0.58867  0.31568  0.99635  1.0000
  C   C26       1.0  0.41133  0.68432  0.00364  1.0000
  C   C27       1.0  0.87725  0.55592  0.07001  1.0000
  C   C28       1.0  0.12278  0.44409  0.93001  1.0000
  C   C29       1.0  0.85724  0.54400  0.52976  1.0000
  C   C30       1.0  0.14276  0.45599  0.47024  1.0000
  C   C31       1.0  0.04056  0.39222  0.61717  1.0000
  C   C32       1.0  0.95943  0.60777  0.38284  1.0000
  C   C33       1.0  0.92738  0.02800  0.62364  1.0000
  C   C34       1.0  0.07260  0.97199  0.37636  1.0000
  N   N1        1.0  0.67089  0.19006  0.03186  1.0000
  N   N2        1.0  0.32910  0.80994  0.96814  1.0000
  N   N3        1.0  0.62800  0.79823  0.19839  1.0000
  N   N4        1.0  0.37202  0.20178  0.80160  1.0000
  N   N5        1.0  0.79159  0.36705  0.79668  1.0000
  N   N6        1.0  0.20840  0.63293  0.20332  1.0000
  N   N7        1.0  0.75619  0.61910  0.14198  1.0000
  N   N8        1.0  0.24384  0.38090  0.85803  1.0000
  O   O1        1.0  0.92462  0.99310  0.18119  1.0000
  O   O2        1.0  0.07535  0.00695  0.81879  1.0000
  O   O3        1.0  0.59804  0.95405  0.69784  1.0000
  O   O4        1.0  0.40193  0.04595  0.30214  1.0000
  O   O5        1.0  0.70567  0.98279  0.35835  1.0000
  O   O6        1.0  0.29431  0.01722  0.64164  1.0000
  O   O7        1.0  0.66750  0.20370  0.50579  1.0000
  O   O8        1.0  0.33248  0.79630  0.49419  1.0000
