data_image0
_chemical_formula_structural       Hg4H24C28I8N8
_chemical_formula_sum              "Hg4 H24 C28 I8 N8"
_cell_length_a       4.42001
_cell_length_b       13.1478
_cell_length_c       18.4466
_cell_angle_alpha    90
_cell_angle_beta     96.7198
_cell_angle_gamma    90.0004

_space_group_name_H-M_alt    "P 1"
_space_group_IT_number       1

loop_
  _space_group_symop_operation_xyz
  'x, y, z'

loop_
  _atom_site_type_symbol
  _atom_site_label
  _atom_site_symmetry_multiplicity
  _atom_site_fract_x
  _atom_site_fract_y
  _atom_site_fract_z
  _atom_site_occupancy
  Hg  Hg1       1.0  0.68553  0.31304  0.62941  1.0000
  Hg  Hg2       1.0  0.81446  0.81305  0.87059  1.0000
  Hg  Hg3       1.0  0.31447  0.68695  0.37060  1.0000
  Hg  Hg4       1.0  0.18554  0.18695  0.12940  1.0000
  H   H1        1.0  0.26963  0.33986  0.34095  1.0000
  H   H2        1.0  0.23037  0.83986  0.15905  1.0000
  H   H3        1.0  0.73036  0.66014  0.65906  1.0000
  H   H4        1.0  0.76963  0.16014  0.84094  1.0000
  H   H5        1.0  0.25378  0.40949  0.47026  1.0000
  H   H6        1.0  0.24622  0.90949  0.02974  1.0000
  H   H7        1.0  0.74621  0.59051  0.52974  1.0000
  H   H8        1.0  0.75380  0.09051  0.97026  1.0000
  H   H9        1.0  0.05464  0.14368  0.53962  1.0000
  H   H10       1.0  0.44536  0.64368  0.96038  1.0000
  H   H11       1.0  0.94535  0.85631  0.46038  1.0000
  H   H12       1.0  0.55466  0.35632  0.03962  1.0000
  H   H13       1.0  0.22156  0.03191  0.44217  1.0000
  H   H14       1.0  0.27844  0.53191  0.05783  1.0000
  H   H15       1.0  0.77843  0.96809  0.55783  1.0000
  H   H16       1.0  0.72158  0.46809  0.94216  1.0000
  H   H17       1.0  0.00459  0.05050  0.31381  1.0000
  H   H18       1.0  0.49541  0.55050  0.18619  1.0000
  H   H19       1.0  0.99541  0.94950  0.68620  1.0000
  H   H20       1.0  0.50459  0.44950  0.81380  1.0000
  H   H21       1.0  0.61261  0.18293  0.27591  1.0000
  H   H22       1.0  0.88738  0.68293  0.22409  1.0000
  H   H23       1.0  0.38738  0.81707  0.72409  1.0000
  H   H24       1.0  0.11261  0.31708  0.77591  1.0000
  C   C1        1.0  0.40194  0.34881  0.45564  1.0000
  C   C2        1.0  0.09806  0.84881  0.04436  1.0000
  C   C3        1.0  0.59805  0.65118  0.54436  1.0000
  C   C4        1.0  0.90195  0.15119  0.95564  1.0000
  C   C5        1.0  0.95827  0.15226  0.48274  1.0000
  C   C6        1.0  0.54173  0.65226  0.01726  1.0000
  C   C7        1.0  0.04173  0.84774  0.51726  1.0000
  C   C8        1.0  0.45828  0.34774  0.98274  1.0000
  C   C9        1.0  0.04950  0.09024  0.42812  1.0000
  C   C10       1.0  0.45049  0.59024  0.07188  1.0000
  C   C11       1.0  0.95048  0.90976  0.57188  1.0000
  C   C12       1.0  0.54952  0.40977  0.92812  1.0000
  C   C13       1.0  0.92575  0.10109  0.35451  1.0000
  C   C14       1.0  0.57425  0.60109  0.14550  1.0000
  C   C15       1.0  0.07424  0.89891  0.64550  1.0000
  C   C16       1.0  0.42576  0.39891  0.85450  1.0000
  C   C17       1.0  0.70716  0.17446  0.33271  1.0000
  C   C18       1.0  0.79283  0.67446  0.16729  1.0000
  C   C19       1.0  0.29283  0.82554  0.66729  1.0000
  C   C20       1.0  0.20717  0.32554  0.83271  1.0000
  C   C21       1.0  0.61500  0.23646  0.38745  1.0000
  C   C22       1.0  0.88500  0.73646  0.11255  1.0000
  C   C23       1.0  0.38500  0.76354  0.61255  1.0000
  C   C24       1.0  0.11500  0.26354  0.88745  1.0000
  C   C25       1.0  0.73789  0.22632  0.46151  1.0000
  C   C26       1.0  0.76211  0.72632  0.03849  1.0000
  C   C27       1.0  0.26210  0.77368  0.53849  1.0000
  C   C28       1.0  0.23790  0.27368  0.96151  1.0000
  I   I1        1.0  0.55493  0.13917  0.69639  1.0000
  I   I2        1.0  0.94506  0.63917  0.80361  1.0000
  I   I3        1.0  0.44506  0.86083  0.30361  1.0000
  I   I4        1.0  0.05494  0.36083  0.19639  1.0000
  I   I5        1.0  0.15627  0.45714  0.64044  1.0000
  I   I6        1.0  0.34373  0.95714  0.85956  1.0000
  I   I7        1.0  0.84373  0.54286  0.35956  1.0000
  I   I8        1.0  0.65628  0.04286  0.14044  1.0000
  N   N1        1.0  0.40395  0.31451  0.38636  1.0000
  N   N2        1.0  0.09605  0.81451  0.11364  1.0000
  N   N3        1.0  0.59604  0.68549  0.61365  1.0000
  N   N4        1.0  0.90396  0.18549  0.88635  1.0000
  N   N5        1.0  0.60015  0.29844  0.50214  1.0000
  N   N6        1.0  0.89984  0.79844  0.99786  1.0000
  N   N7        1.0  0.39984  0.70156  0.49786  1.0000
  N   N8        1.0  0.10017  0.20156  0.00214  1.0000
