data_image0
_chemical_formula_structural       Ag2H32C24S4N2O8
_chemical_formula_sum              "Ag2 H32 C24 S4 N2 O8"
_cell_length_a       7.50736
_cell_length_b       9.4136
_cell_length_c       10.9726
_cell_angle_alpha    115.403
_cell_angle_beta     89.9999
_cell_angle_gamma    90.0001

_space_group_name_H-M_alt    "P 1"
_space_group_IT_number       1

loop_
  _space_group_symop_operation_xyz
  'x, y, z'

loop_
  _atom_site_type_symbol
  _atom_site_label
  _atom_site_symmetry_multiplicity
  _atom_site_fract_x
  _atom_site_fract_y
  _atom_site_fract_z
  _atom_site_occupancy
  Ag  Ag1       1.0  0.25694  0.16799  0.33644  1.0000
  Ag  Ag2       1.0  0.75694  0.83201  0.66356  1.0000
  H   H1        1.0  0.25708  0.27450  0.09133  1.0000
  H   H2        1.0  0.75708  0.72550  0.90867  1.0000
  H   H3        1.0  0.25740  0.81652  0.09132  1.0000
  H   H4        1.0  0.75739  0.18348  0.90868  1.0000
  H   H5        1.0  0.47027  0.19660  0.09494  1.0000
  H   H6        1.0  0.97027  0.80339  0.90506  1.0000
  H   H7        1.0  0.47062  0.89798  0.09491  1.0000
  H   H8        1.0  0.97062  0.10202  0.90509  1.0000
  H   H9        1.0  0.62040  0.43354  0.10147  1.0000
  H   H10       1.0  0.12039  0.56645  0.89853  1.0000
  H   H11       1.0  0.62055  0.66745  0.10148  1.0000
  H   H12       1.0  0.12054  0.33255  0.89852  1.0000
  H   H13       1.0  0.47878  0.34498  0.95824  1.0000
  H   H14       1.0  0.97878  0.65502  0.04176  1.0000
  H   H15       1.0  0.47900  0.61292  0.95828  1.0000
  H   H16       1.0  0.97900  0.38707  0.04172  1.0000
  H   H17       1.0  0.66957  0.30328  0.31636  1.0000
  H   H18       1.0  0.16957  0.69672  0.68364  1.0000
  H   H19       1.0  0.66995  0.01267  0.31630  1.0000
  H   H20       1.0  0.16995  0.98733  0.68370  1.0000
  H   H21       1.0  0.58879  0.43682  0.47586  1.0000
  H   H22       1.0  0.08879  0.56318  0.52414  1.0000
  H   H23       1.0  0.58917  0.03872  0.47582  1.0000
  H   H24       1.0  0.08917  0.96128  0.52419  1.0000
  H   H25       1.0  0.47452  0.70268  0.40557  1.0000
  H   H26       1.0  0.97452  0.29732  0.59443  1.0000
  H   H27       1.0  0.95114  0.42229  0.30410  1.0000
  H   H28       1.0  0.45114  0.57771  0.69590  1.0000
  H   H29       1.0  0.95144  0.88108  0.30405  1.0000
  H   H30       1.0  0.45143  0.11892  0.69595  1.0000
  H   H31       1.0  0.11429  0.63860  0.27799  1.0000
  H   H32       1.0  0.61428  0.36140  0.72201  1.0000
  C   C1        1.0  0.39431  0.30652  0.12741  1.0000
  C   C2        1.0  0.89431  0.69348  0.87259  1.0000
  C   C3        1.0  0.39460  0.82059  0.12743  1.0000
  C   C4        1.0  0.89460  0.17941  0.87257  1.0000
  C   C5        1.0  0.47984  0.40983  0.06953  1.0000
  C   C6        1.0  0.97983  0.59017  0.93047  1.0000
  C   C7        1.0  0.47998  0.65935  0.06955  1.0000
  C   C8        1.0  0.97998  0.34065  0.93045  1.0000
  C   C9        1.0  0.60205  0.41654  0.36981  1.0000
  C   C10       1.0  0.10204  0.58346  0.63018  1.0000
  C   C11       1.0  0.60240  0.95286  0.36975  1.0000
  C   C12       1.0  0.10240  0.04713  0.63025  1.0000
  C   C13       1.0  0.70195  0.54877  0.35743  1.0000
  C   C14       1.0  0.20194  0.45123  0.64257  1.0000
  C   C15       1.0  0.70210  0.80818  0.35736  1.0000
  C   C16       1.0  0.20210  0.19182  0.64264  1.0000
  C   C17       1.0  0.61559  0.68963  0.37961  1.0000
  C   C18       1.0  0.11559  0.31037  0.62039  1.0000
  C   C19       1.0  0.88252  0.53131  0.32062  1.0000
  C   C20       1.0  0.38251  0.46869  0.67938  1.0000
  C   C21       1.0  0.88268  0.78864  0.32060  1.0000
  C   C22       1.0  0.38268  0.21135  0.67940  1.0000
  C   C23       1.0  0.97328  0.65216  0.30505  1.0000
  C   C24       1.0  0.47328  0.34784  0.69495  1.0000
  S   S1        1.0  0.37204  0.39676  0.31086  1.0000
  S   S2        1.0  0.87204  0.60324  0.68914  1.0000
  S   S3        1.0  0.37237  0.91377  0.31086  1.0000
  S   S4        1.0  0.87236  0.08623  0.68914  1.0000
  N   N1        1.0  0.91112  0.09500  0.19019  1.0000
  N   N2        1.0  0.41111  0.90500  0.80981  1.0000
  O   O1        1.0  0.38640  0.55496  0.11021  1.0000
  O   O2        1.0  0.88640  0.44504  0.88979  1.0000
  O   O3        1.0  0.04728  0.05710  0.11466  1.0000
  O   O4        1.0  0.54728  0.94291  0.88534  1.0000
  O   O5        1.0  0.93276  0.15982  0.31969  1.0000
  O   O6        1.0  0.43276  0.84018  0.68031  1.0000
  O   O7        1.0  0.75607  0.07126  0.14256  1.0000
  O   O8        1.0  0.25606  0.92874  0.85744  1.0000
