data_image0
_chemical_formula_structural       Cd2H20C16O12
_chemical_formula_sum              "Cd2 H20 C16 O12"
_cell_length_a       4.95175
_cell_length_b       6.81544
_cell_length_c       15.8414
_cell_angle_alpha    86.2355
_cell_angle_beta     80.2394
_cell_angle_gamma    68.2128

_space_group_name_H-M_alt    "P 1"
_space_group_IT_number       1

loop_
  _space_group_symop_operation_xyz
  'x, y, z'

loop_
  _atom_site_type_symbol
  _atom_site_label
  _atom_site_symmetry_multiplicity
  _atom_site_fract_x
  _atom_site_fract_y
  _atom_site_fract_z
  _atom_site_occupancy
  Cd  Cd1       1.0  0.64802  0.72382  0.75017  1.0000
  Cd  Cd2       1.0  0.35197  0.27619  0.24984  1.0000
  H   H1        1.0  0.53318  0.71843  0.42865  1.0000
  H   H2        1.0  0.74364  0.72485  0.07068  1.0000
  H   H3        1.0  0.46685  0.28153  0.57135  1.0000
  H   H4        1.0  0.25631  0.27518  0.92932  1.0000
  H   H5        1.0  0.33709  0.87260  0.52106  1.0000
  H   H6        1.0  0.78309  0.85779  0.97165  1.0000
  H   H7        1.0  0.66298  0.12740  0.47893  1.0000
  H   H8        1.0  0.21687  0.14221  0.02836  1.0000
  H   H9        1.0  0.20385  0.93200  0.42209  1.0000
  H   H10       1.0  0.85361  0.94224  0.06592  1.0000
  H   H11       1.0  0.79622  0.06797  0.57791  1.0000
  H   H12       1.0  0.14638  0.05779  0.93408  1.0000
  H   H13       1.0  0.95452  0.89736  0.84217  1.0000
  H   H14       1.0  0.17086  0.88466  0.65459  1.0000
  H   H15       1.0  0.04547  0.10263  0.15783  1.0000
  H   H16       1.0  0.82918  0.11531  0.34541  1.0000
  H   H17       1.0  0.74254  0.11061  0.80313  1.0000
  H   H18       1.0  0.16391  0.10078  0.69040  1.0000
  H   H19       1.0  0.25744  0.88939  0.19686  1.0000
  H   H20       1.0  0.83608  0.89919  0.30961  1.0000
  C   C1        1.0  0.31314  0.80259  0.46396  1.0000
  C   C2        1.0  0.87733  0.80263  0.03038  1.0000
  C   C3        1.0  0.68689  0.19741  0.53604  1.0000
  C   C4        1.0  0.12262  0.19739  0.96961  1.0000
  C   C5        1.0  0.14551  0.52963  0.41812  1.0000
  C   C6        1.0  0.31494  0.52565  0.08027  1.0000
  C   C7        1.0  0.85448  0.47035  0.58189  1.0000
  C   C8        1.0  0.68496  0.47441  0.91973  1.0000
  C   C9        1.0  0.14920  0.65562  0.48504  1.0000
  C   C10       1.0  0.19180  0.65493  0.01250  1.0000
  C   C11       1.0  0.85083  0.34438  0.51496  1.0000
  C   C12       1.0  0.80816  0.34509  0.98748  1.0000
  C   C13       1.0  0.00678  0.63157  0.56665  1.0000
  C   C14       1.0  0.36780  0.63463  0.93250  1.0000
  C   C15       1.0  0.99327  0.36845  0.43335  1.0000
  C   C16       1.0  0.63223  0.36534  0.06749  1.0000
  O   O1        1.0  0.99626  0.73509  0.63327  1.0000
  O   O2        1.0  0.28055  0.74235  0.86557  1.0000
  O   O3        1.0  0.00377  0.26491  0.36675  1.0000
  O   O4        1.0  0.71941  0.25765  0.13444  1.0000
  O   O5        1.0  0.26783  0.54862  0.34206  1.0000
  O   O6        1.0  0.16386  0.53984  0.15477  1.0000
  O   O7        1.0  0.73217  0.45140  0.65795  1.0000
  O   O8        1.0  0.83613  0.46018  0.84524  1.0000
  O   O9        1.0  0.75956  0.96797  0.82160  1.0000
  O   O10       1.0  0.29362  0.95742  0.67366  1.0000
  O   O11       1.0  0.24041  0.03203  0.17840  1.0000
  O   O12       1.0  0.70642  0.04256  0.32633  1.0000
