data_image0
_chemical_formula_structural       Sm2CuH18C14S2N2O22
_chemical_formula_sum              "Sm2 Cu1 H18 C14 S2 N2 O22"
_cell_length_a       6.41811
_cell_length_b       9.85105
_cell_length_c       9.87556
_cell_angle_alpha    96.0471
_cell_angle_beta     92.0978
_cell_angle_gamma    96.8157

_space_group_name_H-M_alt    "P 1"
_space_group_IT_number       1

loop_
  _space_group_symop_operation_xyz
  'x, y, z'

loop_
  _atom_site_type_symbol
  _atom_site_label
  _atom_site_symmetry_multiplicity
  _atom_site_fract_x
  _atom_site_fract_y
  _atom_site_fract_z
  _atom_site_occupancy
  Sm  Sm1       1.0  0.43470  0.03504  0.25499  1.0000
  Sm  Sm2       1.0  0.56529  0.96496  0.74502  1.0000
  Cu  Cu1       1.0  0.99999  0.50000  0.00000  1.0000
  H   H1        1.0  0.89539  0.03377  0.35650  1.0000
  H   H2        1.0  0.10460  0.96621  0.64348  1.0000
  H   H3        1.0  0.78968  0.87700  0.35654  1.0000
  H   H4        1.0  0.21030  0.12299  0.64345  1.0000
  H   H5        1.0  0.09157  0.91642  0.04024  1.0000
  H   H6        1.0  0.90849  0.08352  0.95977  1.0000
  H   H7        1.0  0.95899  0.94914  0.17481  1.0000
  H   H8        1.0  0.04102  0.05086  0.82516  1.0000
  H   H9        1.0  0.22561  0.29254  0.00823  1.0000
  H   H10       1.0  0.77441  0.70749  0.99178  1.0000
  H   H11       1.0  0.23908  0.35255  0.86605  1.0000
  H   H12       1.0  0.76103  0.64755  0.13400  1.0000
  H   H13       1.0  0.68939  0.48307  0.43102  1.0000
  H   H14       1.0  0.31059  0.51692  0.56898  1.0000
  H   H15       1.0  0.97832  0.71363  0.79879  1.0000
  H   H16       1.0  0.02166  0.28638  0.20122  1.0000
  H   H17       1.0  0.82020  0.29063  0.79088  1.0000
  H   H18       1.0  0.17982  0.70937  0.20912  1.0000
  C   C1        1.0  0.74288  0.36964  0.60213  1.0000
  C   C2        1.0  0.25712  0.63034  0.39788  1.0000
  C   C3        1.0  0.74650  0.48863  0.53692  1.0000
  C   C4        1.0  0.25347  0.51136  0.46309  1.0000
  C   C5        1.0  0.82569  0.61512  0.60860  1.0000
  C   C6        1.0  0.17433  0.38487  0.39139  1.0000
  C   C7        1.0  0.90594  0.61769  0.74238  1.0000
  C   C8        1.0  0.09403  0.38231  0.25763  1.0000
  C   C9        1.0  0.82065  0.38115  0.73700  1.0000
  C   C10       1.0  0.17933  0.61885  0.26301  1.0000
  C   C11       1.0  0.66215  0.23087  0.53013  1.0000
  C   C12       1.0  0.33784  0.76913  0.46987  1.0000
  C   C13       1.0  0.82167  0.74584  0.54301  1.0000
  C   C14       1.0  0.17828  0.25416  0.45699  1.0000
  S   S1        1.0  0.41930  0.77293  0.96400  1.0000
  S   S2        1.0  0.58070  0.22706  0.03600  1.0000
  N   N1        1.0  0.90191  0.50231  0.80492  1.0000
  N   N2        1.0  0.09809  0.49769  0.19510  1.0000
  O   O1        1.0  0.60908  0.22481  0.40425  1.0000
  O   O2        1.0  0.39092  0.77519  0.59575  1.0000
  O   O3        1.0  0.65367  0.12737  0.59713  1.0000
  O   O4        1.0  0.34632  0.87263  0.40287  1.0000
  O   O5        1.0  0.79765  0.73554  0.41491  1.0000
  O   O6        1.0  0.20235  0.26444  0.58507  1.0000
  O   O7        1.0  0.84137  0.85966  0.62203  1.0000
  O   O8        1.0  0.15863  0.14034  0.37796  1.0000
  O   O9        1.0  0.78495  0.96451  0.30967  1.0000
  O   O10       1.0  0.21503  0.03548  0.69032  1.0000
  O   O11       1.0  0.09728  0.96298  0.13309  1.0000
  O   O12       1.0  0.90271  0.03707  0.86688  1.0000
  O   O13       1.0  0.46787  0.82413  0.11043  1.0000
  O   O14       1.0  0.53207  0.17585  0.88958  1.0000
  O   O15       1.0  0.62430  0.78183  0.89177  1.0000
  O   O16       1.0  0.37572  0.21820  0.10825  1.0000
  O   O17       1.0  0.31559  0.63174  0.94819  1.0000
  O   O18       1.0  0.68446  0.36824  0.05179  1.0000
  O   O19       1.0  0.29456  0.87032  0.89800  1.0000
  O   O20       1.0  0.70541  0.12965  0.10200  1.0000
  O   O21       1.0  0.14177  0.33230  0.93708  1.0000
  O   O22       1.0  0.85828  0.66774  0.06292  1.0000
