data_image0
_chemical_formula_structural       K2H8C6S2O12
_chemical_formula_sum              "K2 H8 C6 S2 O12"
_cell_length_a       5.53958
_cell_length_b       7.16566
_cell_length_c       9.1199
_cell_angle_alpha    92.0053
_cell_angle_beta     107.538
_cell_angle_gamma    105.909

_space_group_name_H-M_alt    "P 1"
_space_group_IT_number       1

loop_
  _space_group_symop_operation_xyz
  'x, y, z'

loop_
  _atom_site_type_symbol
  _atom_site_label
  _atom_site_symmetry_multiplicity
  _atom_site_fract_x
  _atom_site_fract_y
  _atom_site_fract_z
  _atom_site_occupancy
  K   K1        1.0  0.32681  0.71813  0.03751  1.0000
  K   K2        1.0  0.67318  0.28188  0.96250  1.0000
  H   H1        1.0  0.88690  0.89786  0.25979  1.0000
  H   H2        1.0  0.11311  0.10214  0.74020  1.0000
  H   H3        1.0  0.98021  0.63179  0.28693  1.0000
  H   H4        1.0  0.01982  0.36820  0.71311  1.0000
  H   H5        1.0  0.64366  0.13723  0.36197  1.0000
  H   H6        1.0  0.35633  0.86275  0.63802  1.0000
  H   H7        1.0  0.85762  0.79468  0.40556  1.0000
  H   H8        1.0  0.14240  0.20531  0.59444  1.0000
  C   C1        1.0  0.27470  0.51660  0.38187  1.0000
  C   C2        1.0  0.72528  0.48341  0.61813  1.0000
  C   C3        1.0  0.39298  0.36997  0.36357  1.0000
  C   C4        1.0  0.60699  0.63003  0.63641  1.0000
  C   C5        1.0  0.61851  0.35253  0.47994  1.0000
  C   C6        1.0  0.38148  0.64748  0.52005  1.0000
  S   S1        1.0  0.24920  0.20917  0.18633  1.0000
  S   S2        1.0  0.75083  0.79084  0.81367  1.0000
  O   O1        1.0  0.06645  0.53185  0.26213  1.0000
  O   O2        1.0  0.93351  0.46812  0.73783  1.0000
  O   O3        1.0  0.73918  0.21314  0.46804  1.0000
  O   O4        1.0  0.26080  0.78686  0.53197  1.0000
  O   O5        1.0  0.25151  0.32833  0.05890  1.0000
  O   O6        1.0  0.74851  0.67171  0.94110  1.0000
  O   O7        1.0  0.41908  0.07936  0.19488  1.0000
  O   O8        1.0  0.58097  0.92067  0.80515  1.0000
  O   O9        1.0  0.97739  0.10078  0.17860  1.0000
  O   O10       1.0  0.02258  0.89921  0.82141  1.0000
  O   O11       1.0  0.79795  0.77309  0.29251  1.0000
  O   O12       1.0  0.20205  0.22690  0.70748  1.0000
