data_image0
_chemical_formula_structural       CdH8C8Cl2O6
_chemical_formula_sum              "Cd1 H8 C8 Cl2 O6"
_cell_length_a       4.92784
_cell_length_b       7.48155
_cell_length_c       8.42958
_cell_angle_alpha    99.4837
_cell_angle_beta     100.319
_cell_angle_gamma    99.7788

_space_group_name_H-M_alt    "P 1"
_space_group_IT_number       1

loop_
  _space_group_symop_operation_xyz
  'x, y, z'

loop_
  _atom_site_type_symbol
  _atom_site_label
  _atom_site_symmetry_multiplicity
  _atom_site_fract_x
  _atom_site_fract_y
  _atom_site_fract_z
  _atom_site_occupancy
  Cd  Cd1       1.0  1.00000  0.50000  1.00000  1.0000
  H   H1        1.0  0.77363  0.02506  0.10850  1.0000
  H   H2        1.0  0.22637  0.97494  0.89150  1.0000
  H   H3        1.0  0.97656  0.90257  0.23210  1.0000
  H   H4        1.0  0.02344  0.09743  0.76790  1.0000
  H   H5        1.0  0.60152  0.84712  0.19919  1.0000
  H   H6        1.0  0.39848  0.15288  0.80081  1.0000
  H   H7        1.0  0.59688  0.72391  0.92351  1.0000
  H   H8        1.0  0.40311  0.27609  0.07649  1.0000
  C   C1        1.0  0.74031  0.36074  0.45387  1.0000
  C   C2        1.0  0.25970  0.63926  0.54613  1.0000
  C   C3        1.0  0.85653  0.42711  0.33003  1.0000
  C   C4        1.0  0.14348  0.57289  0.66998  1.0000
  C   C5        1.0  0.77992  0.89016  0.14275  1.0000
  C   C6        1.0  0.22008  0.10984  0.85725  1.0000
  C   C7        1.0  0.86534  0.42834  0.62186  1.0000
  C   C8        1.0  0.13467  0.57166  0.37814  1.0000
  Cl  Cl1       1.0  0.43032  0.19703  0.40112  1.0000
  Cl  Cl2       1.0  0.56968  0.80298  0.59888  1.0000
  O   O1        1.0  0.74531  0.37566  0.17692  1.0000
  O   O2        1.0  0.25469  0.62434  0.82308  1.0000
  O   O3        1.0  0.75845  0.37514  0.73607  1.0000
  O   O4        1.0  0.24155  0.62486  0.26394  1.0000
  O   O5        1.0  0.78363  0.75440  0.00065  1.0000
  O   O6        1.0  0.21637  0.24560  0.99935  1.0000
