data_image0
_chemical_formula_structural       Zn2H28C40N8Cl4O8
_chemical_formula_sum              "Zn2 H28 C40 N8 Cl4 O8"
_cell_length_a       9.59897
_cell_length_b       10.2416
_cell_length_c       13.1337
_cell_angle_alpha    107.398
_cell_angle_beta     110.72
_cell_angle_gamma    94.4948

_space_group_name_H-M_alt    "P 1"
_space_group_IT_number       1

loop_
  _space_group_symop_operation_xyz
  'x, y, z'

loop_
  _atom_site_type_symbol
  _atom_site_label
  _atom_site_symmetry_multiplicity
  _atom_site_fract_x
  _atom_site_fract_y
  _atom_site_fract_z
  _atom_site_occupancy
  Zn  Zn1       1.0  0.23623  0.73076  0.12176  1.0000
  Zn  Zn2       1.0  0.76377  0.26925  0.87823  1.0000
  H   H1        1.0  0.06167  0.46624  0.15032  1.0000
  H   H2        1.0  0.93834  0.53376  0.84969  1.0000
  H   H3        1.0  0.97418  0.87382  0.20396  1.0000
  H   H4        1.0  0.02582  0.12618  0.79604  1.0000
  H   H5        1.0  0.79210  0.72724  0.27376  1.0000
  H   H6        1.0  0.20790  0.27275  0.72624  1.0000
  H   H7        1.0  0.86266  0.35637  0.19969  1.0000
  H   H8        1.0  0.13735  0.64363  0.80031  1.0000
  H   H9        1.0  0.72547  0.45068  0.22800  1.0000
  H   H10       1.0  0.27453  0.54932  0.77200  1.0000
  H   H11       1.0  0.72232  0.40189  0.39500  1.0000
  H   H12       1.0  0.27768  0.59811  0.60500  1.0000
  H   H13       1.0  0.85027  0.43351  0.60352  1.0000
  H   H14       1.0  0.14974  0.56649  0.39648  1.0000
  H   H15       1.0  0.52335  0.97805  0.32894  1.0000
  H   H16       1.0  0.47665  0.02195  0.67106  1.0000
  H   H17       1.0  0.37326  0.57037  0.30956  1.0000
  H   H18       1.0  0.62674  0.42963  0.69044  1.0000
  H   H19       1.0  0.61154  0.71274  0.52725  1.0000
  H   H20       1.0  0.38847  0.28726  0.47275  1.0000
  H   H21       1.0  0.74768  0.96745  0.63048  1.0000
  H   H22       1.0  0.25232  0.03255  0.36953  1.0000
  H   H23       1.0  0.69132  0.08710  0.55814  1.0000
  H   H24       1.0  0.30869  0.91290  0.44186  1.0000
  H   H25       1.0  0.18744  0.85565  0.56067  1.0000
  H   H26       1.0  0.81256  0.14436  0.43933  1.0000
  H   H27       1.0  0.95694  0.84476  0.60481  1.0000
  H   H28       1.0  0.04306  0.15525  0.39520  1.0000
  C   C1        1.0  0.37748  0.50527  0.04044  1.0000
  C   C2        1.0  0.62252  0.49474  0.95957  1.0000
  C   C3        1.0  0.43630  0.38304  0.02303  1.0000
  C   C4        1.0  0.56369  0.61696  0.97697  1.0000
  C   C5        1.0  0.55065  0.36896  0.97892  1.0000
  C   C6        1.0  0.44934  0.63103  0.02108  1.0000
  C   C7        1.0  0.12132  0.98030  0.09573  1.0000
  C   C8        1.0  0.87867  0.01971  0.90426  1.0000
  C   C9        1.0  0.07307  0.10757  0.11429  1.0000
  C   C10       1.0  0.92693  0.89243  0.88570  1.0000
  C   C11       1.0  0.95912  0.13465  0.02502  1.0000
  C   C12       1.0  0.04088  0.86534  0.97497  1.0000
  C   C13       1.0  0.01826  0.55968  0.17661  1.0000
  C   C14       1.0  0.98175  0.44033  0.82339  1.0000
  C   C15       1.0  0.96764  0.76810  0.20441  1.0000
  C   C16       1.0  0.03236  0.23190  0.79559  1.0000
  C   C17       1.0  0.87564  0.69691  0.23834  1.0000
  C   C18       1.0  0.12435  0.30309  0.76166  1.0000
  C   C19       1.0  0.84833  0.45611  0.25258  1.0000
  C   C20       1.0  0.15168  0.54389  0.74743  1.0000
  C   C21       1.0  0.92718  0.48118  0.38096  1.0000
  C   C22       1.0  0.07283  0.51881  0.61904  1.0000
  C   C23       1.0  0.84459  0.44488  0.44098  1.0000
  C   C24       1.0  0.15542  0.55512  0.55903  1.0000
  C   C25       1.0  0.91650  0.46315  0.55844  1.0000
  C   C26       1.0  0.08350  0.53684  0.44156  1.0000
  C   C27       1.0  0.51410  0.88538  0.35187  1.0000
  C   C28       1.0  0.48590  0.11462  0.64813  1.0000
  C   C29       1.0  0.43932  0.67653  0.34676  1.0000
  C   C30       1.0  0.56068  0.32347  0.65324  1.0000
  C   C31       1.0  0.55658  0.74454  0.45365  1.0000
  C   C32       1.0  0.44341  0.25546  0.54635  1.0000
  C   C33       1.0  0.72831  0.98712  0.54936  1.0000
  C   C34       1.0  0.27169  0.01288  0.45064  1.0000
  C   C35       1.0  0.86949  0.99334  0.52430  1.0000
  C   C36       1.0  0.13051  0.00667  0.47570  1.0000
  C   C37       1.0  0.10549  0.91971  0.53452  1.0000
  C   C38       1.0  0.89451  0.08030  0.46548  1.0000
  C   C39       1.0  0.97565  0.91254  0.55860  1.0000
  C   C40       1.0  0.02434  0.08746  0.44140  1.0000
  N   N1        1.0  0.05657  0.68178  0.16677  1.0000
  N   N2        1.0  0.94343  0.31822  0.83323  1.0000
  N   N3        1.0  0.90840  0.56491  0.21962  1.0000
  N   N4        1.0  0.09160  0.43509  0.78038  1.0000
  N   N5        1.0  0.41385  0.76619  0.28485  1.0000
  N   N6        1.0  0.58615  0.23381  0.71515  1.0000
  N   N7        1.0  0.60211  0.87700  0.45555  1.0000
  N   N8        1.0  0.39789  0.12300  0.54445  1.0000
  Cl  Cl1       1.0  0.35924  0.24273  0.04723  1.0000
  Cl  Cl2       1.0  0.64076  0.75726  0.95277  1.0000
  Cl  Cl3       1.0  0.15954  0.23987  0.24949  1.0000
  Cl  Cl4       1.0  0.84045  0.76013  0.75050  1.0000
  O   O1        1.0  0.26689  0.52083  0.07127  1.0000
  O   O2        1.0  0.73310  0.47917  0.92873  1.0000
  O   O3        1.0  0.59997  0.25804  0.95335  1.0000
  O   O4        1.0  0.40003  0.74196  0.04666  1.0000
  O   O5        1.0  0.91734  0.24999  0.03698  1.0000
  O   O6        1.0  0.08265  0.75001  0.96301  1.0000
  O   O7        1.0  0.22598  0.95063  0.17120  1.0000
  O   O8        1.0  0.77401  0.04937  0.82879  1.0000
