data_image0
_chemical_formula_structural       K2H14C18N8O4
_chemical_formula_sum              "K2 H14 C18 N8 O4"
_cell_length_a       4.16641
_cell_length_b       7.85727
_cell_length_c       15.0955
_cell_angle_alpha    88.1779
_cell_angle_beta     84.7706
_cell_angle_gamma    87.3413

_space_group_name_H-M_alt    "P 1"
_space_group_IT_number       1

loop_
  _space_group_symop_operation_xyz
  'x, y, z'

loop_
  _atom_site_type_symbol
  _atom_site_label
  _atom_site_symmetry_multiplicity
  _atom_site_fract_x
  _atom_site_fract_y
  _atom_site_fract_z
  _atom_site_occupancy
  K   K1        1.0  0.91229  0.97573  0.63863  1.0000
  K   K2        1.0  0.08770  0.02428  0.36136  1.0000
  H   H1        1.0  0.94405  0.56157  0.71927  1.0000
  H   H2        1.0  0.05596  0.43843  0.28074  1.0000
  H   H3        1.0  0.89566  0.35509  0.87100  1.0000
  H   H4        1.0  0.10434  0.64490  0.12900  1.0000
  H   H5        1.0  0.31945  0.08145  0.82543  1.0000
  H   H6        1.0  0.68055  0.91854  0.17456  1.0000
  H   H7        1.0  0.92432  0.98002  0.92554  1.0000
  H   H8        1.0  0.07567  0.01998  0.07446  1.0000
  H   H9        1.0  0.59398  0.75207  0.03809  1.0000
  H   H10       1.0  0.40599  0.24792  0.96191  1.0000
  H   H11       1.0  0.29672  0.55565  0.92277  1.0000
  H   H12       1.0  0.70326  0.44435  0.07722  1.0000
  H   H13       1.0  0.46601  0.68039  0.76618  1.0000
  H   H14       1.0  0.53400  0.31961  0.23381  1.0000
  C   C1        1.0  0.36467  0.33168  0.51129  1.0000
  C   C2        1.0  0.63534  0.66832  0.48871  1.0000
  C   C3        1.0  0.38681  0.43160  0.58724  1.0000
  C   C4        1.0  0.61321  0.56841  0.41276  1.0000
  C   C5        1.0  0.49687  0.59886  0.58033  1.0000
  C   C6        1.0  0.50314  0.40115  0.41968  1.0000
  C   C7        1.0  0.06501  0.44092  0.73439  1.0000
  C   C8        1.0  0.93500  0.55908  0.26562  1.0000
  C   C9        1.0  0.04639  0.33480  0.80957  1.0000
  C   C10       1.0  0.95361  0.66519  0.19043  1.0000
  C   C11       1.0  0.25743  0.19468  0.78656  1.0000
  C   C12       1.0  0.74258  0.80531  0.21344  1.0000
  C   C13       1.0  0.77438  0.87868  0.90878  1.0000
  C   C14       1.0  0.22561  0.12132  0.09122  1.0000
  C   C15       1.0  0.60631  0.76139  0.96610  1.0000
  C   C16       1.0  0.39368  0.23861  0.03390  1.0000
  C   C17       1.0  0.45561  0.66052  0.90974  1.0000
  C   C18       1.0  0.54438  0.33947  0.09026  1.0000
  N   N1        1.0  0.27567  0.36395  0.67232  1.0000
  N   N2        1.0  0.72434  0.63605  0.32768  1.0000
  N   N3        1.0  0.39765  0.21163  0.70335  1.0000
  N   N4        1.0  0.60236  0.78837  0.29664  1.0000
  N   N5        1.0  0.53628  0.71934  0.82591  1.0000
  N   N6        1.0  0.46371  0.28066  0.17409  1.0000
  N   N7        1.0  0.73217  0.85248  0.82320  1.0000
  N   N8        1.0  0.26783  0.14752  0.17681  1.0000
  O   O1        1.0  0.23300  0.19062  0.51347  1.0000
  O   O2        1.0  0.76699  0.80939  0.48654  1.0000
  O   O3        1.0  0.49175  0.69981  0.64465  1.0000
  O   O4        1.0  0.50826  0.30020  0.35535  1.0000
