data_image0
_chemical_formula_structural       Sm4H16C24N8O28
_chemical_formula_sum              "Sm4 H16 C24 N8 O28"
_cell_length_a       6.76392
_cell_length_b       11.3717
_cell_length_c       13.2761
_cell_angle_alpha    106.19
_cell_angle_beta     89.9962
_cell_angle_gamma    107.288

_space_group_name_H-M_alt    "P 1"
_space_group_IT_number       1

loop_
  _space_group_symop_operation_xyz
  'x, y, z'

loop_
  _atom_site_type_symbol
  _atom_site_label
  _atom_site_symmetry_multiplicity
  _atom_site_fract_x
  _atom_site_fract_y
  _atom_site_fract_z
  _atom_site_occupancy
  Sm  Sm1       1.0  0.77682  0.70134  0.88187  1.0000
  Sm  Sm2       1.0  0.07585  0.29873  0.61809  1.0000
  Sm  Sm3       1.0  0.22318  0.29867  0.11814  1.0000
  Sm  Sm4       1.0  0.92415  0.70127  0.38190  1.0000
  H   H1        1.0  0.36817  0.87355  0.80928  1.0000
  H   H2        1.0  0.49499  0.12630  0.69080  1.0000
  H   H3        1.0  0.63183  0.12645  0.19072  1.0000
  H   H4        1.0  0.50502  0.87370  0.30920  1.0000
  H   H5        1.0  0.25267  0.83681  0.61570  1.0000
  H   H6        1.0  0.41631  0.16304  0.88440  1.0000
  H   H7        1.0  0.74734  0.16319  0.38429  1.0000
  H   H8        1.0  0.58370  0.83697  0.11560  1.0000
  H   H9        1.0  0.47724  0.43448  0.82372  1.0000
  H   H10       1.0  0.04255  0.56556  0.67630  1.0000
  H   H11       1.0  0.52276  0.56552  0.17627  1.0000
  H   H12       1.0  0.95745  0.43443  0.32370  1.0000
  H   H13       1.0  0.60561  0.43562  0.72878  1.0000
  H   H14       1.0  0.16967  0.56432  0.77124  1.0000
  H   H15       1.0  0.39439  0.56438  0.27122  1.0000
  H   H16       1.0  0.83033  0.43568  0.22876  1.0000
  C   C1        1.0  0.43913  0.82750  0.74256  1.0000
  C   C2        1.0  0.61201  0.17238  0.75750  1.0000
  C   C3        1.0  0.56087  0.17250  0.25744  1.0000
  C   C4        1.0  0.38800  0.82763  0.24249  1.0000
  C   C5        1.0  0.63003  0.72906  0.64270  1.0000
  C   C6        1.0  0.90124  0.27093  0.85732  1.0000
  C   C7        1.0  0.36998  0.27095  0.35730  1.0000
  C   C8        1.0  0.09876  0.72907  0.14268  1.0000
  C   C9        1.0  0.48692  0.74477  0.57577  1.0000
  C   C10       1.0  0.74251  0.25519  0.92428  1.0000
  C   C11       1.0  0.51310  0.25524  0.42423  1.0000
  C   C12       1.0  0.25750  0.74481  0.07572  1.0000
  C   C13       1.0  0.79069  0.66304  0.62166  1.0000
  C   C14       1.0  0.12788  0.33691  0.87832  1.0000
  C   C15       1.0  0.20932  0.33696  0.37835  1.0000
  C   C16       1.0  0.87213  0.66309  0.12167  1.0000
  C   C17       1.0  0.42799  0.69473  0.46072  1.0000
  C   C18       1.0  0.73366  0.30537  0.03932  1.0000
  C   C19       1.0  0.57202  0.30527  0.53928  1.0000
  C   C20       1.0  0.26634  0.69463  0.96068  1.0000
  C   C21       1.0  0.07171  0.00332  0.95427  1.0000
  C   C22       1.0  0.06818  0.99661  0.54581  1.0000
  C   C23       1.0  0.92826  0.99669  0.04575  1.0000
  C   C24       1.0  0.93184  0.00340  0.45420  1.0000
  N   N1        1.0  0.59614  0.77994  0.74617  1.0000
  N   N2        1.0  0.81652  0.22000  0.75384  1.0000
  N   N3        1.0  0.40386  0.22006  0.25383  1.0000
  N   N4        1.0  0.18348  0.78000  0.24616  1.0000
  N   N5        1.0  0.36985  0.80783  0.64187  1.0000
  N   N6        1.0  0.56240  0.19210  0.85821  1.0000
  N   N7        1.0  0.63015  0.19217  0.35813  1.0000
  N   N8        1.0  0.43760  0.80790  0.14179  1.0000
  O   O1        1.0  0.24694  0.68772  0.42947  1.0000
  O   O2        1.0  0.55970  0.31251  0.07062  1.0000
  O   O3        1.0  0.75307  0.31228  0.57053  1.0000
  O   O4        1.0  0.44029  0.68750  0.92938  1.0000
  O   O5        1.0  0.55588  0.65933  0.39812  1.0000
  O   O6        1.0  0.89699  0.34082  0.10188  1.0000
  O   O7        1.0  0.44412  0.34066  0.60188  1.0000
  O   O8        1.0  0.10301  0.65919  0.89812  1.0000
  O   O9        1.0  0.84621  0.62594  0.53082  1.0000
  O   O10       1.0  0.22059  0.37377  0.96910  1.0000
  O   O11       1.0  0.15379  0.37405  0.46917  1.0000
  O   O12       1.0  0.77941  0.62623  0.03090  1.0000
  O   O13       1.0  0.86896  0.64627  0.70276  1.0000
  O   O14       1.0  0.22278  0.35385  0.79722  1.0000
  O   O15       1.0  0.13104  0.35373  0.29724  1.0000
  O   O16       1.0  0.77722  0.64615  0.20277  1.0000
  O   O17       1.0  0.62053  0.47542  0.80593  1.0000
  O   O18       1.0  0.14490  0.52459  0.69407  1.0000
  O   O19       1.0  0.37947  0.52458  0.19406  1.0000
  O   O20       1.0  0.85510  0.47541  0.30593  1.0000
  O   O21       1.0  0.20120  0.11319  0.96208  1.0000
  O   O22       1.0  0.08688  0.88655  0.53822  1.0000
  O   O23       1.0  0.79879  0.88682  0.03794  1.0000
  O   O24       1.0  0.91312  0.11343  0.46178  1.0000
  O   O25       1.0  0.04985  0.90104  0.88094  1.0000
  O   O26       1.0  0.14915  0.09895  0.61896  1.0000
  O   O27       1.0  0.95012  0.09898  0.11907  1.0000
  O   O28       1.0  0.85084  0.90104  0.38103  1.0000
