data_image0
_chemical_formula_structural       Ni2H12C12N4O12
_chemical_formula_sum              "Ni2 H12 C12 N4 O12"
_cell_length_a       7.14457
_cell_length_b       7.14804
_cell_length_c       10.4076
_cell_angle_alpha    83.8396
_cell_angle_beta     119.856
_cell_angle_gamma    115.577

_space_group_name_H-M_alt    "P 1"
_space_group_IT_number       1

loop_
  _space_group_symop_operation_xyz
  'x, y, z'

loop_
  _atom_site_type_symbol
  _atom_site_label
  _atom_site_symmetry_multiplicity
  _atom_site_fract_x
  _atom_site_fract_y
  _atom_site_fract_z
  _atom_site_occupancy
  Ni  Ni1       1.0  0.00000  1.00000  0.50000  1.0000
  Ni  Ni2       1.0  0.00000  0.50000  0.00000  1.0000
  H   H1        1.0  0.28417  0.44174  0.28224  1.0000
  H   H2        1.0  0.65928  0.00184  0.21777  1.0000
  H   H3        1.0  0.71584  0.55826  0.71776  1.0000
  H   H4        1.0  0.34072  0.99815  0.78223  1.0000
  H   H5        1.0  0.32701  0.36336  0.16408  1.0000
  H   H6        1.0  0.69931  0.16292  0.33599  1.0000
  H   H7        1.0  0.67299  0.63664  0.83592  1.0000
  H   H8        1.0  0.30069  0.83708  0.66401  1.0000
  H   H9        1.0  0.72038  0.05106  0.85444  1.0000
  H   H10       1.0  0.69720  0.86585  0.64601  1.0000
  H   H11       1.0  0.27962  0.94894  0.14556  1.0000
  H   H12       1.0  0.30279  0.13415  0.35399  1.0000
  C   C1        1.0  0.12091  0.33805  0.68824  1.0000
  C   C2        1.0  0.14949  0.43288  0.81160  1.0000
  C   C3        1.0  0.87909  0.66196  0.31176  1.0000
  C   C4        1.0  0.85051  0.56713  0.18840  1.0000
  C   C5        1.0  0.82287  0.02823  0.69371  1.0000
  C   C6        1.0  0.83466  0.12916  0.80650  1.0000
  C   C7        1.0  0.17713  0.97178  0.30630  1.0000
  C   C8        1.0  0.16533  0.87084  0.19350  1.0000
  C   C9        1.0  0.22770  0.44137  0.58955  1.0000
  C   C10       1.0  0.35170  0.63834  0.91031  1.0000
  C   C11       1.0  0.77229  0.55862  0.41045  1.0000
  C   C12       1.0  0.64830  0.36167  0.08969  1.0000
  N   N1        1.0  0.96484  0.13367  0.63760  1.0000
  N   N2        1.0  0.99606  0.32736  0.86245  1.0000
  N   N3        1.0  0.03516  0.86632  0.36240  1.0000
  N   N4        1.0  0.00394  0.67265  0.13755  1.0000
  O   O1        1.0  0.21580  0.31476  0.50447  1.0000
  O   O2        1.0  0.31039  0.71145  0.99556  1.0000
  O   O3        1.0  0.78420  0.68523  0.49554  1.0000
  O   O4        1.0  0.68961  0.28855  0.00444  1.0000
  O   O5        1.0  0.30615  0.63630  0.58969  1.0000
  O   O6        1.0  0.54653  0.71662  0.91009  1.0000
  O   O7        1.0  0.69385  0.36371  0.41030  1.0000
  O   O8        1.0  0.45348  0.28338  0.08991  1.0000
  O   O9        1.0  0.20665  0.37983  0.17907  1.0000
  O   O10       1.0  0.70065  0.02757  0.32095  1.0000
  O   O11       1.0  0.79335  0.62017  0.82093  1.0000
  O   O12       1.0  0.29935  0.97243  0.67905  1.0000
