data_image0
_chemical_formula_structural       Cu2H12C12N4O12
_chemical_formula_sum              "Cu2 H12 C12 N4 O12"
_cell_length_a       7.26376
_cell_length_b       7.25958
_cell_length_c       10.4292
_cell_angle_alpha    86.2776
_cell_angle_beta     116.746
_cell_angle_gamma    116.468

_space_group_name_H-M_alt    "P 1"
_space_group_IT_number       1

loop_
  _space_group_symop_operation_xyz
  'x, y, z'

loop_
  _atom_site_type_symbol
  _atom_site_label
  _atom_site_symmetry_multiplicity
  _atom_site_fract_x
  _atom_site_fract_y
  _atom_site_fract_z
  _atom_site_occupancy
  Cu  Cu1       1.0  0.00000  1.00000  0.50000  1.0000
  Cu  Cu2       1.0  1.00000  0.50000  1.00000  1.0000
  H   H1        1.0  0.28808  0.42503  0.30319  1.0000
  H   H2        1.0  0.62294  0.98567  0.19672  1.0000
  H   H3        1.0  0.71194  0.57498  0.69681  1.0000
  H   H4        1.0  0.37706  0.01434  0.80328  1.0000
  H   H5        1.0  0.33919  0.36698  0.18257  1.0000
  H   H6        1.0  0.68470  0.15665  0.31747  1.0000
  H   H7        1.0  0.66081  0.63303  0.81743  1.0000
  H   H8        1.0  0.31530  0.84335  0.68254  1.0000
  H   H9        1.0  0.71947  0.04491  0.85800  1.0000
  H   H10       1.0  0.68587  0.86192  0.64135  1.0000
  H   H11       1.0  0.28053  0.95509  0.14200  1.0000
  H   H12       1.0  0.31413  0.13808  0.35864  1.0000
  C   C1        1.0  0.11364  0.33181  0.68716  1.0000
  C   C2        1.0  0.14407  0.42643  0.81246  1.0000
  C   C3        1.0  0.88636  0.66819  0.31284  1.0000
  C   C4        1.0  0.85592  0.57356  0.18754  1.0000
  C   C5        1.0  0.81396  0.02322  0.69090  1.0000
  C   C6        1.0  0.83138  0.12332  0.80855  1.0000
  C   C7        1.0  0.18604  0.97678  0.30910  1.0000
  C   C8        1.0  0.16862  0.87668  0.19145  1.0000
  C   C9        1.0  0.22330  0.43283  0.59005  1.0000
  C   C10       1.0  0.34226  0.63299  0.90968  1.0000
  C   C11       1.0  0.77670  0.56716  0.40995  1.0000
  C   C12       1.0  0.65774  0.36701  0.09032  1.0000
  N   N1        1.0  0.95455  0.12858  0.63396  1.0000
  N   N2        1.0  0.99393  0.32062  0.86563  1.0000
  N   N3        1.0  0.04545  0.87142  0.36604  1.0000
  N   N4        1.0  0.00606  0.67937  0.13437  1.0000
  O   O1        1.0  0.21053  0.30317  0.50399  1.0000
  O   O2        1.0  0.29864  0.70633  0.99575  1.0000
  O   O3        1.0  0.78947  0.69683  0.49601  1.0000
  O   O4        1.0  0.70135  0.29368  0.00425  1.0000
  O   O5        1.0  0.30401  0.62533  0.59147  1.0000
  O   O6        1.0  0.53325  0.71208  0.90831  1.0000
  O   O7        1.0  0.69600  0.37466  0.40854  1.0000
  O   O8        1.0  0.46674  0.28792  0.09169  1.0000
  O   O9        1.0  0.22123  0.37926  0.19914  1.0000
  O   O10       1.0  0.68072  0.02225  0.30076  1.0000
  O   O11       1.0  0.77878  0.62074  0.80086  1.0000
  O   O12       1.0  0.31928  0.97774  0.69924  1.0000
