data_image0
_chemical_formula_structural       Co2H12C12N4O12
_chemical_formula_sum              "Co2 H12 C12 N4 O12"
_cell_length_a       7.06824
_cell_length_b       7.06999
_cell_length_c       10.3896
_cell_angle_alpha    86.8752
_cell_angle_beta     117.476
_cell_angle_gamma    113.749

_space_group_name_H-M_alt    "P 1"
_space_group_IT_number       1

loop_
  _space_group_symop_operation_xyz
  'x, y, z'

loop_
  _atom_site_type_symbol
  _atom_site_label
  _atom_site_symmetry_multiplicity
  _atom_site_fract_x
  _atom_site_fract_y
  _atom_site_fract_z
  _atom_site_occupancy
  Co  Co1       1.0  0.50000  1.00000  1.00000  1.0000
  Co  Co2       1.0  0.50000  0.50000  0.50000  1.0000
  H   H1        1.0  0.16866  0.14338  0.83252  1.0000
  H   H2        1.0  0.81090  0.33621  0.66750  1.0000
  H   H3        1.0  0.83135  0.85662  0.16749  1.0000
  H   H4        1.0  0.18910  0.66378  0.33250  1.0000
  H   H5        1.0  0.21220  0.05891  0.71486  1.0000
  H   H6        1.0  0.84363  0.49715  0.78512  1.0000
  H   H7        1.0  0.78781  0.94110  0.28514  1.0000
  H   H8        1.0  0.15636  0.50284  0.21488  1.0000
  H   H9        1.0  0.21950  0.55029  0.85647  1.0000
  H   H10       1.0  0.19356  0.36304  0.64329  1.0000
  H   H11       1.0  0.78049  0.44972  0.14353  1.0000
  H   H12       1.0  0.80642  0.63696  0.35671  1.0000
  C   C1        1.0  0.83433  0.13146  0.90942  1.0000
  C   C2        1.0  0.72225  0.92484  0.59080  1.0000
  C   C3        1.0  0.16567  0.86855  0.09057  1.0000
  C   C4        1.0  0.27776  0.07516  0.40921  1.0000
  C   C5        1.0  0.64213  0.92726  0.81190  1.0000
  C   C6        1.0  0.61565  0.83018  0.68829  1.0000
  C   C7        1.0  0.35787  0.07274  0.18810  1.0000
  C   C8        1.0  0.38436  0.16981  0.31172  1.0000
  C   C9        1.0  0.33232  0.62705  0.80794  1.0000
  C   C10       1.0  0.31912  0.52435  0.69199  1.0000
  C   C11       1.0  0.66767  0.37295  0.19206  1.0000
  C   C12       1.0  0.68087  0.47565  0.30801  1.0000
  N   N1        1.0  0.48992  0.82637  0.86542  1.0000
  N   N2        1.0  0.46103  0.62447  0.63462  1.0000
  N   N3        1.0  0.51008  0.17363  0.13458  1.0000
  N   N4        1.0  0.53897  0.37552  0.36538  1.0000
  O   O1        1.0  0.02650  0.22165  0.90866  1.0000
  O   O2        1.0  0.81336  0.11775  0.59169  1.0000
  O   O3        1.0  0.97350  0.77835  0.09134  1.0000
  O   O4        1.0  0.18664  0.88223  0.40831  1.0000
  O   O5        1.0  0.78580  0.19426  0.00062  1.0000
  O   O6        1.0  0.69367  0.78516  0.49949  1.0000
  O   O7        1.0  0.21420  0.80575  0.99938  1.0000
  O   O8        1.0  0.30632  0.21483  0.50052  1.0000
  O   O9        1.0  0.28965  0.12689  0.81627  1.0000
  O   O10       1.0  0.81072  0.47344  0.68382  1.0000
  O   O11       1.0  0.71037  0.87312  0.18373  1.0000
  O   O12       1.0  0.18927  0.52655  0.31618  1.0000
