data_image0
_chemical_formula_structural       CdH10C14S2N6
_chemical_formula_sum              "Cd1 H10 C14 S2 N6"
_cell_length_a       5.76807
_cell_length_b       7.96243
_cell_length_c       9.87895
_cell_angle_alpha    72.7542
_cell_angle_beta     73.8322
_cell_angle_gamma    80.6598

_space_group_name_H-M_alt    "P 1"
_space_group_IT_number       1

loop_
  _space_group_symop_operation_xyz
  'x, y, z'

loop_
  _atom_site_type_symbol
  _atom_site_label
  _atom_site_symmetry_multiplicity
  _atom_site_fract_x
  _atom_site_fract_y
  _atom_site_fract_z
  _atom_site_occupancy
  Cd  Cd1       1.0  0.50001  0.00000  0.50000  1.0000
  H   H1        1.0  0.68369  0.37192  0.41575  1.0000
  H   H2        1.0  0.31631  0.62809  0.58424  1.0000
  H   H3        1.0  0.66943  0.67890  0.24993  1.0000
  H   H4        1.0  0.33056  0.32111  0.75006  1.0000
  H   H5        1.0  0.10521  0.53482  0.10590  1.0000
  H   H6        1.0  0.89480  0.46517  0.89410  1.0000
  H   H7        1.0  0.14376  0.23518  0.27650  1.0000
  H   H8        1.0  0.85624  0.76481  0.72349  1.0000
  H   H9        1.0  0.23883  0.83867  0.99567  1.0000
  H   H10       1.0  0.76117  0.16134  0.00433  1.0000
  C   C1        1.0  0.56016  0.41426  0.34368  1.0000
  C   C2        1.0  0.43982  0.58575  0.65633  1.0000
  C   C3        1.0  0.55257  0.58335  0.25140  1.0000
  C   C4        1.0  0.44742  0.41665  0.74860  1.0000
  C   C5        1.0  0.38968  0.63068  0.16097  1.0000
  C   C6        1.0  0.61032  0.36932  0.83903  1.0000
  C   C7        1.0  0.23831  0.50364  0.17140  1.0000
  C   C8        1.0  0.76169  0.49635  0.82860  1.0000
  C   C9        1.0  0.25802  0.33663  0.26703  1.0000
  C   C10       1.0  0.74198  0.66336  0.73297  1.0000
  C   C11       1.0  0.37483  0.80593  0.06047  1.0000
  C   C12       1.0  0.62516  0.19407  0.93953  1.0000
  C   C13       1.0  0.91435  0.08574  0.64522  1.0000
  C   C14       1.0  0.08566  0.91426  0.35479  1.0000
  S   S1        1.0  0.12502  0.05538  0.73290  1.0000
  S   S2        1.0  0.87498  0.94462  0.26711  1.0000
  N   N1        1.0  0.41749  0.29159  0.35136  1.0000
  N   N2        1.0  0.58250  0.70841  0.64865  1.0000
  N   N3        1.0  0.52040  0.92023  0.04920  1.0000
  N   N4        1.0  0.47959  0.07977  0.95080  1.0000
  N   N5        1.0  0.75686  0.11087  0.58426  1.0000
  N   N6        1.0  0.24315  0.88912  0.41575  1.0000
