data_image0
_chemical_formula_structural       Cd2H10C10N2Cl4O2
_chemical_formula_sum              "Cd2 H10 C10 N2 Cl4 O2"
_cell_length_a       6.77138
_cell_length_b       7.51819
_cell_length_c       8.90877
_cell_angle_alpha    111.517
_cell_angle_beta     108.576
_cell_angle_gamma    98.3368

_space_group_name_H-M_alt    "P 1"
_space_group_IT_number       1

loop_
  _space_group_symop_operation_xyz
  'x, y, z'

loop_
  _atom_site_type_symbol
  _atom_site_label
  _atom_site_symmetry_multiplicity
  _atom_site_fract_x
  _atom_site_fract_y
  _atom_site_fract_z
  _atom_site_occupancy
  Cd  Cd1       1.0  0.50001  0.50001  0.50000  1.0000
  Cd  Cd2       1.0  0.00002  0.50002  0.50002  1.0000
  H   H1        1.0  0.74549  0.61187  0.91661  1.0000
  H   H2        1.0  0.17115  0.80461  0.91700  1.0000
  H   H3        1.0  0.25449  0.38808  0.08340  1.0000
  H   H4        1.0  0.82889  0.19539  0.08299  1.0000
  H   H5        1.0  0.89767  0.77924  0.24720  1.0000
  H   H6        1.0  0.34984  0.96832  0.24762  1.0000
  H   H7        1.0  0.10232  0.22074  0.75283  1.0000
  H   H8        1.0  0.65018  0.03170  0.75237  1.0000
  H   H9        1.0  0.69436  0.94449  0.38838  1.0000
  H   H10       1.0  0.30563  0.05553  0.61163  1.0000
  C   C1        1.0  0.44350  0.69337  0.88743  1.0000
  C   C2        1.0  0.55649  0.30661  0.11253  1.0000
  C   C3        1.0  0.65421  0.69022  0.98551  1.0000
  C   C4        1.0  0.33104  0.79473  0.98570  1.0000
  C   C5        1.0  0.34577  0.30979  0.01449  1.0000
  C   C6        1.0  0.66897  0.20526  0.01430  1.0000
  C   C7        1.0  0.73981  0.78110  0.16630  1.0000
  C   C8        1.0  0.42640  0.88507  0.16650  1.0000
  C   C9        1.0  0.26023  0.21895  0.83374  1.0000
  C   C10       1.0  0.57362  0.11493  0.83351  1.0000
  N   N1        1.0  0.62672  0.87671  0.25347  1.0000
  N   N2        1.0  0.37327  0.12328  0.74655  1.0000
  Cl  Cl1       1.0  0.22119  0.67501  0.37058  1.0000
  Cl  Cl2       1.0  0.14931  0.19568  0.37025  1.0000
  Cl  Cl3       1.0  0.77881  0.32500  0.62942  1.0000
  Cl  Cl4       1.0  0.85068  0.80432  0.62974  1.0000
  O   O1        1.0  0.35779  0.60764  0.71577  1.0000
  O   O2        1.0  0.64213  0.39233  0.28417  1.0000
