data_image0
_chemical_formula_structural       Zn4H32C36N6O18
_chemical_formula_sum              "Zn4 H32 C36 N6 O18"
_cell_length_a       9.62143
_cell_length_b       9.70908
_cell_length_c       11.796
_cell_angle_alpha    82.4726
_cell_angle_beta     81.3192
_cell_angle_gamma    69.0452

_space_group_name_H-M_alt    "P 1"
_space_group_IT_number       1

loop_
  _space_group_symop_operation_xyz
  'x, y, z'

loop_
  _atom_site_type_symbol
  _atom_site_label
  _atom_site_symmetry_multiplicity
  _atom_site_fract_x
  _atom_site_fract_y
  _atom_site_fract_z
  _atom_site_occupancy
  Zn  Zn1       1.0  0.28509  0.39493  0.65882  1.0000
  Zn  Zn2       1.0  0.71491  0.60507  0.34118  1.0000
  Zn  Zn3       1.0  0.35269  0.65171  0.75308  1.0000
  Zn  Zn4       1.0  0.64731  0.34829  0.24691  1.0000
  H   H1        1.0  0.06090  0.39510  0.50828  1.0000
  H   H2        1.0  0.93910  0.60490  0.49172  1.0000
  H   H3        1.0  0.05382  0.29214  0.32795  1.0000
  H   H4        1.0  0.94618  0.70786  0.67205  1.0000
  H   H5        1.0  0.52909  0.05005  0.33070  1.0000
  H   H6        1.0  0.47091  0.94995  0.66930  1.0000
  H   H7        1.0  0.51695  0.17068  0.50587  1.0000
  H   H8        1.0  0.48305  0.82932  0.49413  1.0000
  H   H9        1.0  0.57148  0.60519  0.91592  1.0000
  H   H10       1.0  0.42852  0.39481  0.08408  1.0000
  H   H11       1.0  0.58831  0.72332  0.08645  1.0000
  H   H12       1.0  0.41169  0.27668  0.91355  1.0000
  H   H13       1.0  0.16420  0.06434  0.01925  1.0000
  H   H14       1.0  0.83580  0.93566  0.98075  1.0000
  H   H15       1.0  0.16334  0.93033  0.85677  1.0000
  H   H16       1.0  0.83667  0.06966  0.14323  1.0000
  H   H17       1.0  0.49411  0.92296  0.20579  1.0000
  H   H18       1.0  0.50589  0.07704  0.79422  1.0000
  H   H19       1.0  0.17483  0.14417  0.17539  1.0000
  H   H20       1.0  0.82517  0.85583  0.82461  1.0000
  H   H21       1.0  0.76020  0.11185  0.58530  1.0000
  H   H22       1.0  0.23980  0.88815  0.41470  1.0000
  H   H23       1.0  0.93480  0.13964  0.56331  1.0000
  H   H24       1.0  0.06520  0.86036  0.43669  1.0000
  H   H25       1.0  0.82849  0.37525  0.65658  1.0000
  H   H26       1.0  0.17150  0.62475  0.34342  1.0000
  H   H27       1.0  0.78968  0.23394  0.74936  1.0000
  H   H28       1.0  0.21031  0.76606  0.25064  1.0000
  H   H29       1.0  0.13824  0.48454  0.05744  1.0000
  H   H30       1.0  0.86177  0.51546  0.94256  1.0000
  H   H31       1.0  0.13002  0.35767  0.96742  1.0000
  H   H32       1.0  0.86998  0.64233  0.03258  1.0000
  C   C1        1.0  0.16229  0.31976  0.46523  1.0000
  C   C2        1.0  0.83771  0.68024  0.53477  1.0000
  C   C3        1.0  0.15856  0.26046  0.36561  1.0000
  C   C4        1.0  0.84143  0.73954  0.63439  1.0000
  C   C5        1.0  0.29024  0.15891  0.31392  1.0000
  C   C6        1.0  0.70976  0.84108  0.68608  1.0000
  C   C7        1.0  0.42190  0.12570  0.36634  1.0000
  C   C8        1.0  0.57809  0.87430  0.63366  1.0000
  C   C9        1.0  0.41636  0.19182  0.46507  1.0000
  C   C10       1.0  0.58364  0.80818  0.53493  1.0000
  C   C11       1.0  0.48389  0.70642  0.94342  1.0000
  C   C12       1.0  0.51611  0.29358  0.05658  1.0000
  C   C13       1.0  0.49283  0.77379  0.03714  1.0000
  C   C14       1.0  0.50717  0.22620  0.96286  1.0000
  C   C15       1.0  0.37788  0.90550  0.06863  1.0000
  C   C16       1.0  0.62213  0.09450  0.93137  1.0000
  C   C17       1.0  0.25723  0.96247  0.00171  1.0000
  C   C18       1.0  0.74277  0.03753  0.99829  1.0000
  C   C19       1.0  0.25564  0.88851  0.90950  1.0000
  C   C20       1.0  0.74436  0.11149  0.09050  1.0000
  C   C21       1.0  0.38963  0.97516  0.16700  1.0000
  C   C22       1.0  0.61037  0.02484  0.83300  1.0000
  C   C23       1.0  0.28124  0.09340  0.21230  1.0000
  C   C24       1.0  0.71876  0.90660  0.78770  1.0000
  C   C25       1.0  0.59962  0.39116  0.67899  1.0000
  C   C26       1.0  0.40038  0.60884  0.32101  1.0000
  C   C27       1.0  0.77486  0.28289  0.45456  1.0000
  C   C28       1.0  0.22514  0.71711  0.54544  1.0000
  C   C29       1.0  0.81256  0.19703  0.56949  1.0000
  C   C30       1.0  0.18745  0.80297  0.43051  1.0000
  C   C31       1.0  0.76497  0.29977  0.66685  1.0000
  C   C32       1.0  0.23503  0.70023  0.33315  1.0000
  C   C33       1.0  0.13206  0.56839  0.88375  1.0000
  C   C34       1.0  0.86794  0.43161  0.11625  1.0000
  C   C35       1.0  0.08431  0.47487  0.98403  1.0000
  C   C36       1.0  0.91569  0.52513  0.01597  1.0000
  N   N1        1.0  0.28881  0.28693  0.51487  1.0000
  N   N2        1.0  0.71118  0.71307  0.48513  1.0000
  N   N3        1.0  0.36706  0.76259  0.88003  1.0000
  N   N4        1.0  0.63294  0.23741  0.11996  1.0000
  N   N5        1.0  0.10854  0.26204  0.78006  1.0000
  N   N6        1.0  0.89145  0.73796  0.21994  1.0000
  O   O1        1.0  0.50943  0.33546  0.65064  1.0000
  O   O2        1.0  0.49057  0.66454  0.34936  1.0000
  O   O3        1.0  0.56251  0.51736  0.71819  1.0000
  O   O4        1.0  0.43749  0.48264  0.28181  1.0000
  O   O5        1.0  0.79272  0.40751  0.43616  1.0000
  O   O6        1.0  0.20728  0.59249  0.56384  1.0000
  O   O7        1.0  0.72672  0.22490  0.38431  1.0000
  O   O8        1.0  0.27328  0.77510  0.61569  1.0000
  O   O9        1.0  0.26243  0.49987  0.82499  1.0000
  O   O10       1.0  0.73757  0.50013  0.17501  1.0000
  O   O11       1.0  0.05971  0.70144  0.86273  1.0000
  O   O12       1.0  0.94029  0.29856  0.13727  1.0000
  O   O13       1.0  0.25225  0.20085  0.77233  1.0000
  O   O14       1.0  0.74774  0.79915  0.22767  1.0000
  O   O15       1.0  0.05724  0.39133  0.72631  1.0000
  O   O16       1.0  0.94276  0.60867  0.27369  1.0000
  O   O17       1.0  0.02417  0.20124  0.83693  1.0000
  O   O18       1.0  0.97583  0.79876  0.16307  1.0000
