data_image0
_chemical_formula_structural       Ca2H24C8O19
_chemical_formula_sum              "Ca2 H24 C8 O19"
_cell_length_a       6.2744
_cell_length_b       8.01187
_cell_length_c       10.2332
_cell_angle_alpha    96.5873
_cell_angle_beta     105.489
_cell_angle_gamma    106.588

_space_group_name_H-M_alt    "P 1"
_space_group_IT_number       1

loop_
  _space_group_symop_operation_xyz
  'x, y, z'

loop_
  _atom_site_type_symbol
  _atom_site_label
  _atom_site_symmetry_multiplicity
  _atom_site_fract_x
  _atom_site_fract_y
  _atom_site_fract_z
  _atom_site_occupancy
  Ca  Ca1       1.0  0.32095  0.70599  0.77647  1.0000
  Ca  Ca2       1.0  0.67577  0.29337  0.22300  1.0000
  H   H1        1.0  0.74416  0.25523  0.61163  1.0000
  H   H2        1.0  0.52110  0.25368  0.78167  1.0000
  H   H3        1.0  0.81426  0.52690  0.55891  1.0000
  H   H4        1.0  0.67823  0.51622  0.92794  1.0000
  H   H5        1.0  0.73832  0.00447  0.76271  1.0000
  H   H6        1.0  0.67090  0.84663  0.63034  1.0000
  H   H7        1.0  0.69515  0.94178  0.04857  1.0000
  H   H8        1.0  0.65072  0.73953  0.04663  1.0000
  H   H9        1.0  0.00127  0.83641  0.55560  1.0000
  H   H10       1.0  0.24169  0.98560  0.58297  1.0000
  H   H11       1.0  0.95462  0.85665  0.82360  1.0000
  H   H12       1.0  0.08941  0.83670  0.97087  1.0000
  H   H13       1.0  0.22516  0.75389  0.38088  1.0000
  H   H14       1.0  0.34779  0.51232  0.17891  1.0000
  H   H15       1.0  0.44554  0.74841  0.20401  1.0000
  H   H16       1.0  0.16067  0.48194  0.43393  1.0000
  H   H17       1.0  0.23639  0.00461  0.22444  1.0000
  H   H18       1.0  0.31005  0.16130  0.35841  1.0000
  H   H19       1.0  0.32176  0.30725  0.96042  1.0000
  H   H20       1.0  0.28370  0.10103  0.95027  1.0000
  H   H21       1.0  0.98312  0.15979  0.43583  1.0000
  H   H22       1.0  0.74261  0.00954  0.40853  1.0000
  H   H23       1.0  0.90253  0.18142  0.01565  1.0000
  H   H24       1.0  0.04004  0.15851  0.16478  1.0000
  C   C1        1.0  0.96641  0.34179  0.82130  1.0000
  C   C2        1.0  0.79495  0.37147  0.69659  1.0000
  C   C3        1.0  0.57222  0.37162  0.73662  1.0000
  C   C4        1.0  0.37274  0.35151  0.60657  1.0000
  C   C5        1.0  0.00012  0.66724  0.17153  1.0000
  C   C6        1.0  0.17630  0.63900  0.29511  1.0000
  C   C7        1.0  0.39489  0.63621  0.25437  1.0000
  C   C8        1.0  0.59661  0.65126  0.38019  1.0000
  O   O1        1.0  0.16730  0.45603  0.87909  1.0000
  O   O2        1.0  0.89005  0.19742  0.86090  1.0000
  O   O3        1.0  0.90042  0.53064  0.65810  1.0000
  O   O4        1.0  0.61508  0.52985  0.83162  1.0000
  O   O5        1.0  0.30757  0.48494  0.58695  1.0000
  O   O6        1.0  0.28427  0.19935  0.52359  1.0000
  O   O7        1.0  0.67250  0.87215  0.72759  1.0000
  O   O8        1.0  0.57000  0.82245  0.01432  1.0000
  O   O9        1.0  0.17277  0.86511  0.59825  1.0000
  O   O10       1.0  0.11504  0.87391  0.88527  1.0000
  O   O11       1.0  0.79836  0.54909  0.11677  1.0000
  O   O12       1.0  0.06663  0.81023  0.12952  1.0000
  O   O13       1.0  0.07298  0.47927  0.33478  1.0000
  O   O14       1.0  0.65440  0.51379  0.39898  1.0000
  O   O15       1.0  0.69931  0.80273  0.46404  1.0000
  O   O16       1.0  0.30979  0.13673  0.26103  1.0000
  O   O17       1.0  0.40008  0.22205  0.99409  1.0000
  O   O18       1.0  0.81153  0.13030  0.39250  1.0000
  O   O19       1.0  0.88250  0.15245  0.10580  1.0000
