data_image0
_chemical_formula_structural       Cd2H16C20Br4N4
_chemical_formula_sum              "Cd2 H16 C20 Br4 N4"
_cell_length_a       7.36943
_cell_length_b       9.61809
_cell_length_c       9.62567
_cell_angle_alpha    119.929
_cell_angle_beta     105.008
_cell_angle_gamma    90.0137

_space_group_name_H-M_alt    "P 1"
_space_group_IT_number       1

loop_
  _space_group_symop_operation_xyz
  'x, y, z'

loop_
  _atom_site_type_symbol
  _atom_site_label
  _atom_site_symmetry_multiplicity
  _atom_site_fract_x
  _atom_site_fract_y
  _atom_site_fract_z
  _atom_site_occupancy
  Cd  Cd1       1.0  0.75003  0.08508  0.99995  1.0000
  Cd  Cd2       1.0  0.24998  0.91492  0.00005  1.0000
  H   H1        1.0  0.07940  0.34604  0.33991  1.0000
  H   H2        1.0  0.42073  0.00615  0.65986  1.0000
  H   H3        1.0  0.92060  0.65396  0.66009  1.0000
  H   H4        1.0  0.57927  0.99385  0.34014  1.0000
  H   H5        1.0  0.20216  0.64759  0.51599  1.0000
  H   H6        1.0  0.29784  0.13168  0.48366  1.0000
  H   H7        1.0  0.79783  0.35241  0.48401  1.0000
  H   H8        1.0  0.70215  0.86833  0.51634  1.0000
  H   H9        1.0  0.83170  0.69540  0.12109  1.0000
  H   H10       1.0  0.66779  0.57427  0.87862  1.0000
  H   H11       1.0  0.16831  0.30460  0.87891  1.0000
  H   H12       1.0  0.33221  0.42573  0.12138  1.0000
  H   H13       1.0  0.06976  0.82221  0.39934  1.0000
  H   H14       1.0  0.42991  0.42290  0.60028  1.0000
  H   H15       1.0  0.93024  0.17779  0.60066  1.0000
  H   H16       1.0  0.57008  0.57710  0.39972  1.0000
  C   C1        1.0  0.82366  0.45225  0.08314  1.0000
  C   C2        1.0  0.67613  0.36903  0.91659  1.0000
  C   C3        1.0  0.17634  0.54774  0.91686  1.0000
  C   C4        1.0  0.32387  0.63098  0.08341  1.0000
  C   C5        1.0  0.02715  0.42913  0.29781  1.0000
  C   C6        1.0  0.47284  0.13132  0.70191  1.0000
  C   C7        1.0  0.97285  0.57086  0.70219  1.0000
  C   C8        1.0  0.52716  0.86868  0.29808  1.0000
  C   C9        1.0  0.09427  0.59525  0.39412  1.0000
  C   C10       1.0  0.40568  0.20117  0.60558  1.0000
  C   C11       1.0  0.90573  0.40476  0.60589  1.0000
  C   C12       1.0  0.59432  0.79883  0.39442  1.0000
  C   C13       1.0  0.88703  0.61974  0.17175  1.0000
  C   C14       1.0  0.61264  0.44794  0.82797  1.0000
  C   C15       1.0  0.11297  0.38027  0.82825  1.0000
  C   C16       1.0  0.38736  0.55206  0.17204  1.0000
  C   C17       1.0  0.02202  0.69156  0.32898  1.0000
  C   C18       1.0  0.47771  0.36259  0.67067  1.0000
  C   C19       1.0  0.97797  0.30843  0.67102  1.0000
  C   C20       1.0  0.52229  0.63741  0.32933  1.0000
  Br  Br1       1.0  0.50623  0.80157  0.79367  1.0000
  Br  Br2       1.0  0.99374  0.00777  0.20637  1.0000
  Br  Br3       1.0  0.49377  0.19843  0.20633  1.0000
  Br  Br4       1.0  0.00626  0.99222  0.79362  1.0000
  N   N1        1.0  0.89440  0.36020  0.14768  1.0000
  N   N2        1.0  0.60557  0.21247  0.85210  1.0000
  N   N3        1.0  0.10560  0.63980  0.85232  1.0000
  N   N4        1.0  0.39443  0.78753  0.14790  1.0000
