data_image0
_chemical_formula_structural       Ca3H6C18O12
_chemical_formula_sum              "Ca3 H6 C18 O12"
_cell_length_a       8.26654
_cell_length_b       8.26654
_cell_length_c       8.26653
_cell_angle_alpha    66.2868
_cell_angle_beta     66.2869
_cell_angle_gamma    66.2867

_space_group_name_H-M_alt    "P 1"
_space_group_IT_number       1

loop_
  _space_group_symop_operation_xyz
  'x, y, z'

loop_
  _atom_site_type_symbol
  _atom_site_label
  _atom_site_symmetry_multiplicity
  _atom_site_fract_x
  _atom_site_fract_y
  _atom_site_fract_z
  _atom_site_occupancy
  Ca  Ca1       1.0  0.32603  0.32603  0.32604  1.0000
  Ca  Ca2       1.0  0.67396  0.67397  0.67397  1.0000
  Ca  Ca3       1.0  0.50000  0.50000  0.50000  1.0000
  H   H1        1.0  0.63123  0.92586  0.18051  1.0000
  H   H2        1.0  0.18051  0.63123  0.92586  1.0000
  H   H3        1.0  0.92587  0.18051  0.63123  1.0000
  H   H4        1.0  0.36878  0.07414  0.81949  1.0000
  H   H5        1.0  0.81949  0.36877  0.07414  1.0000
  H   H6        1.0  0.07414  0.81949  0.36877  1.0000
  C   C1        1.0  0.75192  0.91738  0.06056  1.0000
  C   C2        1.0  0.06056  0.75192  0.91738  1.0000
  C   C3        1.0  0.91738  0.06056  0.75192  1.0000
  C   C4        1.0  0.24808  0.08262  0.93944  1.0000
  C   C5        1.0  0.93944  0.24807  0.08262  1.0000
  C   C6        1.0  0.08262  0.93943  0.24808  1.0000
  C   C7        1.0  0.90271  0.75908  0.06910  1.0000
  C   C8        1.0  0.06910  0.90271  0.75908  1.0000
  C   C9        1.0  0.75908  0.06910  0.90272  1.0000
  C   C10       1.0  0.09729  0.24092  0.93090  1.0000
  C   C11       1.0  0.93090  0.09728  0.24092  1.0000
  C   C12       1.0  0.24092  0.93090  0.09729  1.0000
  C   C13       1.0  0.90412  0.60803  0.24743  1.0000
  C   C14       1.0  0.24743  0.90412  0.60803  1.0000
  C   C15       1.0  0.60803  0.24743  0.90412  1.0000
  C   C16       1.0  0.09588  0.39197  0.75257  1.0000
  C   C17       1.0  0.75257  0.09588  0.39196  1.0000
  C   C18       1.0  0.39196  0.75257  0.09588  1.0000
  O   O1        1.0  0.05377  0.48611  0.26355  1.0000
  O   O2        1.0  0.26355  0.05377  0.48611  1.0000
  O   O3        1.0  0.48611  0.26355  0.05377  1.0000
  O   O4        1.0  0.94622  0.51389  0.73645  1.0000
  O   O5        1.0  0.73646  0.94623  0.51388  1.0000
  O   O6        1.0  0.51388  0.73645  0.94623  1.0000
  O   O7        1.0  0.75192  0.61450  0.37867  1.0000
  O   O8        1.0  0.37867  0.75192  0.61450  1.0000
  O   O9        1.0  0.61451  0.37867  0.75192  1.0000
  O   O10       1.0  0.24807  0.38550  0.62132  1.0000
  O   O11       1.0  0.62132  0.24807  0.38550  1.0000
  O   O12       1.0  0.38550  0.62132  0.24807  1.0000
