data_image0
_chemical_formula_structural       Cd2H32C50N4O12
_chemical_formula_sum              "Cd2 H32 C50 N4 O12"
_cell_length_a       10.1313
_cell_length_b       10.7111
_cell_length_c       11.6172
_cell_angle_alpha    75.9788
_cell_angle_beta     74.073
_cell_angle_gamma    61.867

_space_group_name_H-M_alt    "P 1"
_space_group_IT_number       1

loop_
  _space_group_symop_operation_xyz
  'x, y, z'

loop_
  _atom_site_type_symbol
  _atom_site_label
  _atom_site_symmetry_multiplicity
  _atom_site_fract_x
  _atom_site_fract_y
  _atom_site_fract_z
  _atom_site_occupancy
  Cd  Cd1       1.0  0.94896  0.04753  0.34883  1.0000
  Cd  Cd2       1.0  0.05105  0.95247  0.65117  1.0000
  H   H1        1.0  0.97334  0.65724  0.47136  1.0000
  H   H2        1.0  0.02666  0.34277  0.52864  1.0000
  H   H3        1.0  0.85335  0.53484  0.40587  1.0000
  H   H4        1.0  0.14665  0.46516  0.59413  1.0000
  H   H5        1.0  0.57123  0.61794  0.46110  1.0000
  H   H6        1.0  0.42877  0.38206  0.53890  1.0000
  H   H7        1.0  0.53053  0.94443  0.63894  1.0000
  H   H8        1.0  0.46947  0.05558  0.36106  1.0000
  H   H9        1.0  0.27943  0.78367  0.37272  1.0000
  H   H10       1.0  0.72057  0.21633  0.62728  1.0000
  H   H11       1.0  0.44980  0.54517  0.30419  1.0000
  H   H12       1.0  0.55021  0.45482  0.69581  1.0000
  H   H13       1.0  0.95384  0.85299  0.18229  1.0000
  H   H14       1.0  0.04616  0.14701  0.81771  1.0000
  H   H15       1.0  0.11138  0.61827  0.10395  1.0000
  H   H16       1.0  0.88862  0.38172  0.89605  1.0000
  H   H17       1.0  0.61164  0.40705  0.15600  1.0000
  H   H18       1.0  0.38836  0.59295  0.84400  1.0000
  H   H19       1.0  0.75338  0.15766  0.11851  1.0000
  H   H20       1.0  0.24662  0.84234  0.88149  1.0000
  H   H21       1.0  0.19491  0.38434  0.15199  1.0000
  H   H22       1.0  0.80509  0.61566  0.84800  1.0000
  H   H23       1.0  0.35486  0.13506  0.10935  1.0000
  H   H24       1.0  0.64514  0.86494  0.89065  1.0000
  H   H25       1.0  0.81984  0.02408  0.95403  1.0000
  H   H26       1.0  0.18017  0.97592  0.04597  1.0000
  H   H27       1.0  0.48228  0.92854  0.23130  1.0000
  H   H28       1.0  0.51772  0.07146  0.76870  1.0000
  H   H29       1.0  0.64108  0.66884  0.21169  1.0000
  H   H30       1.0  0.35892  0.33115  0.78831  1.0000
  H   H31       1.0  0.88269  0.58901  0.06304  1.0000
  H   H32       1.0  0.11731  0.41099  0.93696  1.0000
  C   C1        1.0  0.83005  0.87850  0.60499  1.0000
  C   C2        1.0  0.16995  0.12150  0.39501  1.0000
  C   C3        1.0  0.76035  0.80638  0.56182  1.0000
  C   C4        1.0  0.23965  0.19363  0.43818  1.0000
  C   C5        1.0  0.85055  0.69213  0.49425  1.0000
  C   C6        1.0  0.14945  0.30787  0.50575  1.0000
  C   C7        1.0  0.78313  0.62421  0.45787  1.0000
  C   C8        1.0  0.21687  0.37579  0.54213  1.0000
  C   C9        1.0  0.62556  0.67048  0.48795  1.0000
  C   C10       1.0  0.37443  0.32952  0.51205  1.0000
  C   C11       1.0  0.60274  0.85298  0.59017  1.0000
  C   C12       1.0  0.39726  0.14702  0.40983  1.0000
  C   C13       1.0  0.53418  0.78601  0.55407  1.0000
  C   C14       1.0  0.46581  0.21399  0.44593  1.0000
  C   C15       1.0  0.36468  0.83819  0.58730  1.0000
  C   C16       1.0  0.63532  0.16182  0.41271  1.0000
  C   C17       1.0  0.24804  0.74474  0.31069  1.0000
  C   C18       1.0  0.75196  0.25526  0.68931  1.0000
  C   C19       1.0  0.34298  0.61189  0.27166  1.0000
  C   C20       1.0  0.65702  0.38811  0.72834  1.0000
  C   C21       1.0  0.06541  0.78207  0.20573  1.0000
  C   C22       1.0  0.93459  0.21793  0.79427  1.0000
  C   C23       1.0  0.15309  0.65064  0.16322  1.0000
  C   C24       1.0  0.84691  0.34936  0.83678  1.0000
  C   C25       1.0  0.29545  0.56239  0.19660  1.0000
  C   C26       1.0  0.70455  0.43761  0.80340  1.0000
  C   C27       1.0  0.38835  0.41907  0.15929  1.0000
  C   C28       1.0  0.61165  0.58092  0.84071  1.0000
  C   C29       1.0  0.54805  0.35334  0.14539  1.0000
  C   C30       1.0  0.45195  0.64666  0.85461  1.0000
  C   C31       1.0  0.63046  0.21348  0.12241  1.0000
  C   C32       1.0  0.36954  0.78652  0.87759  1.0000
  C   C33       1.0  0.31806  0.34067  0.14246  1.0000
  C   C34       1.0  0.68194  0.65932  0.85754  1.0000
  C   C35       1.0  0.40440  0.20151  0.11877  1.0000
  C   C36       1.0  0.59561  0.79849  0.88123  1.0000
  C   C37       1.0  0.64409  0.98994  0.09553  1.0000
  C   C38       1.0  0.35592  0.01006  0.90447  1.0000
  C   C39       1.0  0.77964  0.94746  0.01154  1.0000
  C   C40       1.0  0.22037  0.05254  0.98846  1.0000
  C   C41       1.0  0.59007  0.89207  0.16702  1.0000
  C   C42       1.0  0.40993  0.10793  0.83297  1.0000
  C   C43       1.0  0.67881  0.74758  0.15500  1.0000
  C   C44       1.0  0.32119  0.25242  0.84500  1.0000
  C   C45       1.0  0.81580  0.70246  0.07178  1.0000
  C   C46       1.0  0.18420  0.29754  0.92822  1.0000
  C   C47       1.0  0.86558  0.80258  0.99829  1.0000
  C   C48       1.0  0.13442  0.19742  0.00171  1.0000
  C   C49       1.0  0.00983  0.75781  0.90260  1.0000
  C   C50       1.0  0.99017  0.24219  0.09740  1.0000
  N   N1        1.0  0.11178  0.82838  0.27789  1.0000
  N   N2        1.0  0.88822  0.17162  0.72211  1.0000
  N   N3        1.0  0.55783  0.13925  0.11065  1.0000
  N   N4        1.0  0.44217  0.86074  0.88935  1.0000
  O   O1        1.0  0.96024  0.87235  0.54254  1.0000
  O   O2        1.0  0.03976  0.12765  0.45746  1.0000
  O   O3        1.0  0.76404  0.93945  0.69825  1.0000
  O   O4        1.0  0.23596  0.06056  0.30175  1.0000
  O   O5        1.0  0.28814  0.94442  0.64783  1.0000
  O   O6        1.0  0.71186  0.05558  0.35217  1.0000
  O   O7        1.0  0.30280  0.77604  0.55523  1.0000
  O   O8        1.0  0.69720  0.22396  0.44476  1.0000
  O   O9        1.0  0.07885  0.63018  0.88338  1.0000
  O   O10       1.0  0.92115  0.36982  0.11662  1.0000
  O   O11       1.0  0.04996  0.85865  0.84995  1.0000
  O   O12       1.0  0.95004  0.14135  0.15005  1.0000
