data_image0
_chemical_formula_structural       Zn4H20C28N4O20
_chemical_formula_sum              "Zn4 H20 C28 N4 O20"
_cell_length_a       7.53725
_cell_length_b       8.57752
_cell_length_c       13.1672
_cell_angle_alpha    89.9998
_cell_angle_beta     90.0001
_cell_angle_gamma    110.477

_space_group_name_H-M_alt    "P 1"
_space_group_IT_number       1

loop_
  _space_group_symop_operation_xyz
  'x, y, z'

loop_
  _atom_site_type_symbol
  _atom_site_label
  _atom_site_symmetry_multiplicity
  _atom_site_fract_x
  _atom_site_fract_y
  _atom_site_fract_z
  _atom_site_occupancy
  Zn  Zn1       1.0  0.91317  0.00739  0.20401  1.0000
  Zn  Zn2       1.0  0.58683  0.49261  0.70401  1.0000
  Zn  Zn3       1.0  0.08683  0.99261  0.79599  1.0000
  Zn  Zn4       1.0  0.41317  0.50739  0.29599  1.0000
  H   H1        1.0  0.80243  0.97398  0.01025  1.0000
  H   H2        1.0  0.69757  0.52602  0.51025  1.0000
  H   H3        1.0  0.19757  0.02602  0.98975  1.0000
  H   H4        1.0  0.30243  0.47398  0.48975  1.0000
  H   H5        1.0  0.62584  0.94917  0.08671  1.0000
  H   H6        1.0  0.87416  0.55083  0.58671  1.0000
  H   H7        1.0  0.37416  0.05083  0.91329  1.0000
  H   H8        1.0  0.12584  0.44917  0.41329  1.0000
  H   H9        1.0  0.41218  0.82139  0.48778  1.0000
  H   H10       1.0  0.08781  0.67861  0.98779  1.0000
  H   H11       1.0  0.58782  0.17861  0.51221  1.0000
  H   H12       1.0  0.91218  0.32139  0.01222  1.0000
  H   H13       1.0  0.09752  0.81425  0.54951  1.0000
  H   H14       1.0  0.40248  0.68575  0.04951  1.0000
  H   H15       1.0  0.90249  0.18575  0.45049  1.0000
  H   H16       1.0  0.59752  0.31425  0.95049  1.0000
  H   H17       1.0  0.87328  0.87155  0.42561  1.0000
  H   H18       1.0  0.62672  0.62845  0.92561  1.0000
  H   H19       1.0  0.12672  0.12845  0.57439  1.0000
  H   H20       1.0  0.37328  0.37155  0.07439  1.0000
  C   C1        1.0  0.55349  0.88824  0.29708  1.0000
  C   C2        1.0  0.94651  0.61175  0.79708  1.0000
  C   C3        1.0  0.44651  0.11176  0.70292  1.0000
  C   C4        1.0  0.05349  0.38825  0.20292  1.0000
  C   C5        1.0  0.36301  0.88577  0.33380  1.0000
  C   C6        1.0  0.13699  0.61423  0.83380  1.0000
  C   C7        1.0  0.63699  0.11423  0.66620  1.0000
  C   C8        1.0  0.86301  0.38577  0.16620  1.0000
  C   C9        1.0  0.31412  0.84870  0.43591  1.0000
  C   C10       1.0  0.18588  0.65129  0.93591  1.0000
  C   C11       1.0  0.68588  0.15130  0.56409  1.0000
  C   C12       1.0  0.81412  0.34870  0.06409  1.0000
  C   C13       1.0  0.13814  0.84408  0.47074  1.0000
  C   C14       1.0  0.36187  0.65592  0.97074  1.0000
  C   C15       1.0  0.86187  0.15592  0.52926  1.0000
  C   C16       1.0  0.63813  0.34408  0.02926  1.0000
  C   C17       1.0  0.22974  0.91604  0.26999  1.0000
  C   C18       1.0  0.27026  0.58396  0.76999  1.0000
  C   C19       1.0  0.77026  0.08396  0.73001  1.0000
  C   C20       1.0  0.72974  0.41604  0.23001  1.0000
  C   C21       1.0  0.26369  0.94908  0.15776  1.0000
  C   C22       1.0  0.23630  0.55092  0.65775  1.0000
  C   C23       1.0  0.73630  0.05092  0.84224  1.0000
  C   C24       1.0  0.76370  0.44908  0.34225  1.0000
  C   C25       1.0  0.01368  0.87579  0.40260  1.0000
  C   C26       1.0  0.48632  0.62421  0.90260  1.0000
  C   C27       1.0  0.98632  0.12421  0.59740  1.0000
  C   C28       1.0  0.51368  0.37579  0.09740  1.0000
  N   N1        1.0  0.05988  0.91196  0.30494  1.0000
  N   N2        1.0  0.44012  0.58804  0.80494  1.0000
  N   N3        1.0  0.94012  0.08804  0.69506  1.0000
  N   N4        1.0  0.55988  0.41196  0.19506  1.0000
  O   O1        1.0  0.68755  0.02781  0.29074  1.0000
  O   O2        1.0  0.81244  0.47219  0.79074  1.0000
  O   O3        1.0  0.31245  0.97219  0.70926  1.0000
  O   O4        1.0  0.18755  0.52781  0.20926  1.0000
  O   O5        1.0  0.75139  0.93683  0.08033  1.0000
  O   O6        1.0  0.74861  0.56317  0.58033  1.0000
  O   O7        1.0  0.24861  0.06317  0.91967  1.0000
  O   O8        1.0  0.25138  0.43683  0.41967  1.0000
  O   O9        1.0  0.57737  0.75082  0.28065  1.0000
  O   O10       1.0  0.92263  0.74918  0.78064  1.0000
  O   O11       1.0  0.42263  0.24918  0.71936  1.0000
  O   O12       1.0  0.07737  0.25082  0.21936  1.0000
  O   O13       1.0  0.13120  0.97738  0.10804  1.0000
  O   O14       1.0  0.36881  0.52263  0.60804  1.0000
  O   O15       1.0  0.86881  0.02262  0.89196  1.0000
  O   O16       1.0  0.63119  0.47738  0.39196  1.0000
  O   O17       1.0  0.41343  0.94479  0.11968  1.0000
  O   O18       1.0  0.08657  0.55520  0.61968  1.0000
  O   O19       1.0  0.58657  0.05521  0.88032  1.0000
  O   O20       1.0  0.91343  0.44479  0.38032  1.0000
