data_image0
_chemical_formula_structural       Cd4H12C28N4O16
_chemical_formula_sum              "Cd4 H12 C28 N4 O16"
_cell_length_a       7.9197
_cell_length_b       8.73534
_cell_length_c       10.7875
_cell_angle_alpha    112.788
_cell_angle_beta     89.9994
_cell_angle_gamma    90.0009

_space_group_name_H-M_alt    "P 1"
_space_group_IT_number       1

loop_
  _space_group_symop_operation_xyz
  'x, y, z'

loop_
  _atom_site_type_symbol
  _atom_site_label
  _atom_site_symmetry_multiplicity
  _atom_site_fract_x
  _atom_site_fract_y
  _atom_site_fract_z
  _atom_site_occupancy
  Cd  Cd1       1.0  0.13410  0.03467  0.36144  1.0000
  Cd  Cd2       1.0  0.63410  0.46533  0.63856  1.0000
  Cd  Cd3       1.0  0.86590  0.96532  0.63856  1.0000
  Cd  Cd4       1.0  0.36590  0.53468  0.36144  1.0000
  H   H1        1.0  0.56886  0.16639  0.02293  1.0000
  H   H2        1.0  0.06885  0.33360  0.97707  1.0000
  H   H3        1.0  0.43114  0.83361  0.97707  1.0000
  H   H4        1.0  0.93115  0.66639  0.02293  1.0000
  H   H5        1.0  0.86693  0.19066  0.96343  1.0000
  H   H6        1.0  0.36692  0.30934  0.03657  1.0000
  H   H7        1.0  0.13308  0.80933  0.03657  1.0000
  H   H8        1.0  0.63308  0.69066  0.96343  1.0000
  H   H9        1.0  0.09712  0.16540  0.12042  1.0000
  H   H10       1.0  0.59710  0.33461  0.87958  1.0000
  H   H11       1.0  0.90289  0.83460  0.87958  1.0000
  H   H12       1.0  0.40289  0.66540  0.12042  1.0000
  C   C1        1.0  0.74018  0.09789  0.41644  1.0000
  C   C2        1.0  0.24016  0.40211  0.58355  1.0000
  C   C3        1.0  0.25982  0.90211  0.58356  1.0000
  C   C4        1.0  0.75982  0.59788  0.41644  1.0000
  C   C5        1.0  0.76485  0.11463  0.28299  1.0000
  C   C6        1.0  0.26484  0.38537  0.71701  1.0000
  C   C7        1.0  0.23515  0.88537  0.71700  1.0000
  C   C8        1.0  0.73515  0.61464  0.28299  1.0000
  C   C9        1.0  0.63055  0.13535  0.20625  1.0000
  C   C10       1.0  0.13055  0.36465  0.79375  1.0000
  C   C11       1.0  0.36944  0.86465  0.79375  1.0000
  C   C12       1.0  0.86945  0.63535  0.20625  1.0000
  C   C13       1.0  0.44690  0.13357  0.24184  1.0000
  C   C14       1.0  0.94690  0.36643  0.75817  1.0000
  C   C15       1.0  0.55310  0.86643  0.75816  1.0000
  C   C16       1.0  0.05310  0.63358  0.24183  1.0000
  C   C17       1.0  0.67001  0.15797  0.08813  1.0000
  C   C18       1.0  0.17000  0.34203  0.91187  1.0000
  C   C19       1.0  0.32999  0.84203  0.91187  1.0000
  C   C20       1.0  0.83000  0.65797  0.08813  1.0000
  C   C21       1.0  0.83699  0.17010  0.05440  1.0000
  C   C22       1.0  0.33698  0.32989  0.94560  1.0000
  C   C23       1.0  0.16301  0.82989  0.94560  1.0000
  C   C24       1.0  0.66302  0.67011  0.05440  1.0000
  C   C25       1.0  0.96324  0.15277  0.13795  1.0000
  C   C26       1.0  0.46323  0.34723  0.86205  1.0000
  C   C27       1.0  0.03676  0.84722  0.86205  1.0000
  C   C28       1.0  0.53677  0.65277  0.13795  1.0000
  N   N1        1.0  0.92711  0.11848  0.24588  1.0000
  N   N2        1.0  0.42711  0.38152  0.75412  1.0000
  N   N3        1.0  0.07288  0.88152  0.75412  1.0000
  N   N4        1.0  0.57289  0.61848  0.24588  1.0000
  O   O1        1.0  0.62681  0.18092  0.49432  1.0000
  O   O2        1.0  0.12681  0.31908  0.50569  1.0000
  O   O3        1.0  0.37319  0.81908  0.50568  1.0000
  O   O4        1.0  0.87320  0.68093  0.49432  1.0000
  O   O5        1.0  0.84507  0.00002  0.43954  1.0000
  O   O6        1.0  0.34506  0.49998  0.56046  1.0000
  O   O7        1.0  0.15494  0.99998  0.56047  1.0000
  O   O8        1.0  0.65494  0.50002  0.43954  1.0000
  O   O9        1.0  0.39443  0.01334  0.26965  1.0000
  O   O10       1.0  0.89443  0.48667  0.73035  1.0000
  O   O11       1.0  0.60557  0.98667  0.73035  1.0000
  O   O12       1.0  0.10557  0.51333  0.26964  1.0000
  O   O13       1.0  0.35438  0.24786  0.23294  1.0000
  O   O14       1.0  0.85437  0.25214  0.76707  1.0000
  O   O15       1.0  0.64562  0.75215  0.76706  1.0000
  O   O16       1.0  0.14563  0.74786  0.23293  1.0000
