data_image0
_chemical_formula_structural       Zn4H24C28N4O22
_chemical_formula_sum              "Zn4 H24 C28 N4 O22"
_cell_length_a       7.78424
_cell_length_b       8.01266
_cell_length_c       14.2267
_cell_angle_alpha    91.7848
_cell_angle_beta     97.9123
_cell_angle_gamma    113.026

_space_group_name_H-M_alt    "P 1"
_space_group_IT_number       1

loop_
  _space_group_symop_operation_xyz
  'x, y, z'

loop_
  _atom_site_type_symbol
  _atom_site_label
  _atom_site_symmetry_multiplicity
  _atom_site_fract_x
  _atom_site_fract_y
  _atom_site_fract_z
  _atom_site_occupancy
  Zn  Zn1       1.0  0.93865  0.05686  0.79270  1.0000
  Zn  Zn2       1.0  0.06135  0.94315  0.20730  1.0000
  Zn  Zn3       1.0  0.52951  0.17236  0.28965  1.0000
  Zn  Zn4       1.0  0.47049  0.82764  0.71035  1.0000
  H   H1        1.0  0.12421  0.97971  0.65819  1.0000
  H   H2        1.0  0.87579  0.02029  0.34181  1.0000
  H   H3        1.0  0.98648  0.07773  0.61472  1.0000
  H   H4        1.0  0.01352  0.92227  0.38528  1.0000
  H   H5        1.0  0.84014  0.50611  0.28009  1.0000
  H   H6        1.0  0.15986  0.49389  0.71991  1.0000
  H   H7        1.0  0.62950  0.48894  0.22642  1.0000
  H   H8        1.0  0.37050  0.51106  0.77358  1.0000
  H   H9        1.0  0.49550  0.09016  0.10574  1.0000
  H   H10       1.0  0.50451  0.90984  0.89426  1.0000
  H   H11       1.0  0.64636  0.00967  0.15332  1.0000
  H   H12       1.0  0.35364  0.99033  0.84668  1.0000
  H   H13       1.0  0.70186  0.23652  0.88354  1.0000
  H   H14       1.0  0.29814  0.76349  0.11646  1.0000
  H   H15       1.0  0.70983  0.36278  0.04749  1.0000
  H   H16       1.0  0.29017  0.63722  0.95251  1.0000
  H   H17       1.0  0.98621  0.40110  0.17484  1.0000
  H   H18       1.0  0.01379  0.59890  0.82516  1.0000
  H   H19       1.0  0.24177  0.27482  0.39033  1.0000
  H   H20       1.0  0.75823  0.72518  0.60967  1.0000
  H   H21       1.0  0.22194  0.34759  0.56048  1.0000
  H   H22       1.0  0.77807  0.65241  0.43952  1.0000
  H   H23       1.0  0.47067  0.33871  0.68936  1.0000
  H   H24       1.0  0.52934  0.66130  0.31064  1.0000
  C   C1        1.0  0.81751  0.25437  0.94072  1.0000
  C   C2        1.0  0.18248  0.74563  0.05928  1.0000
  C   C3        1.0  0.82403  0.32518  0.03255  1.0000
  C   C4        1.0  0.17597  0.67483  0.96744  1.0000
  C   C5        1.0  0.97569  0.34510  0.10244  1.0000
  C   C6        1.0  0.02431  0.65490  0.89756  1.0000
  C   C7        1.0  0.11931  0.29506  0.07898  1.0000
  C   C8        1.0  0.88069  0.70494  0.92102  1.0000
  C   C9        1.0  0.10058  0.22009  0.98622  1.0000
  C   C10       1.0  0.89943  0.77991  0.01378  1.0000
  C   C11       1.0  0.24020  0.14997  0.95541  1.0000
  C   C12       1.0  0.75981  0.85004  0.04459  1.0000
  C   C13       1.0  0.28967  0.32840  0.15308  1.0000
  C   C14       1.0  0.71033  0.67160  0.84692  1.0000
  C   C15       1.0  0.34701  0.27346  0.44894  1.0000
  C   C16       1.0  0.65299  0.72654  0.55106  1.0000
  C   C17       1.0  0.33718  0.31411  0.54344  1.0000
  C   C18       1.0  0.66282  0.68589  0.45656  1.0000
  C   C19       1.0  0.47554  0.30901  0.61480  1.0000
  C   C20       1.0  0.52447  0.69099  0.38520  1.0000
  C   C21       1.0  0.62234  0.26506  0.59089  1.0000
  C   C22       1.0  0.37766  0.73494  0.40911  1.0000
  C   C23       1.0  0.62136  0.22370  0.49438  1.0000
  C   C24       1.0  0.37864  0.77630  0.50562  1.0000
  C   C25       1.0  0.76654  0.16447  0.46075  1.0000
  C   C26       1.0  0.23346  0.83553  0.53925  1.0000
  C   C27       1.0  0.77247  0.26378  0.66972  1.0000
  C   C28       1.0  0.22753  0.73622  0.33028  1.0000
  N   N1        1.0  0.95142  0.20054  0.91923  1.0000
  N   N2        1.0  0.04858  0.79946  0.08077  1.0000
  N   N3        1.0  0.48555  0.22878  0.42580  1.0000
  N   N4        1.0  0.51444  0.77122  0.57419  1.0000
  O   O1        1.0  0.19897  0.07452  0.86924  1.0000
  O   O2        1.0  0.80103  0.92548  0.13076  1.0000
  O   O3        1.0  0.04962  0.05178  0.67441  1.0000
  O   O4        1.0  0.95038  0.94821  0.32559  1.0000
  O   O5        1.0  0.38236  0.16607  0.01371  1.0000
  O   O6        1.0  0.61765  0.83393  0.98629  1.0000
  O   O7        1.0  0.70085  0.44328  0.27491  1.0000
  O   O8        1.0  0.29915  0.55672  0.72509  1.0000
  O   O9        1.0  0.54842  0.05640  0.16570  1.0000
  O   O10       1.0  0.45158  0.94360  0.83430  1.0000
  O   O11       1.0  0.27724  0.20144  0.21033  1.0000
  O   O12       1.0  0.72276  0.79856  0.78967  1.0000
  O   O13       1.0  0.42594  0.47878  0.15888  1.0000
  O   O14       1.0  0.57405  0.52122  0.84112  1.0000
  O   O15       1.0  0.74661  0.12504  0.37004  1.0000
  O   O16       1.0  0.25339  0.87495  0.62996  1.0000
  O   O17       1.0  0.89455  0.15437  0.52043  1.0000
  O   O18       1.0  0.10545  0.84563  0.47957  1.0000
  O   O19       1.0  0.73158  0.11458  0.71072  1.0000
  O   O20       1.0  0.26842  0.88541  0.28928  1.0000
  O   O21       1.0  0.91723  0.40730  0.69400  1.0000
  O   O22       1.0  0.08277  0.59270  0.30600  1.0000
