data_image0
_chemical_formula_structural       Cd4H12C28N4O16
_chemical_formula_sum              "Cd4 H12 C28 N4 O16"
_cell_length_a       7.86565
_cell_length_b       8.811
_cell_length_c       10.1453
_cell_angle_alpha    89.3352
_cell_angle_beta     89.9996
_cell_angle_gamma    90.0003

_space_group_name_H-M_alt    "P 1"
_space_group_IT_number       1

loop_
  _space_group_symop_operation_xyz
  'x, y, z'

loop_
  _atom_site_type_symbol
  _atom_site_label
  _atom_site_symmetry_multiplicity
  _atom_site_fract_x
  _atom_site_fract_y
  _atom_site_fract_z
  _atom_site_occupancy
  Cd  Cd1       1.0  0.13731  0.40399  0.36379  1.0000
  Cd  Cd2       1.0  0.63731  0.09602  0.63621  1.0000
  Cd  Cd3       1.0  0.86269  0.59601  0.63621  1.0000
  Cd  Cd4       1.0  0.36269  0.90399  0.36379  1.0000
  H   H1        1.0  0.87392  0.05996  0.97595  1.0000
  H   H2        1.0  0.37393  0.44003  0.02405  1.0000
  H   H3        1.0  0.12608  0.94004  0.02406  1.0000
  H   H4        1.0  0.62608  0.55996  0.97595  1.0000
  H   H5        1.0  0.10232  0.17480  0.12101  1.0000
  H   H6        1.0  0.60233  0.32520  0.87899  1.0000
  H   H7        1.0  0.89768  0.82520  0.87899  1.0000
  H   H8        1.0  0.39767  0.67480  0.12101  1.0000
  H   H9        1.0  0.57035  0.09012  0.04523  1.0000
  H   H10       1.0  0.07036  0.40988  0.95477  1.0000
  H   H11       1.0  0.42965  0.90988  0.95477  1.0000
  H   H12       1.0  0.92964  0.59012  0.04523  1.0000
  C   C1        1.0  0.63276  0.22153  0.21534  1.0000
  C   C2        1.0  0.13277  0.27848  0.78465  1.0000
  C   C3        1.0  0.36724  0.77848  0.78466  1.0000
  C   C4        1.0  0.86723  0.72152  0.21535  1.0000
  C   C5        1.0  0.84151  0.12188  0.06466  1.0000
  C   C6        1.0  0.34152  0.37812  0.93534  1.0000
  C   C7        1.0  0.15848  0.87812  0.93534  1.0000
  C   C8        1.0  0.65848  0.62188  0.06466  1.0000
  C   C9        1.0  0.76691  0.28437  0.28771  1.0000
  C   C10       1.0  0.26691  0.21563  0.71228  1.0000
  C   C11       1.0  0.23309  0.71564  0.71229  1.0000
  C   C12       1.0  0.73309  0.78437  0.28772  1.0000
  C   C13       1.0  0.96723  0.18785  0.14175  1.0000
  C   C14       1.0  0.46724  0.31214  0.85826  1.0000
  C   C15       1.0  0.03276  0.81215  0.85826  1.0000
  C   C16       1.0  0.53276  0.68785  0.14174  1.0000
  C   C17       1.0  0.67308  0.13934  0.10259  1.0000
  C   C18       1.0  0.17309  0.36066  0.89741  1.0000
  C   C19       1.0  0.32692  0.86066  0.89741  1.0000
  C   C20       1.0  0.82692  0.63934  0.10259  1.0000
  C   C21       1.0  0.44774  0.24167  0.24867  1.0000
  C   C22       1.0  0.94775  0.25833  0.75132  1.0000
  C   C23       1.0  0.55225  0.75833  0.75133  1.0000
  C   C24       1.0  0.05225  0.74167  0.24868  1.0000
  C   C25       1.0  0.74099  0.36247  0.41869  1.0000
  C   C26       1.0  0.24100  0.13753  0.58131  1.0000
  C   C27       1.0  0.25901  0.63754  0.58131  1.0000
  C   C28       1.0  0.75900  0.86247  0.41869  1.0000
  N   N1        1.0  0.92990  0.26932  0.24877  1.0000
  N   N2        1.0  0.42991  0.23068  0.75122  1.0000
  N   N3        1.0  0.07009  0.73068  0.75123  1.0000
  N   N4        1.0  0.57009  0.76932  0.24878  1.0000
  O   O1        1.0  0.39874  0.37521  0.27555  1.0000
  O   O2        1.0  0.89874  0.12479  0.72445  1.0000
  O   O3        1.0  0.60126  0.62480  0.72445  1.0000
  O   O4        1.0  0.10126  0.87520  0.27555  1.0000
  O   O5        1.0  0.62916  0.31379  0.49600  1.0000
  O   O6        1.0  0.12915  0.18622  0.50399  1.0000
  O   O7        1.0  0.37084  0.68622  0.50400  1.0000
  O   O8        1.0  0.87084  0.81378  0.49601  1.0000
  O   O9        1.0  0.84394  0.47242  0.44031  1.0000
  O   O10       1.0  0.34394  0.02758  0.55968  1.0000
  O   O11       1.0  0.15605  0.52759  0.55969  1.0000
  O   O12       1.0  0.65606  0.97241  0.44031  1.0000
  O   O13       1.0  0.35131  0.12688  0.23835  1.0000
  O   O14       1.0  0.85131  0.37312  0.76165  1.0000
  O   O15       1.0  0.64869  0.87312  0.76165  1.0000
  O   O16       1.0  0.14869  0.62687  0.23835  1.0000
