data_image0
_chemical_formula_structural       H16Pb4C28S4N8O12
_chemical_formula_sum              "H16 Pb4 C28 S4 N8 O12"
_cell_length_a       7.28863
_cell_length_b       9.30853
_cell_length_c       13.9595
_cell_angle_alpha    89.9996
_cell_angle_beta     90
_cell_angle_gamma    108.358

_space_group_name_H-M_alt    "P 1"
_space_group_IT_number       1

loop_
  _space_group_symop_operation_xyz
  'x, y, z'

loop_
  _atom_site_type_symbol
  _atom_site_label
  _atom_site_symmetry_multiplicity
  _atom_site_fract_x
  _atom_site_fract_y
  _atom_site_fract_z
  _atom_site_occupancy
  H   H1        1.0  0.89309  0.59091  0.02884  1.0000
  H   H2        1.0  0.60692  0.40909  0.52885  1.0000
  H   H3        1.0  0.10692  0.40909  0.97116  1.0000
  H   H4        1.0  0.39308  0.59091  0.47116  1.0000
  H   H5        1.0  0.89513  0.81145  0.92358  1.0000
  H   H6        1.0  0.60486  0.18856  0.42358  1.0000
  H   H7        1.0  0.10486  0.18855  0.07642  1.0000
  H   H8        1.0  0.39514  0.81144  0.57642  1.0000
  H   H9        1.0  0.46921  0.53833  0.74765  1.0000
  H   H10       1.0  0.03078  0.46167  0.24765  1.0000
  H   H11       1.0  0.53078  0.46167  0.25235  1.0000
  H   H12       1.0  0.96921  0.53833  0.75235  1.0000
  H   H13       1.0  0.44583  0.30660  0.84730  1.0000
  H   H14       1.0  0.05415  0.69340  0.34730  1.0000
  H   H15       1.0  0.55416  0.69340  0.15270  1.0000
  H   H16       1.0  0.94583  0.30660  0.65270  1.0000
  Pb  Pb1       1.0  0.57285  0.04782  0.15142  1.0000
  Pb  Pb2       1.0  0.92716  0.95218  0.65142  1.0000
  Pb  Pb3       1.0  0.42717  0.95219  0.84858  1.0000
  Pb  Pb4       1.0  0.07285  0.04783  0.34857  1.0000
  C   C1        1.0  0.65060  0.29892  0.01186  1.0000
  C   C2        1.0  0.84940  0.70108  0.51186  1.0000
  C   C3        1.0  0.34940  0.70108  0.98814  1.0000
  C   C4        1.0  0.15059  0.29892  0.48814  1.0000
  C   C5        1.0  0.66809  0.43008  0.94643  1.0000
  C   C6        1.0  0.83191  0.56993  0.44643  1.0000
  C   C7        1.0  0.33191  0.56993  0.05357  1.0000
  C   C8        1.0  0.16809  0.43008  0.55356  1.0000
  C   C9        1.0  0.79742  0.57325  0.96705  1.0000
  C   C10       1.0  0.70257  0.42676  0.46706  1.0000
  C   C11       1.0  0.20257  0.42675  0.03294  1.0000
  C   C12       1.0  0.29743  0.57325  0.53295  1.0000
  C   C13       1.0  0.80077  0.69656  0.91121  1.0000
  C   C14       1.0  0.69923  0.30344  0.41121  1.0000
  C   C15       1.0  0.19923  0.30344  0.08879  1.0000
  C   C16       1.0  0.30077  0.69656  0.58879  1.0000
  C   C17       1.0  0.55688  0.54031  0.81076  1.0000
  C   C18       1.0  0.94311  0.45969  0.31076  1.0000
  C   C19       1.0  0.44312  0.45969  0.18924  1.0000
  C   C20       1.0  0.05687  0.54031  0.68924  1.0000
  C   C21       1.0  0.54861  0.41552  0.86619  1.0000
  C   C22       1.0  0.95138  0.58448  0.36618  1.0000
  C   C23       1.0  0.45138  0.58448  0.13381  1.0000
  C   C24       1.0  0.04861  0.41552  0.63381  1.0000
  C   C25       1.0  0.95836  0.90286  0.12941  1.0000
  C   C26       1.0  0.54165  0.09715  0.62941  1.0000
  C   C27       1.0  0.04165  0.09714  0.87059  1.0000
  C   C28       1.0  0.45835  0.90286  0.37059  1.0000
  S   S1        1.0  0.09160  0.80227  0.16374  1.0000
  S   S2        1.0  0.40843  0.19773  0.66375  1.0000
  S   S3        1.0  0.90842  0.19772  0.83625  1.0000
  S   S4        1.0  0.59158  0.80227  0.33625  1.0000
  N   N1        1.0  0.67841  0.67968  0.83512  1.0000
  N   N2        1.0  0.82159  0.32032  0.33513  1.0000
  N   N3        1.0  0.32159  0.32032  0.16487  1.0000
  N   N4        1.0  0.17841  0.67968  0.66487  1.0000
  N   N5        1.0  0.86377  0.97984  0.10492  1.0000
  N   N6        1.0  0.63626  0.02016  0.60492  1.0000
  N   N7        1.0  0.13625  0.02015  0.89508  1.0000
  N   N8        1.0  0.36375  0.97984  0.39507  1.0000
  O   O1        1.0  0.74527  0.32220  0.08971  1.0000
  O   O2        1.0  0.75472  0.67781  0.58971  1.0000
  O   O3        1.0  0.25472  0.67781  0.91029  1.0000
  O   O4        1.0  0.24527  0.32219  0.41029  1.0000
  O   O5        1.0  0.53280  0.16856  0.98943  1.0000
  O   O6        1.0  0.96718  0.83144  0.48942  1.0000
  O   O7        1.0  0.46720  0.83144  0.01057  1.0000
  O   O8        1.0  0.03280  0.16856  0.51058  1.0000
  O   O9        1.0  0.67204  0.80003  0.78652  1.0000
  O   O10       1.0  0.82795  0.19997  0.28652  1.0000
  O   O11       1.0  0.32795  0.19997  0.21348  1.0000
  O   O12       1.0  0.17205  0.80003  0.71348  1.0000
