data_image0
_chemical_formula_structural       Tl8H24C28N16O8
_chemical_formula_sum              "Tl8 H24 C28 N16 O8"
_cell_length_a       8.28593
_cell_length_b       9.67488
_cell_length_c       13.3471
_cell_angle_alpha    89.9997
_cell_angle_beta     90.0002
_cell_angle_gamma    103.445

_space_group_name_H-M_alt    "P 1"
_space_group_IT_number       1

loop_
  _space_group_symop_operation_xyz
  'x, y, z'

loop_
  _atom_site_type_symbol
  _atom_site_label
  _atom_site_symmetry_multiplicity
  _atom_site_fract_x
  _atom_site_fract_y
  _atom_site_fract_z
  _atom_site_occupancy
  Tl  Tl1       1.0  0.79462  0.58217  0.04519  1.0000
  Tl  Tl2       1.0  0.20538  0.91783  0.54519  1.0000
  Tl  Tl3       1.0  0.20539  0.41783  0.95481  1.0000
  Tl  Tl4       1.0  0.79462  0.08217  0.45481  1.0000
  Tl  Tl5       1.0  0.90027  0.50472  0.70998  1.0000
  Tl  Tl6       1.0  0.09973  0.99528  0.20998  1.0000
  Tl  Tl7       1.0  0.09973  0.49529  0.29002  1.0000
  Tl  Tl8       1.0  0.90027  0.00472  0.79002  1.0000
  H   H1        1.0  0.02803  0.84517  0.00396  1.0000
  H   H2        1.0  0.97197  0.65483  0.50395  1.0000
  H   H3        1.0  0.97197  0.15483  0.99604  1.0000
  H   H4        1.0  0.02803  0.34518  0.49605  1.0000
  H   H5        1.0  0.24336  0.06843  0.00074  1.0000
  H   H6        1.0  0.75664  0.43157  0.50074  1.0000
  H   H7        1.0  0.75665  0.93157  0.99925  1.0000
  H   H8        1.0  0.24336  0.56843  0.49926  1.0000
  H   H9        1.0  0.48024  0.91271  0.75169  1.0000
  H   H10       1.0  0.51975  0.58729  0.25169  1.0000
  H   H11       1.0  0.51977  0.08729  0.24831  1.0000
  H   H12       1.0  0.48024  0.41271  0.74831  1.0000
  H   H13       1.0  0.26929  0.68607  0.75724  1.0000
  H   H14       1.0  0.73071  0.81393  0.25724  1.0000
  H   H15       1.0  0.73072  0.31392  0.24276  1.0000
  H   H16       1.0  0.26929  0.18608  0.74277  1.0000
  H   H17       1.0  0.58824  0.74832  0.93351  1.0000
  H   H18       1.0  0.41176  0.75168  0.43351  1.0000
  H   H19       1.0  0.41176  0.25168  0.06650  1.0000
  H   H20       1.0  0.58824  0.24832  0.56649  1.0000
  H   H21       1.0  0.64425  0.69831  0.82511  1.0000
  H   H22       1.0  0.35575  0.80170  0.32511  1.0000
  H   H23       1.0  0.35575  0.30169  0.17489  1.0000
  H   H24       1.0  0.64425  0.19831  0.67489  1.0000
  C   C1        1.0  0.13230  0.74429  0.88286  1.0000
  C   C2        1.0  0.86770  0.75570  0.38286  1.0000
  C   C3        1.0  0.86770  0.25570  0.11714  1.0000
  C   C4        1.0  0.13230  0.24430  0.61714  1.0000
  C   C5        1.0  0.12766  0.85921  0.94872  1.0000
  C   C6        1.0  0.87234  0.64079  0.44872  1.0000
  C   C7        1.0  0.87234  0.14079  0.05127  1.0000
  C   C8        1.0  0.12766  0.35921  0.55128  1.0000
  C   C9        1.0  0.24847  0.98518  0.94663  1.0000
  C   C10       1.0  0.75153  0.51481  0.44663  1.0000
  C   C11       1.0  0.75154  0.01481  0.05337  1.0000
  C   C12       1.0  0.24847  0.48519  0.55337  1.0000
  C   C13       1.0  0.37931  0.00723  0.87679  1.0000
  C   C14       1.0  0.62069  0.49277  0.37679  1.0000
  C   C15       1.0  0.62070  0.99277  0.12321  1.0000
  C   C16       1.0  0.37930  0.50724  0.62321  1.0000
  C   C17       1.0  0.38095  0.89825  0.80714  1.0000
  C   C18       1.0  0.61905  0.60175  0.30714  1.0000
  C   C19       1.0  0.61906  0.10175  0.19286  1.0000
  C   C20       1.0  0.38095  0.39825  0.69286  1.0000
  C   C21       1.0  0.26143  0.77083  0.80972  1.0000
  C   C22       1.0  0.73856  0.72917  0.30972  1.0000
  C   C23       1.0  0.73857  0.22917  0.19027  1.0000
  C   C24       1.0  0.26143  0.27084  0.69028  1.0000
  C   C25       1.0  0.50958  0.13701  0.87964  1.0000
  C   C26       1.0  0.49041  0.36299  0.37964  1.0000
  C   C27       1.0  0.49042  0.86299  0.12036  1.0000
  C   C28       1.0  0.50958  0.63702  0.62036  1.0000
  N   N1        1.0  0.52371  0.23949  0.95063  1.0000
  N   N2        1.0  0.47628  0.26050  0.45063  1.0000
  N   N3        1.0  0.47629  0.76050  0.04937  1.0000
  N   N4        1.0  0.52371  0.73950  0.54937  1.0000
  N   N5        1.0  0.65905  0.33945  0.92591  1.0000
  N   N6        1.0  0.34094  0.16055  0.42591  1.0000
  N   N7        1.0  0.34095  0.66055  0.07409  1.0000
  N   N8        1.0  0.65905  0.83945  0.57409  1.0000
  N   N9        1.0  0.72637  0.30088  0.84437  1.0000
  N   N10       1.0  0.27362  0.19912  0.34437  1.0000
  N   N11       1.0  0.27363  0.69912  0.15563  1.0000
  N   N12       1.0  0.72638  0.80088  0.65563  1.0000
  N   N13       1.0  0.63477  0.17400  0.81255  1.0000
  N   N14       1.0  0.36523  0.32600  0.31255  1.0000
  N   N15       1.0  0.36524  0.82600  0.18745  1.0000
  N   N16       1.0  0.63477  0.67401  0.68745  1.0000
  O   O1        1.0  0.02563  0.62053  0.89026  1.0000
  O   O2        1.0  0.97437  0.87947  0.39026  1.0000
  O   O3        1.0  0.97437  0.37947  0.10974  1.0000
  O   O4        1.0  0.02563  0.12054  0.60974  1.0000
  O   O5        1.0  0.68455  0.74238  0.89017  1.0000
  O   O6        1.0  0.31545  0.75762  0.39017  1.0000
  O   O7        1.0  0.31545  0.25761  0.10984  1.0000
  O   O8        1.0  0.68454  0.24238  0.60983  1.0000
