data_image0
_chemical_formula_structural       Na2H16C12N14O12
_chemical_formula_sum              "Na2 H16 C12 N14 O12"
_cell_length_a       7.04943
_cell_length_b       7.63403
_cell_length_c       11.5183
_cell_angle_alpha    71.2161
_cell_angle_beta     94.1952
_cell_angle_gamma    72.7909

_space_group_name_H-M_alt    "P 1"
_space_group_IT_number       1

loop_
  _space_group_symop_operation_xyz
  'x, y, z'

loop_
  _atom_site_type_symbol
  _atom_site_label
  _atom_site_symmetry_multiplicity
  _atom_site_fract_x
  _atom_site_fract_y
  _atom_site_fract_z
  _atom_site_occupancy
  Na  Na1       1.0  0.29704  0.70822  0.94823  1.0000
  Na  Na2       1.0  0.70296  0.29178  0.05177  1.0000
  H   H1        1.0  0.14636  0.47202  0.44858  1.0000
  H   H2        1.0  0.85365  0.52796  0.55142  1.0000
  H   H3        1.0  0.97621  0.76132  0.67574  1.0000
  H   H4        1.0  0.02379  0.23868  0.32426  1.0000
  H   H5        1.0  0.36392  0.34776  0.88324  1.0000
  H   H6        1.0  0.63608  0.65225  0.11676  1.0000
  H   H7        1.0  0.24225  0.35617  0.99151  1.0000
  H   H8        1.0  0.75774  0.64384  0.00849  1.0000
  H   H9        1.0  0.26952  0.53270  0.22480  1.0000
  H   H10       1.0  0.73048  0.46730  0.77520  1.0000
  H   H11       1.0  0.08279  0.72443  0.14362  1.0000
  H   H12       1.0  0.91720  0.27558  0.85638  1.0000
  H   H13       1.0  0.23394  0.03767  0.00395  1.0000
  H   H14       1.0  0.76605  0.96234  0.99605  1.0000
  H   H15       1.0  0.26112  0.11423  0.86512  1.0000
  H   H16       1.0  0.73887  0.88578  0.13487  1.0000
  C   C1        1.0  0.44075  0.29023  0.49846  1.0000
  C   C2        1.0  0.55926  0.70977  0.50154  1.0000
  C   C3        1.0  0.54632  0.13636  0.72675  1.0000
  C   C4        1.0  0.45368  0.86363  0.27326  1.0000
  C   C5        1.0  0.74268  0.01767  0.58204  1.0000
  C   C6        1.0  0.25733  0.98233  0.41795  1.0000
  C   C7        1.0  0.23569  0.38995  0.64113  1.0000
  C   C8        1.0  0.76430  0.61004  0.35887  1.0000
  C   C9        1.0  0.83155  0.85457  0.80765  1.0000
  C   C10       1.0  0.16845  0.14542  0.19235  1.0000
  C   C11       1.0  0.63817  0.17613  0.36807  1.0000
  C   C12       1.0  0.36182  0.82388  0.63192  1.0000
  N   N1        1.0  0.58174  0.15520  0.60382  1.0000
  N   N2        1.0  0.41826  0.84480  0.39618  1.0000
  N   N3        1.0  0.27190  0.40639  0.52108  1.0000
  N   N4        1.0  0.72810  0.59361  0.47892  1.0000
  N   N5        1.0  0.37927  0.26139  0.74102  1.0000
  N   N6        1.0  0.62073  0.73860  0.25898  1.0000
  N   N7        1.0  0.67315  0.99378  0.82338  1.0000
  N   N8        1.0  0.32686  0.00621  0.17663  1.0000
  N   N9        1.0  0.86453  0.87403  0.68620  1.0000
  N   N10       1.0  0.13548  0.12596  0.31380  1.0000
  N   N11       1.0  0.77026  0.02249  0.47064  1.0000
  N   N12       1.0  0.22974  0.97752  0.52936  1.0000
  N   N13       1.0  0.46423  0.30640  0.38484  1.0000
  N   N14       1.0  0.53578  0.69360  0.61516  1.0000
  O   O1        1.0  0.06861  0.49541  0.65150  1.0000
  O   O2        1.0  0.93138  0.50459  0.34851  1.0000
  O   O3        1.0  0.94553  0.71100  0.89654  1.0000
  O   O4        1.0  0.05447  0.28899  0.10346  1.0000
  O   O5        1.0  0.67084  0.19521  0.26148  1.0000
  O   O6        1.0  0.32918  0.80479  0.73850  1.0000
  O   O7        1.0  0.36113  0.38023  0.95932  1.0000
  O   O8        1.0  0.63887  0.61978  0.04068  1.0000
  O   O9        1.0  0.22795  0.65514  0.15225  1.0000
  O   O10       1.0  0.77205  0.34486  0.84775  1.0000
  O   O11       1.0  0.17765  0.05339  0.91854  1.0000
  O   O12       1.0  0.82233  0.94662  0.08146  1.0000
