data_image0
_chemical_formula_structural       Cd2H28C32N4O12
_chemical_formula_sum              "Cd2 H28 C32 N4 O12"
_cell_length_a       8.02673
_cell_length_b       7.77866
_cell_length_c       14.2592
_cell_angle_alpha    77.2121
_cell_angle_beta     87.7279
_cell_angle_gamma    77.6423

_space_group_name_H-M_alt    "P 1"
_space_group_IT_number       1

loop_
  _space_group_symop_operation_xyz
  'x, y, z'

loop_
  _atom_site_type_symbol
  _atom_site_label
  _atom_site_symmetry_multiplicity
  _atom_site_fract_x
  _atom_site_fract_y
  _atom_site_fract_z
  _atom_site_occupancy
  Cd  Cd1       1.0  0.66713  0.73111  0.74367  1.0000
  Cd  Cd2       1.0  0.33287  0.26890  0.25633  1.0000
  H   H1        1.0  0.52525  0.88341  0.57030  1.0000
  H   H2        1.0  0.47475  0.11659  0.42970  1.0000
  H   H3        1.0  0.62655  0.04816  0.55683  1.0000
  H   H4        1.0  0.37345  0.95185  0.44317  1.0000
  H   H5        1.0  0.95991  0.84813  0.73156  1.0000
  H   H6        1.0  0.04008  0.15188  0.26843  1.0000
  H   H7        1.0  0.82254  0.03563  0.70681  1.0000
  H   H8        1.0  0.17745  0.96439  0.29319  1.0000
  H   H9        1.0  0.38002  0.39211  0.54583  1.0000
  H   H10       1.0  0.61998  0.60789  0.45418  1.0000
  H   H11       1.0  0.09442  0.36436  0.59715  1.0000
  H   H12       1.0  0.90557  0.63564  0.40285  1.0000
  H   H13       1.0  0.30838  0.04404  0.69124  1.0000
  H   H14       1.0  0.69161  0.95595  0.30877  1.0000
  H   H15       1.0  0.06668  0.21422  0.77533  1.0000
  H   H16       1.0  0.93332  0.78577  0.22467  1.0000
  H   H17       1.0  0.06583  0.14461  0.95574  1.0000
  H   H18       1.0  0.93418  0.85539  0.04427  1.0000
  H   H19       1.0  0.20571  0.96529  0.11177  1.0000
  H   H20       1.0  0.79430  0.03471  0.88824  1.0000
  H   H21       1.0  0.43273  0.71674  0.19709  1.0000
  H   H22       1.0  0.56727  0.28324  0.80291  1.0000
  H   H23       1.0  0.69128  0.47923  0.19158  1.0000
  H   H24       1.0  0.30873  0.52077  0.80841  1.0000
  H   H25       1.0  0.91397  0.32297  0.09386  1.0000
  H   H26       1.0  0.08603  0.67703  0.90613  1.0000
  H   H27       1.0  0.89905  0.42637  0.91227  1.0000
  H   H28       1.0  0.10096  0.57364  0.08772  1.0000
  C   C1        1.0  0.40550  0.61775  0.60819  1.0000
  C   C2        1.0  0.59449  0.38225  0.39181  1.0000
  C   C3        1.0  0.30862  0.48409  0.58844  1.0000
  C   C4        1.0  0.69138  0.51591  0.41157  1.0000
  C   C5        1.0  0.04110  0.58234  0.67610  1.0000
  C   C6        1.0  0.95889  0.41765  0.32391  1.0000
  C   C7        1.0  0.15053  0.46729  0.61733  1.0000
  C   C8        1.0  0.84946  0.53271  0.38267  1.0000
  C   C9        1.0  0.30168  0.01791  0.76952  1.0000
  C   C10       1.0  0.69832  0.98208  0.23048  1.0000
  C   C11       1.0  0.16714  0.11220  0.81690  1.0000
  C   C12       1.0  0.83286  0.88780  0.18311  1.0000
  C   C13       1.0  0.16700  0.07387  0.91620  1.0000
  C   C14       1.0  0.83300  0.92612  0.08381  1.0000
  C   C15       1.0  0.29863  0.94080  0.96829  1.0000
  C   C16       1.0  0.70137  0.05921  0.03172  1.0000
  C   C17       1.0  0.30340  0.89228  0.07113  1.0000
  C   C18       1.0  0.69661  0.10772  0.92887  1.0000
  C   C19       1.0  0.42946  0.75775  0.11875  1.0000
  C   C20       1.0  0.57055  0.24224  0.88125  1.0000
  C   C21       1.0  0.56114  0.66377  0.06673  1.0000
  C   C22       1.0  0.43887  0.33623  0.93327  1.0000
  C   C23       1.0  0.69157  0.52171  0.11341  1.0000
  C   C24       1.0  0.30844  0.47829  0.88658  1.0000
  C   C25       1.0  0.81391  0.43467  0.05911  1.0000
  C   C26       1.0  0.18610  0.56532  0.94088  1.0000
  C   C27       1.0  0.80586  0.49084  0.95839  1.0000
  C   C28       1.0  0.19414  0.50917  0.04160  1.0000
  C   C29       1.0  0.56271  0.71127  0.96458  1.0000
  C   C30       1.0  0.43729  0.28873  0.03542  1.0000
  C   C31       1.0  0.42824  0.85207  0.91411  1.0000
  C   C32       1.0  0.57176  0.14793  0.08589  1.0000
  N   N1        1.0  0.42788  0.89267  0.81674  1.0000
  N   N2        1.0  0.57212  0.10733  0.18326  1.0000
  N   N3        1.0  0.68487  0.62469  0.91281  1.0000
  N   N4        1.0  0.31513  0.37532  0.08719  1.0000
  O   O1        1.0  0.49335  0.57179  0.68561  1.0000
  O   O2        1.0  0.50664  0.42822  0.31439  1.0000
  O   O3        1.0  0.40538  0.75775  0.54229  1.0000
  O   O4        1.0  0.59461  0.24224  0.45771  1.0000
  O   O5        1.0  0.90134  0.53427  0.70684  1.0000
  O   O6        1.0  0.09865  0.46573  0.29316  1.0000
  O   O7        1.0  0.09280  0.71642  0.69283  1.0000
  O   O8        1.0  0.90719  0.28358  0.30717  1.0000
  O   O9        1.0  0.59562  0.94611  0.60308  1.0000
  O   O10       1.0  0.40438  0.05389  0.39691  1.0000
  O   O11       1.0  0.85647  0.92890  0.75804  1.0000
  O   O12       1.0  0.14352  0.07111  0.24195  1.0000
