data_image0
_chemical_formula_structural       U2H28C32O16
_chemical_formula_sum              "U2 H28 C32 O16"
_cell_length_a       6.17532
_cell_length_b       7.06298
_cell_length_c       17.7613
_cell_angle_alpha    90.0003
_cell_angle_beta     90.0001
_cell_angle_gamma    89.2133

_space_group_name_H-M_alt    "P 1"
_space_group_IT_number       1

loop_
  _space_group_symop_operation_xyz
  'x, y, z'

loop_
  _atom_site_type_symbol
  _atom_site_label
  _atom_site_symmetry_multiplicity
  _atom_site_fract_x
  _atom_site_fract_y
  _atom_site_fract_z
  _atom_site_occupancy
  U   U1        1.0  1.00000  0.50000  0.50000  1.0000
  U   U2        1.0  1.00000  0.99999  0.00000  1.0000
  H   H1        1.0  0.36249  0.83802  0.82937  1.0000
  H   H2        1.0  0.63751  0.66200  0.32937  1.0000
  H   H3        1.0  0.63750  0.16198  0.17063  1.0000
  H   H4        1.0  0.36248  0.33802  0.67064  1.0000
  H   H5        1.0  0.76915  0.97597  0.59430  1.0000
  H   H6        1.0  0.23083  0.52402  0.09430  1.0000
  H   H7        1.0  0.23085  0.02403  0.40570  1.0000
  H   H8        1.0  0.76918  0.47596  0.90570  1.0000
  H   H9        1.0  0.19405  0.77934  0.70508  1.0000
  H   H10       1.0  0.80595  0.72065  0.20507  1.0000
  H   H11       1.0  0.80596  0.22064  0.29493  1.0000
  H   H12       1.0  0.19405  0.27936  0.79493  1.0000
  H   H13       1.0  0.94083  0.03097  0.71928  1.0000
  H   H14       1.0  0.05916  0.46904  0.21928  1.0000
  H   H15       1.0  0.05916  0.96904  0.28072  1.0000
  H   H16       1.0  0.94084  0.53096  0.78072  1.0000
  H   H17       1.0  0.22105  0.91762  0.55693  1.0000
  H   H18       1.0  0.77895  0.58239  0.05695  1.0000
  H   H19       1.0  0.77895  0.08241  0.44306  1.0000
  H   H20       1.0  0.22108  0.41760  0.94306  1.0000
  H   H21       1.0  0.48307  0.85832  0.52073  1.0000
  H   H22       1.0  0.51693  0.64165  0.02073  1.0000
  H   H23       1.0  0.51693  0.14167  0.47927  1.0000
  H   H24       1.0  0.48308  0.35831  0.97928  1.0000
  H   H25       1.0  0.43863  0.55454  0.57277  1.0000
  H   H26       1.0  0.56134  0.94547  0.07277  1.0000
  H   H27       1.0  0.56136  0.44549  0.42722  1.0000
  H   H28       1.0  0.43862  0.05450  0.92722  1.0000
  C   C1        1.0  0.46937  0.87695  0.64181  1.0000
  C   C2        1.0  0.53063  0.62305  0.14181  1.0000
  C   C3        1.0  0.53063  0.12307  0.35819  1.0000
  C   C4        1.0  0.46938  0.37694  0.85820  1.0000
  C   C5        1.0  0.66328  0.93739  0.78205  1.0000
  C   C6        1.0  0.33672  0.56261  0.28205  1.0000
  C   C7        1.0  0.33672  0.06262  0.21796  1.0000
  C   C8        1.0  0.66328  0.43739  0.71795  1.0000
  C   C9        1.0  0.45088  0.86999  0.77804  1.0000
  C   C10       1.0  0.54912  0.63001  0.27804  1.0000
  C   C11       1.0  0.54912  0.13001  0.22196  1.0000
  C   C12       1.0  0.45087  0.37000  0.72196  1.0000
  C   C13       1.0  0.67968  0.94803  0.64598  1.0000
  C   C14       1.0  0.32031  0.55196  0.14597  1.0000
  C   C15       1.0  0.32031  0.05198  0.35403  1.0000
  C   C16       1.0  0.67970  0.44802  0.85403  1.0000
  C   C17       1.0  0.77137  0.95993  0.85552  1.0000
  C   C18       1.0  0.22863  0.54007  0.35553  1.0000
  C   C19       1.0  0.22864  0.04007  0.14448  1.0000
  C   C20       1.0  0.77136  0.45995  0.64447  1.0000
  C   C21       1.0  0.35544  0.83939  0.70840  1.0000
  C   C22       1.0  0.64455  0.66061  0.20840  1.0000
  C   C23       1.0  0.64455  0.16061  0.29160  1.0000
  C   C24       1.0  0.35545  0.33939  0.79161  1.0000
  C   C25       1.0  0.77652  0.97769  0.71569  1.0000
  C   C26       1.0  0.22348  0.52231  0.21569  1.0000
  C   C27       1.0  0.22348  0.02232  0.28432  1.0000
  C   C28       1.0  0.77652  0.47769  0.78431  1.0000
  C   C29       1.0  0.36848  0.83251  0.56681  1.0000
  C   C30       1.0  0.63151  0.66749  0.06681  1.0000
  C   C31       1.0  0.63151  0.16750  0.43319  1.0000
  C   C32       1.0  0.36850  0.33249  0.93319  1.0000
  O   O1        1.0  0.30427  0.63658  0.56451  1.0000
  O   O2        1.0  0.69570  0.86342  0.06450  1.0000
  O   O3        1.0  0.69570  0.36343  0.43550  1.0000
  O   O4        1.0  0.30429  0.13656  0.93550  1.0000
  O   O5        1.0  0.97418  0.98765  0.85995  1.0000
  O   O6        1.0  0.02582  0.51232  0.35994  1.0000
  O   O7        1.0  0.02582  0.01235  0.14005  1.0000
  O   O8        1.0  0.97418  0.48766  0.64006  1.0000
  O   O9        1.0  0.66406  0.94883  0.91800  1.0000
  O   O10       1.0  0.33593  0.55120  0.41800  1.0000
  O   O11       1.0  0.33594  0.05117  0.08200  1.0000
  O   O12       1.0  0.66406  0.44882  0.58200  1.0000
  O   O13       1.0  0.89837  0.74085  0.49126  1.0000
  O   O14       1.0  0.10164  0.75915  0.99126  1.0000
  O   O15       1.0  0.10161  0.25913  0.50874  1.0000
  O   O16       1.0  0.89840  0.24086  0.00875  1.0000
