data_image0
_chemical_formula_structural       K2Ag2H20C14S2O18
_chemical_formula_sum              "K2 Ag2 H20 C14 S2 O18"
_cell_length_a       6.88687
_cell_length_b       8.23458
_cell_length_c       10.7738
_cell_angle_alpha    79.6137
_cell_angle_beta     85.7339
_cell_angle_gamma    90.7371

_space_group_name_H-M_alt    "P 1"
_space_group_IT_number       1

loop_
  _space_group_symop_operation_xyz
  'x, y, z'

loop_
  _atom_site_type_symbol
  _atom_site_label
  _atom_site_symmetry_multiplicity
  _atom_site_fract_x
  _atom_site_fract_y
  _atom_site_fract_z
  _atom_site_occupancy
  K   K1        1.0  0.72132  0.47525  0.06992  1.0000
  K   K2        1.0  0.27868  0.52475  0.93008  1.0000
  Ag  Ag1       1.0  0.99793  0.02188  0.36595  1.0000
  Ag  Ag2       1.0  0.00207  0.97812  0.63405  1.0000
  H   H1        1.0  0.35503  0.19168  0.12913  1.0000
  H   H2        1.0  0.64497  0.80832  0.87087  1.0000
  H   H3        1.0  0.29771  0.28767  0.23658  1.0000
  H   H4        1.0  0.70229  0.71233  0.76342  1.0000
  H   H5        1.0  0.82323  0.84069  0.09285  1.0000
  H   H6        1.0  0.17677  0.15931  0.90715  1.0000
  H   H7        1.0  0.04889  0.84469  0.10350  1.0000
  H   H8        1.0  0.95111  0.15531  0.89650  1.0000
  H   H9        1.0  0.96177  0.17005  0.09115  1.0000
  H   H10       1.0  0.03823  0.82995  0.90885  1.0000
  H   H11       1.0  0.72924  0.48278  0.73483  1.0000
  H   H12       1.0  0.27076  0.51722  0.26517  1.0000
  H   H13       1.0  0.64151  0.22045  0.36147  1.0000
  H   H14       1.0  0.35849  0.77955  0.63853  1.0000
  H   H15       1.0  0.55007  0.06433  0.58049  1.0000
  H   H16       1.0  0.44993  0.93567  0.41951  1.0000
  H   H17       1.0  0.83732  0.63224  0.31673  1.0000
  H   H18       1.0  0.16268  0.36776  0.68327  1.0000
  H   H19       1.0  0.76327  0.09542  0.16166  1.0000
  H   H20       1.0  0.23673  0.90458  0.83834  1.0000
  C   C1        1.0  0.63660  0.26567  0.67065  1.0000
  C   C2        1.0  0.36340  0.73434  0.32935  1.0000
  C   C3        1.0  0.71004  0.42618  0.65293  1.0000
  C   C4        1.0  0.28996  0.57382  0.34707  1.0000
  C   C5        1.0  0.75916  0.51593  0.53140  1.0000
  C   C6        1.0  0.24084  0.48407  0.46859  1.0000
  C   C7        1.0  0.73841  0.43833  0.42581  1.0000
  C   C8        1.0  0.26159  0.56167  0.57419  1.0000
  C   C9        1.0  0.66259  0.27535  0.44442  1.0000
  C   C10       1.0  0.33742  0.72465  0.55558  1.0000
  C   C11       1.0  0.61176  0.18951  0.56601  1.0000
  C   C12       1.0  0.38824  0.81049  0.43399  1.0000
  C   C13       1.0  0.82797  0.69032  0.51565  1.0000
  C   C14       1.0  0.17203  0.30968  0.48435  1.0000
  S   S1        1.0  0.58183  0.15976  0.82797  1.0000
  S   S2        1.0  0.41817  0.84024  0.17203  1.0000
  O   O1        1.0  0.36669  0.30175  0.15132  1.0000
  O   O2        1.0  0.63330  0.69825  0.84868  1.0000
  O   O3        1.0  0.94437  0.78711  0.06872  1.0000
  O   O4        1.0  0.05563  0.21289  0.93128  1.0000
  O   O5        1.0  0.87422  0.16915  0.16934  1.0000
  O   O6        1.0  0.12578  0.83085  0.83066  1.0000
  O   O7        1.0  0.78831  0.51840  0.30719  1.0000
  O   O8        1.0  0.21169  0.48160  0.69281  1.0000
  O   O9        1.0  0.88187  0.76481  0.40240  1.0000
  O   O10       1.0  0.11813  0.23519  0.59760  1.0000
  O   O11       1.0  0.82948  0.75673  0.61340  1.0000
  O   O12       1.0  0.17053  0.24327  0.38660  1.0000
  O   O13       1.0  0.73934  0.04014  0.85407  1.0000
  O   O14       1.0  0.26065  0.95986  0.14593  1.0000
  O   O15       1.0  0.57901  0.28557  0.90822  1.0000
  O   O16       1.0  0.42100  0.71444  0.09178  1.0000
  O   O17       1.0  0.39061  0.07600  0.83040  1.0000
  O   O18       1.0  0.60939  0.92400  0.16960  1.0000
