data_image0
_chemical_formula_structural       Tl2H32Au2C40N4Cl20
_chemical_formula_sum              "Tl2 H32 Au2 C40 N4 Cl20"
_cell_length_a       11.3082
_cell_length_b       11.7877
_cell_length_c       12.8352
_cell_angle_alpha    64.2071
_cell_angle_beta     72.5622
_cell_angle_gamma    73.6567

_space_group_name_H-M_alt    "P 1"
_space_group_IT_number       1

loop_
  _space_group_symop_operation_xyz
  'x, y, z'

loop_
  _atom_site_type_symbol
  _atom_site_label
  _atom_site_symmetry_multiplicity
  _atom_site_fract_x
  _atom_site_fract_y
  _atom_site_fract_z
  _atom_site_occupancy
  Tl  Tl1       1.0  0.42423  0.24631  0.05592  1.0000
  Tl  Tl2       1.0  0.57577  0.75369  0.94408  1.0000
  H   H1        1.0  0.15275  0.30999  0.18308  1.0000
  H   H2        1.0  0.84726  0.69001  0.81692  1.0000
  H   H3        1.0  0.06741  0.39189  0.28003  1.0000
  H   H4        1.0  0.93260  0.60810  0.71997  1.0000
  H   H5        1.0  0.04362  0.23724  0.31328  1.0000
  H   H6        1.0  0.95638  0.76276  0.68672  1.0000
  H   H7        1.0  0.10618  0.17866  0.52372  1.0000
  H   H8        1.0  0.89383  0.82133  0.47628  1.0000
  H   H9        1.0  0.12686  0.33853  0.46292  1.0000
  H   H10       1.0  0.87315  0.66146  0.53709  1.0000
  H   H11       1.0  0.25266  0.21484  0.51493  1.0000
  H   H12       1.0  0.74735  0.78515  0.48507  1.0000
  H   H13       1.0  0.80142  0.98284  0.06875  1.0000
  H   H14       1.0  0.19858  0.01716  0.93125  1.0000
  H   H15       1.0  0.84983  0.13309  0.00250  1.0000
  H   H16       1.0  0.15017  0.86691  0.99750  1.0000
  H   H17       1.0  0.69657  0.12201  0.99879  1.0000
  H   H18       1.0  0.30343  0.87799  0.00121  1.0000
  H   H19       1.0  0.84414  0.14582  0.23672  1.0000
  H   H20       1.0  0.15587  0.85418  0.76328  1.0000
  H   H21       1.0  0.89867  0.00005  0.21422  1.0000
  H   H22       1.0  0.10134  0.99995  0.78578  1.0000
  H   H23       1.0  0.77704  0.00919  0.33744  1.0000
  H   H24       1.0  0.22296  0.99080  0.66256  1.0000
  H   H25       1.0  0.40114  0.12320  0.45706  1.0000
  H   H26       1.0  0.59887  0.87680  0.54294  1.0000
  H   H27       1.0  0.44002  0.01954  0.38013  1.0000
  H   H28       1.0  0.55998  0.98047  0.61987  1.0000
  H   H29       1.0  0.61347  0.12673  0.36632  1.0000
  H   H30       1.0  0.38654  0.87327  0.63367  1.0000
  H   H31       1.0  0.53168  0.27429  0.28123  1.0000
  H   H32       1.0  0.46832  0.72572  0.71876  1.0000
  Au  Au1       1.0  0.50001  0.50000  1.00000  1.0000
  Au  Au2       1.0  0.49999  1.00000  0.00000  1.0000
  C   C1        1.0  0.32334  0.56057  0.08381  1.0000
  C   C2        1.0  0.67666  0.43944  0.91619  1.0000
  C   C3        1.0  0.30489  0.57157  0.19248  1.0000
  C   C4        1.0  0.69511  0.42843  0.80753  1.0000
  C   C5        1.0  0.18544  0.60678  0.25551  1.0000
  C   C6        1.0  0.81455  0.39322  0.74449  1.0000
  C   C7        1.0  0.07958  0.63841  0.20588  1.0000
  C   C8        1.0  0.92042  0.36159  0.79412  1.0000
  C   C9        1.0  0.09424  0.63102  0.09604  1.0000
  C   C10       1.0  0.90576  0.36898  0.90395  1.0000
  C   C11       1.0  0.21499  0.59052  0.03839  1.0000
  C   C12       1.0  0.78501  0.40948  0.96161  1.0000
  C   C13       1.0  0.42618  0.91251  0.17804  1.0000
  C   C14       1.0  0.57380  0.08749  0.82196  1.0000
  C   C15       1.0  0.29997  0.94220  0.23185  1.0000
  C   C16       1.0  0.70002  0.05780  0.76814  1.0000
  C   C17       1.0  0.25368  0.88607  0.35415  1.0000
  C   C18       1.0  0.74630  0.11393  0.64586  1.0000
  C   C19       1.0  0.33436  0.79269  0.42719  1.0000
  C   C20       1.0  0.66563  0.20731  0.57281  1.0000
  C   C21       1.0  0.46149  0.76032  0.37714  1.0000
  C   C22       1.0  0.53848  0.23968  0.62287  1.0000
  C   C23       1.0  0.50417  0.82037  0.25465  1.0000
  C   C24       1.0  0.49582  0.17963  0.74534  1.0000
  C   C25       1.0  0.21677  0.23898  0.34688  1.0000
  C   C26       1.0  0.78324  0.76101  0.65312  1.0000
  C   C27       1.0  0.11558  0.29880  0.27555  1.0000
  C   C28       1.0  0.88443  0.70120  0.72445  1.0000
  C   C29       1.0  0.17574  0.24180  0.46882  1.0000
  C   C30       1.0  0.82427  0.75819  0.53118  1.0000
  C   C31       1.0  0.71875  0.10140  0.16812  1.0000
  C   C32       1.0  0.28125  0.89860  0.83188  1.0000
  C   C33       1.0  0.76824  0.08493  0.05269  1.0000
  C   C34       1.0  0.23177  0.91507  0.94731  1.0000
  C   C35       1.0  0.81457  0.06107  0.24367  1.0000
  C   C36       1.0  0.18543  0.93893  0.75633  1.0000
  C   C37       1.0  0.42490  0.12070  0.36818  1.0000
  C   C38       1.0  0.57511  0.87930  0.63182  1.0000
  C   C39       1.0  0.54928  0.17025  0.30395  1.0000
  C   C40       1.0  0.45073  0.82975  0.69605  1.0000
  N   N1        1.0  0.32550  0.18935  0.30156  1.0000
  N   N2        1.0  0.67451  0.81065  0.69844  1.0000
  N   N3        1.0  0.60200  0.14851  0.19494  1.0000
  N   N4        1.0  0.39801  0.85149  0.80506  1.0000
  Cl  Cl1       1.0  0.43463  0.54030  0.25223  1.0000
  Cl  Cl2       1.0  0.56536  0.45970  0.74777  1.0000
  Cl  Cl3       1.0  0.16647  0.60812  0.39300  1.0000
  Cl  Cl4       1.0  0.83353  0.39187  0.60700  1.0000
  Cl  Cl5       1.0  0.93294  0.68273  0.28023  1.0000
  Cl  Cl6       1.0  0.06706  0.31727  0.71976  1.0000
  Cl  Cl7       1.0  0.96447  0.66896  0.03602  1.0000
  Cl  Cl8       1.0  0.03554  0.33104  0.96398  1.0000
  Cl  Cl9       1.0  0.22948  0.57561  0.90618  1.0000
  Cl  Cl10      1.0  0.77053  0.42439  0.09382  1.0000
  Cl  Cl11      1.0  0.19433  0.05301  0.14554  1.0000
  Cl  Cl12      1.0  0.80566  0.94699  0.85446  1.0000
  Cl  Cl13      1.0  0.09980  0.93106  0.41582  1.0000
  Cl  Cl14      1.0  0.90019  0.06895  0.58418  1.0000
  Cl  Cl15      1.0  0.27718  0.71558  0.57537  1.0000
  Cl  Cl16      1.0  0.72280  0.28443  0.42463  1.0000
  Cl  Cl17      1.0  0.56180  0.64852  0.46582  1.0000
  Cl  Cl18      1.0  0.43819  0.35148  0.53418  1.0000
  Cl  Cl19      1.0  0.66066  0.77500  0.19681  1.0000
  Cl  Cl20      1.0  0.33932  0.22500  0.80319  1.0000
