data_image0
_chemical_formula_structural       Ag4H12C24N4Cl4O8
_chemical_formula_sum              "Ag4 H12 C24 N4 Cl4 O8"
_cell_length_a       3.73941
_cell_length_b       12.1309
_cell_length_c       14.4825
_cell_angle_alpha    89.9997
_cell_angle_beta     89.6388
_cell_angle_gamma    90.0004

_space_group_name_H-M_alt    "P 1"
_space_group_IT_number       1

loop_
  _space_group_symop_operation_xyz
  'x, y, z'

loop_
  _atom_site_type_symbol
  _atom_site_label
  _atom_site_symmetry_multiplicity
  _atom_site_fract_x
  _atom_site_fract_y
  _atom_site_fract_z
  _atom_site_occupancy
  Ag  Ag1       1.0  0.53106  0.44115  0.08241  1.0000
  Ag  Ag2       1.0  0.96895  0.94116  0.41759  1.0000
  Ag  Ag3       1.0  0.46895  0.55885  0.91759  1.0000
  Ag  Ag4       1.0  0.03103  0.05885  0.58241  1.0000
  H   H1        1.0  0.86669  0.14988  0.00266  1.0000
  H   H2        1.0  0.63329  0.64988  0.49734  1.0000
  H   H3        1.0  0.13331  0.85013  0.99734  1.0000
  H   H4        1.0  0.36671  0.35012  0.50266  1.0000
  H   H5        1.0  0.62146  0.97540  0.93010  1.0000
  H   H6        1.0  0.87850  0.47541  0.56990  1.0000
  H   H7        1.0  0.37850  0.02461  0.06990  1.0000
  H   H8        1.0  0.12151  0.52460  0.43009  1.0000
  H   H9        1.0  0.66917  0.95522  0.75771  1.0000
  H   H10       1.0  0.83078  0.45522  0.74230  1.0000
  H   H11       1.0  0.33078  0.04478  0.24230  1.0000
  H   H12       1.0  0.16923  0.54478  0.25770  1.0000
  C   C1        1.0  0.18137  0.31981  0.91901  1.0000
  C   C2        1.0  0.31862  0.81981  0.58099  1.0000
  C   C3        1.0  0.81865  0.68019  0.08099  1.0000
  C   C4        1.0  0.68139  0.18019  0.41901  1.0000
  C   C5        1.0  0.88368  0.13516  0.92859  1.0000
  C   C6        1.0  0.61631  0.63516  0.57141  1.0000
  C   C7        1.0  0.11632  0.86485  0.07141  1.0000
  C   C8        1.0  0.38369  0.36484  0.42859  1.0000
  C   C9        1.0  0.74854  0.03958  0.88886  1.0000
  C   C10       1.0  0.75143  0.53958  0.61114  1.0000
  C   C11       1.0  0.25143  0.96043  0.11114  1.0000
  C   C12       1.0  0.24858  0.46042  0.38886  1.0000
  C   C13       1.0  0.04049  0.21717  0.87339  1.0000
  C   C14       1.0  0.45951  0.71717  0.62662  1.0000
  C   C15       1.0  0.95952  0.78283  0.12662  1.0000
  C   C16       1.0  0.54049  0.28283  0.37338  1.0000
  C   C17       1.0  0.06217  0.19457  0.77829  1.0000
  C   C18       1.0  0.43781  0.69457  0.72171  1.0000
  C   C19       1.0  0.93782  0.80543  0.22171  1.0000
  C   C20       1.0  0.56219  0.30543  0.27828  1.0000
  C   C21       1.0  0.77747  0.02659  0.79368  1.0000
  C   C22       1.0  0.72249  0.52659  0.70632  1.0000
  C   C23       1.0  0.22249  0.97342  0.20632  1.0000
  C   C24       1.0  0.27752  0.47341  0.29367  1.0000
  N   N1        1.0  0.93763  0.10233  0.73987  1.0000
  N   N2        1.0  0.56233  0.60234  0.76014  1.0000
  N   N3        1.0  0.06234  0.89767  0.26014  1.0000
  N   N4        1.0  0.43768  0.39766  0.23986  1.0000
  Cl  Cl1       1.0  0.26966  0.28342  0.70150  1.0000
  Cl  Cl2       1.0  0.23032  0.78342  0.79850  1.0000
  Cl  Cl3       1.0  0.73034  0.71658  0.29850  1.0000
  Cl  Cl4       1.0  0.76969  0.21657  0.20150  1.0000
  O   O1        1.0  0.32681  0.30419  0.99707  1.0000
  O   O2        1.0  0.17319  0.80420  0.50294  1.0000
  O   O3        1.0  0.67321  0.69580  0.00294  1.0000
  O   O4        1.0  0.82685  0.19581  0.49705  1.0000
  O   O5        1.0  0.14193  0.41076  0.87700  1.0000
  O   O6        1.0  0.35808  0.91076  0.62300  1.0000
  O   O7        1.0  0.85811  0.58924  0.12300  1.0000
  O   O8        1.0  0.64190  0.08924  0.37700  1.0000
