data_image0
_chemical_formula_structural       NaCoH6C10N6O8
_chemical_formula_sum              "Na1 Co1 H6 C10 N6 O8"
_cell_length_a       6.09768
_cell_length_b       7.17476
_cell_length_c       8.90556
_cell_angle_alpha    99.5268
_cell_angle_beta     99.6473
_cell_angle_gamma    112.194

_space_group_name_H-M_alt    "P 1"
_space_group_IT_number       1

loop_
  _space_group_symop_operation_xyz
  'x, y, z'

loop_
  _atom_site_type_symbol
  _atom_site_label
  _atom_site_symmetry_multiplicity
  _atom_site_fract_x
  _atom_site_fract_y
  _atom_site_fract_z
  _atom_site_occupancy
  Na  Na1       1.0  0.49999  0.99999  0.49999  1.0000
  Co  Co1       1.0  1.00000  0.99999  0.99999  1.0000
  H   H1        1.0  0.16178  0.55388  0.45556  1.0000
  H   H2        1.0  0.83819  0.44606  0.54447  1.0000
  H   H3        1.0  0.75943  0.66933  0.26263  1.0000
  H   H4        1.0  0.24052  0.33070  0.73737  1.0000
  H   H5        1.0  0.52877  0.32245  0.05834  1.0000
  H   H6        1.0  0.47127  0.67757  0.94165  1.0000
  C   C1        1.0  0.11518  0.31266  0.25588  1.0000
  C   C2        1.0  0.88473  0.68728  0.74412  1.0000
  C   C3        1.0  0.24337  0.50266  0.36620  1.0000
  C   C4        1.0  0.75661  0.49726  0.63379  1.0000
  C   C5        1.0  0.57283  0.56696  0.26005  1.0000
  C   C6        1.0  0.42719  0.43308  0.73997  1.0000
  C   C7        1.0  0.44803  0.37729  0.14646  1.0000
  C   C8        1.0  0.55197  0.62272  0.85355  1.0000
  C   C9        1.0  0.86588  0.15534  0.24915  1.0000
  C   C10       1.0  0.13419  0.84470  0.75087  1.0000
  N   N1        1.0  0.21813  0.25514  0.14432  1.0000
  N   N2        1.0  0.78188  0.74487  0.85569  1.0000
  N   N3        1.0  0.47073  0.63201  0.36763  1.0000
  N   N4        1.0  0.52931  0.36803  0.63239  1.0000
  N   N5        1.0  0.13461  0.85241  0.12737  1.0000
  N   N6        1.0  0.86540  0.14760  0.87262  1.0000
  O   O1        1.0  0.77993  0.99499  0.12908  1.0000
  O   O2        1.0  0.22004  0.00500  0.87091  1.0000
  O   O3        1.0  0.75696  0.17909  0.35208  1.0000
  O   O4        1.0  0.24307  0.82090  0.64792  1.0000
  O   O5        1.0  0.16013  0.89854  0.27331  1.0000
  O   O6        1.0  0.83991  0.10151  0.72668  1.0000
  O   O7        1.0  0.18860  0.71485  0.06313  1.0000
  O   O8        1.0  0.81138  0.28514  0.93685  1.0000
