data_image0
_chemical_formula_structural       Cd2H28C28N4Cl4O8
_chemical_formula_sum              "Cd2 H28 C28 N4 Cl4 O8"
_cell_length_a       5.52286
_cell_length_b       8.33057
_cell_length_c       17.3049
_cell_angle_alpha    90.0174
_cell_angle_beta     96.0581
_cell_angle_gamma    82.1997

_space_group_name_H-M_alt    "P 1"
_space_group_IT_number       1

loop_
  _space_group_symop_operation_xyz
  'x, y, z'

loop_
  _atom_site_type_symbol
  _atom_site_label
  _atom_site_symmetry_multiplicity
  _atom_site_fract_x
  _atom_site_fract_y
  _atom_site_fract_z
  _atom_site_occupancy
  Cd  Cd1       1.0  0.79079  0.87657  0.04736  1.0000
  Cd  Cd2       1.0  0.20922  0.12343  0.95264  1.0000
  H   H1        1.0  0.66830  0.33570  0.49085  1.0000
  H   H2        1.0  0.33173  0.66429  0.50915  1.0000
  H   H3        1.0  0.12390  0.63582  0.12416  1.0000
  H   H4        1.0  0.87610  0.36419  0.87585  1.0000
  H   H5        1.0  0.92540  0.54560  0.06898  1.0000
  H   H6        1.0  0.07461  0.45441  0.93102  1.0000
  H   H7        1.0  0.55181  0.46636  0.11346  1.0000
  H   H8        1.0  0.44820  0.53364  0.88654  1.0000
  H   H9        1.0  0.39719  0.36061  0.23047  1.0000
  H   H10       1.0  0.60280  0.63939  0.76953  1.0000
  H   H11       1.0  0.97277  0.54703  0.37647  1.0000
  H   H12       1.0  0.02722  0.45295  0.62353  1.0000
  H   H13       1.0  0.12560  0.65442  0.26008  1.0000
  H   H14       1.0  0.87441  0.34557  0.73992  1.0000
  H   H15       1.0  0.67461  0.77913  0.55152  1.0000
  H   H16       1.0  0.32540  0.22087  0.44848  1.0000
  H   H17       1.0  0.90570  0.13182  0.14759  1.0000
  H   H18       1.0  0.09429  0.86819  0.85241  1.0000
  H   H19       1.0  0.60400  0.13856  0.12322  1.0000
  H   H20       1.0  0.39599  0.86144  0.87678  1.0000
  H   H21       1.0  0.04013  0.09975  0.28578  1.0000
  H   H22       1.0  0.95986  0.90024  0.71422  1.0000
  H   H23       1.0  0.96877  0.99137  0.41376  1.0000
  H   H24       1.0  0.03123  0.00862  0.58623  1.0000
  H   H25       1.0  0.31187  0.82183  0.30958  1.0000
  H   H26       1.0  0.68813  0.17817  0.69042  1.0000
  H   H27       1.0  0.38519  0.92608  0.17984  1.0000
  H   H28       1.0  0.61480  0.07392  0.82016  1.0000
  C   C1        1.0  0.84650  0.56951  0.17997  1.0000
  C   C2        1.0  0.15349  0.43049  0.82003  1.0000
  C   C3        1.0  0.63951  0.48804  0.17133  1.0000
  C   C4        1.0  0.36048  0.51196  0.82868  1.0000
  C   C5        1.0  0.55335  0.42835  0.23675  1.0000
  C   C6        1.0  0.44664  0.57165  0.76325  1.0000
  C   C7        1.0  0.67150  0.44981  0.31111  1.0000
  C   C8        1.0  0.32850  0.55020  0.68890  1.0000
  C   C9        1.0  0.87718  0.53294  0.31913  1.0000
  C   C10       1.0  0.12283  0.46706  0.68087  1.0000
  C   C11       1.0  0.96313  0.59278  0.25393  1.0000
  C   C12       1.0  0.03686  0.40722  0.74607  1.0000
  C   C13       1.0  0.58685  0.37848  0.38005  1.0000
  C   C14       1.0  0.41313  0.62151  0.61995  1.0000
  C   C15       1.0  0.72086  0.01473  0.22425  1.0000
  C   C16       1.0  0.27914  0.98527  0.77575  1.0000
  C   C17       1.0  0.88287  0.03539  0.29039  1.0000
  C   C18       1.0  0.11713  0.96461  0.70961  1.0000
  C   C19       1.0  0.84132  0.97608  0.36265  1.0000
  C   C20       1.0  0.15868  0.02391  0.63735  1.0000
  C   C21       1.0  0.63572  0.89705  0.36917  1.0000
  C   C22       1.0  0.36427  0.10294  0.63083  1.0000
  C   C23       1.0  0.47156  0.88160  0.30292  1.0000
  C   C24       1.0  0.52844  0.11839  0.69708  1.0000
  C   C25       1.0  0.51173  0.93988  0.23136  1.0000
  C   C26       1.0  0.48828  0.06012  0.76864  1.0000
  C   C27       1.0  0.57884  0.82400  0.44180  1.0000
  C   C28       1.0  0.42118  0.17600  0.55820  1.0000
  N   N1        1.0  0.94051  0.62659  0.11323  1.0000
  N   N2        1.0  0.05950  0.37342  0.88677  1.0000
  N   N3        1.0  0.75995  0.06713  0.14854  1.0000
  N   N4        1.0  0.24004  0.93287  0.85146  1.0000
  Cl  Cl1       1.0  0.31031  0.84201  0.03882  1.0000
  Cl  Cl2       1.0  0.68969  0.15800  0.96117  1.0000
  Cl  Cl3       1.0  0.19762  0.26151  0.08365  1.0000
  Cl  Cl4       1.0  0.80236  0.73850  0.91635  1.0000
  O   O1        1.0  0.72688  0.39613  0.44525  1.0000
  O   O2        1.0  0.27313  0.60386  0.55475  1.0000
  O   O3        1.0  0.40113  0.30638  0.37578  1.0000
  O   O4        1.0  0.59887  0.69362  0.62422  1.0000
  O   O5        1.0  0.72878  0.83979  0.50527  1.0000
  O   O6        1.0  0.27124  0.16021  0.49473  1.0000
  O   O7        1.0  0.39558  0.75023  0.44062  1.0000
  O   O8        1.0  0.60444  0.24976  0.55938  1.0000
