data_image0
_chemical_formula_structural       Cu4H8C8S4N12
_chemical_formula_sum              "Cu4 H8 C8 S4 N12"
_cell_length_a       6.15742
_cell_length_b       6.96455
_cell_length_c       9.50599
_cell_angle_alpha    95.9545
_cell_angle_beta     89.9979
_cell_angle_gamma    90.0001

_space_group_name_H-M_alt    "P 1"
_space_group_IT_number       1

loop_
  _space_group_symop_operation_xyz
  'x, y, z'

loop_
  _atom_site_type_symbol
  _atom_site_label
  _atom_site_symmetry_multiplicity
  _atom_site_fract_x
  _atom_site_fract_y
  _atom_site_fract_z
  _atom_site_occupancy
  Cu  Cu1       1.0  0.19508  0.57627  0.47344  1.0000
  Cu  Cu2       1.0  0.69508  0.92372  0.52657  1.0000
  Cu  Cu3       1.0  0.80491  0.42373  0.52657  1.0000
  Cu  Cu4       1.0  0.30493  0.07627  0.47343  1.0000
  H   H1        1.0  0.19979  0.76640  0.91968  1.0000
  H   H2        1.0  0.69984  0.73358  0.08033  1.0000
  H   H3        1.0  0.80020  0.23360  0.08032  1.0000
  H   H4        1.0  0.30017  0.26641  0.91968  1.0000
  H   H5        1.0  0.84642  0.85434  0.84566  1.0000
  H   H6        1.0  0.34649  0.64568  0.15434  1.0000
  H   H7        1.0  0.15358  0.14565  0.15432  1.0000
  H   H8        1.0  0.65353  0.35435  0.84568  1.0000
  C   C1        1.0  0.35686  0.85646  0.73273  1.0000
  C   C2        1.0  0.85683  0.64355  0.26723  1.0000
  C   C3        1.0  0.64315  0.14353  0.26727  1.0000
  C   C4        1.0  0.14315  0.35642  0.73275  1.0000
  C   C5        1.0  0.67244  0.84409  0.83028  1.0000
  C   C6        1.0  0.17246  0.65592  0.16971  1.0000
  C   C7        1.0  0.32756  0.15589  0.16971  1.0000
  C   C8        1.0  0.82754  0.34407  0.83029  1.0000
  S   S1        1.0  0.15117  0.87379  0.61121  1.0000
  S   S2        1.0  0.65123  0.62621  0.38875  1.0000
  S   S3        1.0  0.84882  0.12621  0.38879  1.0000
  S   S4        1.0  0.34877  0.37378  0.61124  1.0000
  N   N1        1.0  0.33803  0.79641  0.86326  1.0000
  N   N2        1.0  0.83801  0.70358  0.13674  1.0000
  N   N3        1.0  0.66198  0.20358  0.13674  1.0000
  N   N4        1.0  0.16198  0.29642  0.86327  1.0000
  N   N5        1.0  0.57178  0.88811  0.71052  1.0000
  N   N6        1.0  0.07172  0.61191  0.28946  1.0000
  N   N7        1.0  0.42823  0.11191  0.28948  1.0000
  N   N8        1.0  0.92826  0.38812  0.71054  1.0000
  N   N9        1.0  0.53680  0.78753  0.92625  1.0000
  N   N10       1.0  0.03673  0.71247  0.07380  1.0000
  N   N11       1.0  0.46321  0.21247  0.07376  1.0000
  N   N12       1.0  0.96325  0.28756  0.92622  1.0000
