data_image0
_chemical_formula_structural       H32Pb4C40N12Cl4O8
_chemical_formula_sum              "H32 Pb4 C40 N12 Cl4 O8"
_cell_length_a       8.13802
_cell_length_b       9.67795
_cell_length_c       14.4867
_cell_angle_alpha    90.0003
_cell_angle_beta     93.4773
_cell_angle_gamma    90.0004

_space_group_name_H-M_alt    "P 1"
_space_group_IT_number       1

loop_
  _space_group_symop_operation_xyz
  'x, y, z'

loop_
  _atom_site_type_symbol
  _atom_site_label
  _atom_site_symmetry_multiplicity
  _atom_site_fract_x
  _atom_site_fract_y
  _atom_site_fract_z
  _atom_site_occupancy
  H   H1        1.0  0.76283  0.98863  0.54167  1.0000
  H   H2        1.0  0.73717  0.48863  0.45833  1.0000
  H   H3        1.0  0.23717  0.01137  0.45833  1.0000
  H   H4        1.0  0.26283  0.51137  0.54167  1.0000
  H   H5        1.0  0.87971  0.14109  0.51911  1.0000
  H   H6        1.0  0.62029  0.64109  0.48089  1.0000
  H   H7        1.0  0.12029  0.85890  0.48089  1.0000
  H   H8        1.0  0.37971  0.35891  0.51911  1.0000
  H   H9        1.0  0.60611  0.41231  0.75422  1.0000
  H   H10       1.0  0.89389  0.91231  0.24578  1.0000
  H   H11       1.0  0.39389  0.58769  0.24578  1.0000
  H   H12       1.0  0.10611  0.08769  0.75422  1.0000
  H   H13       1.0  0.29999  0.25500  0.00890  1.0000
  H   H14       1.0  0.20000  0.75500  0.99110  1.0000
  H   H15       1.0  0.70000  0.74500  0.99110  1.0000
  H   H16       1.0  0.80000  0.24500  0.00890  1.0000
  H   H17       1.0  0.46440  0.34034  0.87998  1.0000
  H   H18       1.0  0.03559  0.84034  0.12002  1.0000
  H   H19       1.0  0.53559  0.65966  0.12002  1.0000
  H   H20       1.0  0.96441  0.15966  0.87998  1.0000
  H   H21       1.0  0.77370  0.37138  0.59699  1.0000
  H   H22       1.0  0.72631  0.87138  0.40302  1.0000
  H   H23       1.0  0.22631  0.62862  0.40301  1.0000
  H   H24       1.0  0.27369  0.12862  0.59699  1.0000
  H   H25       1.0  0.33705  0.84484  0.89543  1.0000
  H   H26       1.0  0.16295  0.34484  0.10458  1.0000
  H   H27       1.0  0.66295  0.15516  0.10457  1.0000
  H   H28       1.0  0.83705  0.65515  0.89542  1.0000
  H   H29       1.0  0.22279  0.00559  0.01421  1.0000
  H   H30       1.0  0.27721  0.50559  0.98579  1.0000
  H   H31       1.0  0.77721  0.99441  0.98579  1.0000
  H   H32       1.0  0.72279  0.49441  0.01421  1.0000
  Pb  Pb1       1.0  0.58857  0.82648  0.71906  1.0000
  Pb  Pb2       1.0  0.91143  0.32648  0.28095  1.0000
  Pb  Pb3       1.0  0.41144  0.17352  0.28095  1.0000
  Pb  Pb4       1.0  0.08857  0.67353  0.71905  1.0000
  C   C1        1.0  0.57877  0.18123  0.74309  1.0000
  C   C2        1.0  0.92123  0.68123  0.25691  1.0000
  C   C3        1.0  0.42123  0.81877  0.25691  1.0000
  C   C4        1.0  0.07877  0.31877  0.74309  1.0000
  C   C5        1.0  0.48818  0.13624  0.82136  1.0000
  C   C6        1.0  0.01182  0.63624  0.17864  1.0000
  C   C7        1.0  0.51182  0.86376  0.17864  1.0000
  C   C8        1.0  0.98818  0.36376  0.82136  1.0000
  C   C9        1.0  0.75767  0.10117  0.53312  1.0000
  C   C10       1.0  0.74233  0.60117  0.46688  1.0000
  C   C11       1.0  0.24233  0.89883  0.46688  1.0000
  C   C12       1.0  0.25767  0.39883  0.53312  1.0000
  C   C13       1.0  0.62786  0.31589  0.71885  1.0000
  C   C14       1.0  0.87213  0.81589  0.28116  1.0000
  C   C15       1.0  0.37214  0.68411  0.28115  1.0000
  C   C16       1.0  0.12787  0.18411  0.71884  1.0000
  C   C17       1.0  0.34043  0.18381  0.95676  1.0000
  C   C18       1.0  0.15957  0.68381  0.04324  1.0000
  C   C19       1.0  0.65957  0.81619  0.04324  1.0000
  C   C20       1.0  0.84043  0.31619  0.95676  1.0000
  C   C21       1.0  0.43467  0.23107  0.88633  1.0000
  C   C22       1.0  0.06532  0.73106  0.11367  1.0000
  C   C23       1.0  0.56532  0.76894  0.11367  1.0000
  C   C24       1.0  0.93468  0.26894  0.88633  1.0000
  C   C25       1.0  0.70973  0.29869  0.63879  1.0000
  C   C26       1.0  0.79028  0.79869  0.36121  1.0000
  C   C27       1.0  0.29028  0.70131  0.36121  1.0000
  C   C28       1.0  0.20973  0.20131  0.63879  1.0000
  C   C29       1.0  0.35990  0.95594  0.89498  1.0000
  C   C30       1.0  0.14010  0.45594  0.10502  1.0000
  C   C31       1.0  0.64010  0.04406  0.10502  1.0000
  C   C32       1.0  0.85990  0.54406  0.89498  1.0000
  C   C33       1.0  0.29859  0.04428  0.96040  1.0000
  C   C34       1.0  0.20140  0.54428  0.03960  1.0000
  C   C35       1.0  0.70140  0.95572  0.03960  1.0000
  C   C36       1.0  0.79860  0.45572  0.96040  1.0000
  C   C37       1.0  0.63657  0.13480  0.45044  1.0000
  C   C38       1.0  0.86343  0.63480  0.54956  1.0000
  C   C39       1.0  0.36342  0.86521  0.54956  1.0000
  C   C40       1.0  0.13658  0.36520  0.45044  1.0000
  N   N1        1.0  0.70665  0.16159  0.61810  1.0000
  N   N2        1.0  0.79335  0.66159  0.38190  1.0000
  N   N3        1.0  0.29335  0.83841  0.38190  1.0000
  N   N4        1.0  0.20665  0.33841  0.61810  1.0000
  N   N5        1.0  0.62573  0.08849  0.68007  1.0000
  N   N6        1.0  0.87426  0.58849  0.31993  1.0000
  N   N7        1.0  0.37427  0.91151  0.31993  1.0000
  N   N8        1.0  0.12574  0.41151  0.68007  1.0000
  N   N9        1.0  0.45396  0.99974  0.82793  1.0000
  N   N10       1.0  0.04604  0.49974  0.17207  1.0000
  N   N11       1.0  0.54604  0.00026  0.17207  1.0000
  N   N12       1.0  0.95396  0.50026  0.82793  1.0000
  Cl  Cl1       1.0  0.41538  0.61740  0.82326  1.0000
  Cl  Cl2       1.0  0.08462  0.11740  0.17674  1.0000
  Cl  Cl3       1.0  0.58461  0.38261  0.17674  1.0000
  Cl  Cl4       1.0  0.91539  0.88261  0.82326  1.0000
  O   O1        1.0  0.49030  0.16772  0.46522  1.0000
  O   O2        1.0  0.00970  0.66773  0.53478  1.0000
  O   O3        1.0  0.50969  0.83228  0.53478  1.0000
  O   O4        1.0  0.99031  0.33227  0.46522  1.0000
  O   O5        1.0  0.69336  0.12524  0.37027  1.0000
  O   O6        1.0  0.80664  0.62524  0.62973  1.0000
  O   O7        1.0  0.30664  0.87475  0.62974  1.0000
  O   O8        1.0  0.19336  0.37475  0.37027  1.0000
