data_image0
_chemical_formula_structural       Sm2Cu2H32C32N16O16
_chemical_formula_sum              "Sm2 Cu2 H32 C32 N16 O16"
_cell_length_a       9.25197
_cell_length_b       10.9046
_cell_length_c       10.9046
_cell_angle_alpha    88.2989
_cell_angle_beta     72.8473
_cell_angle_gamma    72.8473

_space_group_name_H-M_alt    "P 1"
_space_group_IT_number       1

loop_
  _space_group_symop_operation_xyz
  'x, y, z'

loop_
  _atom_site_type_symbol
  _atom_site_label
  _atom_site_symmetry_multiplicity
  _atom_site_fract_x
  _atom_site_fract_y
  _atom_site_fract_z
  _atom_site_occupancy
  Sm  Sm1       1.0  0.25000  0.96699  0.03301  1.0000
  Sm  Sm2       1.0  0.75000  0.03301  0.96699  1.0000
  Cu  Cu1       1.0  1.00000  0.00000  0.50000  1.0000
  Cu  Cu2       1.0  0.50000  0.50000  0.00000  1.0000
  H   H1        1.0  0.93506  0.25323  0.63354  1.0000
  H   H2        1.0  0.56494  0.36646  0.74677  1.0000
  H   H3        1.0  0.06494  0.74677  0.36646  1.0000
  H   H4        1.0  0.43506  0.63353  0.25323  1.0000
  H   H5        1.0  0.06801  0.36262  0.44684  1.0000
  H   H6        1.0  0.43198  0.55316  0.63738  1.0000
  H   H7        1.0  0.93198  0.63738  0.55316  1.0000
  H   H8        1.0  0.56802  0.44683  0.36262  1.0000
  H   H9        1.0  0.35745  0.32403  0.38672  1.0000
  H   H10       1.0  0.14255  0.61328  0.67597  1.0000
  H   H11       1.0  0.64255  0.67597  0.61328  1.0000
  H   H12       1.0  0.85745  0.38672  0.32403  1.0000
  H   H13       1.0  0.38409  0.06963  0.69575  1.0000
  H   H14       1.0  0.11591  0.30425  0.93037  1.0000
  H   H15       1.0  0.61592  0.93037  0.30424  1.0000
  H   H16       1.0  0.88408  0.69576  0.06963  1.0000
  H   H17       1.0  0.96315  0.15745  0.23024  1.0000
  H   H18       1.0  0.53685  0.76976  0.84255  1.0000
  H   H19       1.0  0.03685  0.84255  0.76976  1.0000
  H   H20       1.0  0.46315  0.23024  0.15745  1.0000
  H   H21       1.0  0.10855  0.78773  0.92700  1.0000
  H   H22       1.0  0.39145  0.07300  0.21227  1.0000
  H   H23       1.0  0.89145  0.21227  0.07300  1.0000
  H   H24       1.0  0.60856  0.92701  0.78773  1.0000
  H   H25       1.0  0.08226  0.23793  0.16909  1.0000
  H   H26       1.0  0.41774  0.83091  0.76207  1.0000
  H   H27       1.0  0.91774  0.76207  0.83091  1.0000
  H   H28       1.0  0.58226  0.16909  0.23793  1.0000
  H   H29       1.0  0.18145  0.70431  0.02717  1.0000
  H   H30       1.0  0.31855  0.97283  0.29569  1.0000
  H   H31       1.0  0.81856  0.29569  0.97283  1.0000
  H   H32       1.0  0.68145  0.02718  0.70431  1.0000
  C   C1        1.0  0.06874  0.09024  0.78326  1.0000
  C   C2        1.0  0.43126  0.21674  0.90976  1.0000
  C   C3        1.0  0.93126  0.90975  0.21674  1.0000
  C   C4        1.0  0.56874  0.78326  0.09025  1.0000
  C   C5        1.0  0.15230  0.15509  0.67445  1.0000
  C   C6        1.0  0.34771  0.32555  0.84491  1.0000
  C   C7        1.0  0.84771  0.84491  0.32555  1.0000
  C   C8        1.0  0.65229  0.67445  0.15509  1.0000
  C   C9        1.0  0.06270  0.23715  0.60413  1.0000
  C   C10       1.0  0.43730  0.39587  0.76286  1.0000
  C   C11       1.0  0.93730  0.76286  0.39587  1.0000
  C   C12       1.0  0.56270  0.60413  0.23715  1.0000
  C   C13       1.0  0.13665  0.29847  0.50166  1.0000
  C   C14       1.0  0.36335  0.49833  0.70153  1.0000
  C   C15       1.0  0.86335  0.70153  0.49834  1.0000
  C   C16       1.0  0.63665  0.50166  0.29847  1.0000
  C   C17       1.0  0.30001  0.27631  0.46725  1.0000
  C   C18       1.0  0.19999  0.53275  0.72369  1.0000
  C   C19       1.0  0.69999  0.72369  0.53275  1.0000
  C   C20       1.0  0.80001  0.46725  0.27631  1.0000
  C   C21       1.0  0.39155  0.19253  0.53535  1.0000
  C   C22       1.0  0.10845  0.46465  0.80747  1.0000
  C   C23       1.0  0.60845  0.80747  0.46465  1.0000
  C   C24       1.0  0.89156  0.53535  0.19253  1.0000
  C   C25       1.0  0.56366  0.16636  0.49319  1.0000
  C   C26       1.0  0.93634  0.50681  0.83364  1.0000
  C   C27       1.0  0.43634  0.83364  0.50681  1.0000
  C   C28       1.0  0.06366  0.49319  0.16636  1.0000
  C   C29       1.0  0.31600  0.13338  0.64043  1.0000
  C   C30       1.0  0.18400  0.35956  0.86662  1.0000
  C   C31       1.0  0.68400  0.86662  0.35956  1.0000
  C   C32       1.0  0.81600  0.64043  0.13338  1.0000
  N   N1        1.0  0.66448  0.10966  0.55999  1.0000
  N   N2        1.0  0.83552  0.44001  0.89034  1.0000
  N   N3        1.0  0.33552  0.89035  0.44002  1.0000
  N   N4        1.0  0.16448  0.55998  0.10966  1.0000
  N   N5        1.0  0.80864  0.10265  0.48014  1.0000
  N   N6        1.0  0.69136  0.51986  0.89735  1.0000
  N   N7        1.0  0.19136  0.89735  0.51986  1.0000
  N   N8        1.0  0.30864  0.48014  0.10265  1.0000
  N   N9        1.0  0.79712  0.15415  0.37004  1.0000
  N   N10       1.0  0.70288  0.62996  0.84585  1.0000
  N   N11       1.0  0.20288  0.84585  0.62996  1.0000
  N   N12       1.0  0.29712  0.37004  0.15415  1.0000
  N   N13       1.0  0.64478  0.19393  0.37558  1.0000
  N   N14       1.0  0.85523  0.62442  0.80607  1.0000
  N   N15       1.0  0.35523  0.80607  0.62442  1.0000
  N   N16       1.0  0.14477  0.37558  0.19393  1.0000
  O   O1        1.0  0.13599  0.03940  0.86672  1.0000
  O   O2        1.0  0.36402  0.13328  0.96060  1.0000
  O   O3        1.0  0.86401  0.96060  0.13328  1.0000
  O   O4        1.0  0.63598  0.86672  0.03940  1.0000
  O   O5        1.0  0.93080  0.08911  0.78564  1.0000
  O   O6        1.0  0.56920  0.21437  0.91089  1.0000
  O   O7        1.0  0.06920  0.91089  0.21436  1.0000
  O   O8        1.0  0.43080  0.78564  0.08911  1.0000
  O   O9        1.0  0.03644  0.17212  0.14701  1.0000
  O   O10       1.0  0.46356  0.85299  0.82788  1.0000
  O   O11       1.0  0.96356  0.82788  0.85299  1.0000
  O   O12       1.0  0.53644  0.14701  0.17212  1.0000
  O   O13       1.0  0.19340  0.77506  0.96896  1.0000
  O   O14       1.0  0.30660  0.03104  0.22494  1.0000
  O   O15       1.0  0.80660  0.22494  0.03104  1.0000
  O   O16       1.0  0.69340  0.96896  0.77506  1.0000
