data_image0
_chemical_formula_structural       Ho2Cu2H32C32N16O16
_chemical_formula_sum              "Ho2 Cu2 H32 C32 N16 O16"
_cell_length_a       9.23055
_cell_length_b       10.8491
_cell_length_c       10.8491
_cell_angle_alpha    87.8921
_cell_angle_beta     72.6132
_cell_angle_gamma    72.6131

_space_group_name_H-M_alt    "P 1"
_space_group_IT_number       1

loop_
  _space_group_symop_operation_xyz
  'x, y, z'

loop_
  _atom_site_type_symbol
  _atom_site_label
  _atom_site_symmetry_multiplicity
  _atom_site_fract_x
  _atom_site_fract_y
  _atom_site_fract_z
  _atom_site_occupancy
  Ho  Ho1       1.0  0.25000  0.96739  0.03261  1.0000
  Ho  Ho2       1.0  0.75000  0.03261  0.96739  1.0000
  Cu  Cu1       1.0  1.00000  1.00000  0.50000  1.0000
  Cu  Cu2       1.0  0.50000  0.50000  1.00000  1.0000
  H   H1        1.0  0.35381  0.32251  0.38487  1.0000
  H   H2        1.0  0.14618  0.61513  0.67749  1.0000
  H   H3        1.0  0.64618  0.67749  0.61513  1.0000
  H   H4        1.0  0.85382  0.38487  0.32250  1.0000
  H   H5        1.0  0.06325  0.36034  0.44750  1.0000
  H   H6        1.0  0.43674  0.55250  0.63966  1.0000
  H   H7        1.0  0.93674  0.63966  0.55250  1.0000
  H   H8        1.0  0.56326  0.44750  0.36034  1.0000
  H   H9        1.0  0.93179  0.25103  0.63768  1.0000
  H   H10       1.0  0.56821  0.36232  0.74896  1.0000
  H   H11       1.0  0.06821  0.74896  0.36232  1.0000
  H   H12       1.0  0.43179  0.63768  0.25103  1.0000
  H   H13       1.0  0.38433  0.06888  0.69837  1.0000
  H   H14       1.0  0.11568  0.30163  0.93112  1.0000
  H   H15       1.0  0.61567  0.93112  0.30163  1.0000
  H   H16       1.0  0.88432  0.69837  0.06888  1.0000
  H   H17       1.0  0.38837  0.07104  0.20768  1.0000
  H   H18       1.0  0.11164  0.79232  0.92896  1.0000
  H   H19       1.0  0.61164  0.92896  0.79232  1.0000
  H   H20       1.0  0.88837  0.20768  0.07104  1.0000
  H   H21       1.0  0.31366  0.97193  0.29201  1.0000
  H   H22       1.0  0.18634  0.70799  0.02807  1.0000
  H   H23       1.0  0.68634  0.02807  0.70799  1.0000
  H   H24       1.0  0.81366  0.29201  0.97193  1.0000
  H   H25       1.0  0.08376  0.23534  0.16312  1.0000
  H   H26       1.0  0.41624  0.83688  0.76467  1.0000
  H   H27       1.0  0.91624  0.76466  0.83689  1.0000
  H   H28       1.0  0.58376  0.16312  0.23533  1.0000
  H   H29       1.0  0.96596  0.15395  0.22513  1.0000
  H   H30       1.0  0.53404  0.77487  0.84605  1.0000
  H   H31       1.0  0.03405  0.84605  0.77487  1.0000
  H   H32       1.0  0.46595  0.22513  0.15395  1.0000
  C   C1        1.0  0.56248  0.16582  0.49277  1.0000
  C   C2        1.0  0.93752  0.50723  0.83419  1.0000
  C   C3        1.0  0.43752  0.83419  0.50723  1.0000
  C   C4        1.0  0.06248  0.49277  0.16581  1.0000
  C   C5        1.0  0.38973  0.19164  0.53583  1.0000
  C   C6        1.0  0.11027  0.46417  0.80836  1.0000
  C   C7        1.0  0.61027  0.80836  0.46417  1.0000
  C   C8        1.0  0.88973  0.53583  0.19164  1.0000
  C   C9        1.0  0.29692  0.27497  0.46706  1.0000
  C   C10       1.0  0.20308  0.53294  0.72503  1.0000
  C   C11       1.0  0.70308  0.72503  0.53294  1.0000
  C   C12       1.0  0.79692  0.46706  0.27497  1.0000
  C   C13       1.0  0.13298  0.29658  0.50281  1.0000
  C   C14       1.0  0.36701  0.49719  0.70342  1.0000
  C   C15       1.0  0.86701  0.70342  0.49720  1.0000
  C   C16       1.0  0.63298  0.50281  0.29658  1.0000
  C   C17       1.0  0.05987  0.23518  0.60719  1.0000
  C   C18       1.0  0.44013  0.39281  0.76482  1.0000
  C   C19       1.0  0.94013  0.76482  0.39282  1.0000
  C   C20       1.0  0.55987  0.60719  0.23518  1.0000
  C   C21       1.0  0.15083  0.15350  0.67807  1.0000
  C   C22       1.0  0.34918  0.32193  0.84651  1.0000
  C   C23       1.0  0.84917  0.84651  0.32193  1.0000
  C   C24       1.0  0.65082  0.67807  0.15350  1.0000
  C   C25       1.0  0.31507  0.13233  0.64267  1.0000
  C   C26       1.0  0.18493  0.35733  0.86767  1.0000
  C   C27       1.0  0.68493  0.86767  0.35733  1.0000
  C   C28       1.0  0.81507  0.64267  0.13233  1.0000
  C   C29       1.0  0.06859  0.08850  0.78909  1.0000
  C   C30       1.0  0.43142  0.21091  0.91150  1.0000
  C   C31       1.0  0.93141  0.91150  0.21091  1.0000
  C   C32       1.0  0.56858  0.78909  0.08850  1.0000
  N   N1        1.0  0.66376  0.11023  0.56043  1.0000
  N   N2        1.0  0.83624  0.43957  0.88977  1.0000
  N   N3        1.0  0.33624  0.88977  0.43957  1.0000
  N   N4        1.0  0.16376  0.56043  0.11023  1.0000
  N   N5        1.0  0.80836  0.10291  0.47934  1.0000
  N   N6        1.0  0.69164  0.52066  0.89709  1.0000
  N   N7        1.0  0.19164  0.89709  0.52066  1.0000
  N   N8        1.0  0.30836  0.47934  0.10291  1.0000
  N   N9        1.0  0.79673  0.15317  0.36776  1.0000
  N   N10       1.0  0.70327  0.63223  0.84683  1.0000
  N   N11       1.0  0.20327  0.84683  0.63224  1.0000
  N   N12       1.0  0.29673  0.36777  0.15317  1.0000
  N   N13       1.0  0.64372  0.19245  0.37356  1.0000
  N   N14       1.0  0.85628  0.62644  0.80755  1.0000
  N   N15       1.0  0.35627  0.80755  0.62644  1.0000
  N   N16       1.0  0.14372  0.37356  0.19245  1.0000
  O   O1        1.0  0.13787  0.03790  0.87216  1.0000
  O   O2        1.0  0.36214  0.12783  0.96209  1.0000
  O   O3        1.0  0.86214  0.96209  0.12783  1.0000
  O   O4        1.0  0.63786  0.87217  0.03791  1.0000
  O   O5        1.0  0.92973  0.08713  0.79360  1.0000
  O   O6        1.0  0.57028  0.20640  0.91287  1.0000
  O   O7        1.0  0.07028  0.91287  0.20640  1.0000
  O   O8        1.0  0.42973  0.79360  0.08713  1.0000
  O   O9        1.0  0.30066  0.03168  0.22175  1.0000
  O   O10       1.0  0.19934  0.77825  0.96833  1.0000
  O   O11       1.0  0.69934  0.96833  0.77824  1.0000
  O   O12       1.0  0.80066  0.22175  0.03167  1.0000
  O   O13       1.0  0.03826  0.16922  0.14084  1.0000
  O   O14       1.0  0.46175  0.85916  0.83078  1.0000
  O   O15       1.0  0.96174  0.83078  0.85916  1.0000
  O   O16       1.0  0.53826  0.14084  0.16922  1.0000
