data_image0
_chemical_formula_structural       Nd2Cu2H32C32N16O16
_chemical_formula_sum              "Nd2 Cu2 H32 C32 N16 O16"
_cell_length_a       9.2576
_cell_length_b       10.9484
_cell_length_c       10.9484
_cell_angle_alpha    88.3057
_cell_angle_beta     72.8299
_cell_angle_gamma    72.83

_space_group_name_H-M_alt    "P 1"
_space_group_IT_number       1

loop_
  _space_group_symop_operation_xyz
  'x, y, z'

loop_
  _atom_site_type_symbol
  _atom_site_label
  _atom_site_symmetry_multiplicity
  _atom_site_fract_x
  _atom_site_fract_y
  _atom_site_fract_z
  _atom_site_occupancy
  Nd  Nd1       1.0  0.75000  0.46722  0.53278  1.0000
  Nd  Nd2       1.0  0.25000  0.53278  0.46722  1.0000
  Cu  Cu1       1.0  1.00000  1.00000  0.50000  1.0000
  Cu  Cu2       1.0  0.50000  0.50000  0.00000  1.0000
  H   H1        1.0  0.93559  0.13194  0.75385  1.0000
  H   H2        1.0  0.56441  0.24615  0.86806  1.0000
  H   H3        1.0  0.06441  0.86806  0.24615  1.0000
  H   H4        1.0  0.43559  0.75385  0.13194  1.0000
  H   H5        1.0  0.06887  0.94718  0.86384  1.0000
  H   H6        1.0  0.43113  0.13616  0.05282  1.0000
  H   H7        1.0  0.93113  0.05282  0.13616  1.0000
  H   H8        1.0  0.56887  0.86384  0.94718  1.0000
  H   H9        1.0  0.35831  0.88780  0.82496  1.0000
  H   H10       1.0  0.14169  0.17505  0.11220  1.0000
  H   H11       1.0  0.64168  0.11219  0.17505  1.0000
  H   H12       1.0  0.85831  0.82496  0.88780  1.0000
  H   H13       1.0  0.38388  0.19439  0.56991  1.0000
  H   H14       1.0  0.11612  0.43009  0.80561  1.0000
  H   H15       1.0  0.61612  0.80561  0.43009  1.0000
  H   H16       1.0  0.88388  0.56991  0.19439  1.0000
  H   H17       1.0  0.46168  0.65935  0.73210  1.0000
  H   H18       1.0  0.03832  0.26790  0.34065  1.0000
  H   H19       1.0  0.53832  0.34065  0.26790  1.0000
  H   H20       1.0  0.96168  0.73210  0.65935  1.0000
  H   H21       1.0  0.58130  0.73941  0.67093  1.0000
  H   H22       1.0  0.91870  0.32907  0.26059  1.0000
  H   H23       1.0  0.41870  0.26058  0.32907  1.0000
  H   H24       1.0  0.08130  0.67093  0.73941  1.0000
  H   H25       1.0  0.89206  0.57359  0.71457  1.0000
  H   H26       1.0  0.60794  0.28542  0.42641  1.0000
  H   H27       1.0  0.10794  0.42641  0.28543  1.0000
  H   H28       1.0  0.39206  0.71457  0.57359  1.0000
  H   H29       1.0  0.82034  0.47258  0.79701  1.0000
  H   H30       1.0  0.67966  0.20299  0.52742  1.0000
  H   H31       1.0  0.17966  0.52742  0.20299  1.0000
  H   H32       1.0  0.32034  0.79701  0.47258  1.0000
  C   C1        1.0  0.56397  0.99316  0.66663  1.0000
  C   C2        1.0  0.93603  0.33337  0.00684  1.0000
  C   C3        1.0  0.43603  0.00684  0.33337  1.0000
  C   C4        1.0  0.06397  0.66663  0.99316  1.0000
  C   C5        1.0  0.39183  0.03516  0.69305  1.0000
  C   C6        1.0  0.10817  0.30696  0.96484  1.0000
  C   C7        1.0  0.60817  0.96484  0.30696  1.0000
  C   C8        1.0  0.89183  0.69305  0.03516  1.0000
  C   C9        1.0  0.30058  0.96755  0.77705  1.0000
  C   C10       1.0  0.19942  0.22295  0.03245  1.0000
  C   C11       1.0  0.69941  0.03245  0.22295  1.0000
  C   C12       1.0  0.80058  0.77705  0.96755  1.0000
  C   C13       1.0  0.13728  0.00152  0.79937  1.0000
  C   C14       1.0  0.36272  0.20063  0.99848  1.0000
  C   C15       1.0  0.86271  0.99848  0.20063  1.0000
  C   C16       1.0  0.63728  0.79937  0.00152  1.0000
  C   C17       1.0  0.06314  0.10307  0.73792  1.0000
  C   C18       1.0  0.43686  0.26208  0.89693  1.0000
  C   C19       1.0  0.93686  0.89693  0.26208  1.0000
  C   C20       1.0  0.56314  0.73792  0.10307  1.0000
  C   C21       1.0  0.15243  0.17300  0.65578  1.0000
  C   C22       1.0  0.34756  0.34422  0.82700  1.0000
  C   C23       1.0  0.84756  0.82700  0.34423  1.0000
  C   C24       1.0  0.65244  0.65578  0.17300  1.0000
  C   C25       1.0  0.31603  0.13950  0.63392  1.0000
  C   C26       1.0  0.18397  0.36608  0.86050  1.0000
  C   C27       1.0  0.68397  0.86050  0.36608  1.0000
  C   C28       1.0  0.81604  0.63393  0.13949  1.0000
  C   C29       1.0  0.06835  0.28078  0.59100  1.0000
  C   C30       1.0  0.43165  0.40900  0.71922  1.0000
  C   C31       1.0  0.93165  0.71922  0.40900  1.0000
  C   C32       1.0  0.56835  0.59100  0.28078  1.0000
  N   N1        1.0  0.66469  0.05969  0.61010  1.0000
  N   N2        1.0  0.83531  0.38990  0.94031  1.0000
  N   N3        1.0  0.33531  0.94031  0.38990  1.0000
  N   N4        1.0  0.16469  0.61010  0.05969  1.0000
  N   N5        1.0  0.80893  0.98011  0.60276  1.0000
  N   N6        1.0  0.69107  0.39724  0.01989  1.0000
  N   N7        1.0  0.19107  0.01989  0.39724  1.0000
  N   N8        1.0  0.30893  0.60276  0.98010  1.0000
  N   N9        1.0  0.79749  0.87037  0.65390  1.0000
  N   N10       1.0  0.70251  0.34610  0.12963  1.0000
  N   N11       1.0  0.20251  0.12963  0.34610  1.0000
  N   N12       1.0  0.29749  0.65390  0.87037  1.0000
  N   N13       1.0  0.64522  0.87595  0.69388  1.0000
  N   N14       1.0  0.85478  0.30612  0.12406  1.0000
  N   N15       1.0  0.35478  0.12405  0.30612  1.0000
  N   N16       1.0  0.14522  0.69388  0.87594  1.0000
  O   O1        1.0  0.93090  0.28219  0.58971  1.0000
  O   O2        1.0  0.56910  0.41029  0.71781  1.0000
  O   O3        1.0  0.06910  0.71781  0.41029  1.0000
  O   O4        1.0  0.43090  0.58971  0.28219  1.0000
  O   O5        1.0  0.13451  0.36449  0.54024  1.0000
  O   O6        1.0  0.36548  0.45976  0.63551  1.0000
  O   O7        1.0  0.86548  0.63551  0.45976  1.0000
  O   O8        1.0  0.63452  0.54024  0.36449  1.0000
  O   O9        1.0  0.53505  0.67407  0.64921  1.0000
  O   O10       1.0  0.96495  0.35078  0.32593  1.0000
  O   O11       1.0  0.46495  0.32593  0.35079  1.0000
  O   O12       1.0  0.03505  0.64921  0.67407  1.0000
  O   O13       1.0  0.80873  0.53038  0.72634  1.0000
  O   O14       1.0  0.69126  0.27366  0.46962  1.0000
  O   O15       1.0  0.19126  0.46962  0.27366  1.0000
  O   O16       1.0  0.30874  0.72634  0.53038  1.0000
