data_image0
_chemical_formula_structural       Cd2H12C18S2O8
_chemical_formula_sum              "Cd2 H12 C18 S2 O8"
_cell_length_a       5.98538
_cell_length_b       7.86434
_cell_length_c       10.0587
_cell_angle_alpha    93.3528
_cell_angle_beta     89.9947
_cell_angle_gamma    89.9992

_space_group_name_H-M_alt    "P 1"
_space_group_IT_number       1

loop_
  _space_group_symop_operation_xyz
  'x, y, z'

loop_
  _atom_site_type_symbol
  _atom_site_label
  _atom_site_symmetry_multiplicity
  _atom_site_fract_x
  _atom_site_fract_y
  _atom_site_fract_z
  _atom_site_occupancy
  Cd  Cd1       1.0  0.58046  0.61849  0.55150  1.0000
  Cd  Cd2       1.0  0.08046  0.38153  0.44850  1.0000
  H   H1        1.0  0.07238  0.70996  0.83247  1.0000
  H   H2        1.0  0.57242  0.29004  0.16751  1.0000
  H   H3        1.0  0.10692  0.60215  0.05700  1.0000
  H   H4        1.0  0.60694  0.39786  0.94297  1.0000
  H   H5        1.0  0.45136  0.79172  0.15897  1.0000
  H   H6        1.0  0.95136  0.20826  0.84107  1.0000
  H   H7        1.0  0.41294  0.90339  0.93436  1.0000
  H   H8        1.0  0.91298  0.09656  0.06566  1.0000
  H   H9        1.0  0.94380  0.01056  0.56212  1.0000
  H   H10       1.0  0.44383  0.98942  0.43786  1.0000
  H   H11       1.0  0.08453  0.98062  0.71190  1.0000
  H   H12       1.0  0.58455  0.01940  0.28807  1.0000
  C   C1        1.0  0.74091  0.81664  0.86881  1.0000
  C   C2        1.0  0.24095  0.18336  0.13119  1.0000
  C   C3        1.0  0.93627  0.73134  0.90320  1.0000
  C   C4        1.0  0.43630  0.26866  0.09680  1.0000
  C   C5        1.0  0.95642  0.67006  0.02992  1.0000
  C   C6        1.0  0.45645  0.32994  0.97006  1.0000
  C   C7        1.0  0.78460  0.69425  0.12366  1.0000
  C   C8        1.0  0.28461  0.30573  0.87635  1.0000
  C   C9        1.0  0.58780  0.77670  0.08740  1.0000
  C   C10       1.0  0.08782  0.22328  0.91261  1.0000
  C   C11       1.0  0.56545  0.83750  0.96106  1.0000
  C   C12       1.0  0.06547  0.16248  0.03897  1.0000
  C   C13       1.0  0.81020  0.63350  0.26142  1.0000
  C   C14       1.0  0.31020  0.36650  0.73858  1.0000
  C   C15       1.0  0.96727  0.91965  0.63991  1.0000
  C   C16       1.0  0.46728  0.08035  0.36008  1.0000
  C   C17       1.0  0.07171  0.75779  0.57790  1.0000
  C   C18       1.0  0.57171  0.24222  0.42209  1.0000
  S   S1        1.0  0.69447  0.90547  0.71351  1.0000
  S   S2        1.0  0.19449  0.09452  0.28650  1.0000
  O   O1        1.0  0.69614  0.71151  0.35271  1.0000
  O   O2        1.0  0.19611  0.28852  0.64731  1.0000
  O   O3        1.0  0.94461  0.50931  0.27356  1.0000
  O   O4        1.0  0.44461  0.49071  0.72644  1.0000
  O   O5        1.0  0.96956  0.61556  0.58492  1.0000
  O   O6        1.0  0.46956  0.38444  0.41509  1.0000
  O   O7        1.0  0.25900  0.77573  0.52303  1.0000
  O   O8        1.0  0.75897  0.22428  0.47696  1.0000
