data_image0
_chemical_formula_structural       Rb4H8C22N8O10
_chemical_formula_sum              "Rb4 H8 C22 N8 O10"
_cell_length_a       8.73212
_cell_length_b       9.31943
_cell_length_c       9.89164
_cell_angle_alpha    104.071
_cell_angle_beta     107.344
_cell_angle_gamma    99.8208

_space_group_name_H-M_alt    "P 1"
_space_group_IT_number       1

loop_
  _space_group_symop_operation_xyz
  'x, y, z'

loop_
  _atom_site_type_symbol
  _atom_site_label
  _atom_site_symmetry_multiplicity
  _atom_site_fract_x
  _atom_site_fract_y
  _atom_site_fract_z
  _atom_site_occupancy
  Rb  Rb1       1.0  0.91390  0.92684  0.27347  1.0000
  Rb  Rb2       1.0  0.08610  0.07316  0.72652  1.0000
  Rb  Rb3       1.0  0.63184  0.99325  0.81749  1.0000
  Rb  Rb4       1.0  0.36816  0.00674  0.18251  1.0000
  H   H1        1.0  0.66723  0.95054  0.47785  1.0000
  H   H2        1.0  0.33276  0.04946  0.52215  1.0000
  H   H3        1.0  0.69279  0.12719  0.53339  1.0000
  H   H4        1.0  0.30721  0.87281  0.46661  1.0000
  H   H5        1.0  0.98112  0.29779  0.93986  1.0000
  H   H6        1.0  0.01888  0.70221  0.06014  1.0000
  H   H7        1.0  0.03017  0.21035  0.05764  1.0000
  H   H8        1.0  0.96983  0.78965  0.94236  1.0000
  C   C1        1.0  0.21629  0.50924  0.57353  1.0000
  C   C2        1.0  0.78371  0.49076  0.42647  1.0000
  C   C3        1.0  0.30796  0.58872  0.49971  1.0000
  C   C4        1.0  0.69204  0.41128  0.50029  1.0000
  C   C5        1.0  0.29783  0.47724  0.36278  1.0000
  C   C6        1.0  0.70217  0.52276  0.63722  1.0000
  C   C7        1.0  0.19613  0.33038  0.34860  1.0000
  C   C8        1.0  0.80388  0.66962  0.65140  1.0000
  C   C9        1.0  0.14897  0.34859  0.48445  1.0000
  C   C10       1.0  0.85103  0.65141  0.51555  1.0000
  C   C11       1.0  0.19533  0.57819  0.70638  1.0000
  C   C12       1.0  0.80467  0.42181  0.29362  1.0000
  C   C13       1.0  0.10799  0.49511  0.77498  1.0000
  C   C14       1.0  0.89201  0.50489  0.22502  1.0000
  C   C15       1.0  0.25561  0.73767  0.78112  1.0000
  C   C16       1.0  0.74439  0.26232  0.21888  1.0000
  C   C17       1.0  0.37529  0.50896  0.26433  1.0000
  C   C18       1.0  0.62471  0.49104  0.73567  1.0000
  C   C19       1.0  0.36794  0.39432  0.13686  1.0000
  C   C20       1.0  0.63206  0.60568  0.86315  1.0000
  C   C21       1.0  0.47004  0.65749  0.28745  1.0000
  C   C22       1.0  0.52996  0.34251  0.71255  1.0000
  N   N1        1.0  0.03631  0.43545  0.83789  1.0000
  N   N2        1.0  0.96370  0.56455  0.16211  1.0000
  N   N3        1.0  0.29911  0.86860  0.84855  1.0000
  N   N4        1.0  0.70089  0.13140  0.15145  1.0000
  N   N5        1.0  0.36604  0.30183  0.03169  1.0000
  N   N6        1.0  0.63396  0.69816  0.96831  1.0000
  N   N7        1.0  0.55012  0.77790  0.30023  1.0000
  N   N8        1.0  0.44988  0.22210  0.69976  1.0000
  O   O1        1.0  0.38413  0.72818  0.54702  1.0000
  O   O2        1.0  0.61587  0.27182  0.45298  1.0000
  O   O3        1.0  0.14958  0.20753  0.24305  1.0000
  O   O4        1.0  0.85042  0.79247  0.75695  1.0000
  O   O5        1.0  0.06517  0.24348  0.51050  1.0000
  O   O6        1.0  0.93482  0.75652  0.48949  1.0000
  O   O7        1.0  0.72776  0.04192  0.56515  1.0000
  O   O8        1.0  0.27224  0.95808  0.43485  1.0000
  O   O9        1.0  0.95256  0.19910  0.95809  1.0000
  O   O10       1.0  0.04743  0.80090  0.04191  1.0000
