data_image0
_chemical_formula_structural       Ag4H20C36S4N8O14F12
_chemical_formula_sum              "Ag4 H20 C36 S4 N8 O14 F12"
_cell_length_a       10.803
_cell_length_b       10.8029
_cell_length_c       12.9197
_cell_angle_alpha    65.1584
_cell_angle_beta     65.1586
_cell_angle_gamma    67.0456

_space_group_name_H-M_alt    "P 1"
_space_group_IT_number       1

loop_
  _space_group_symop_operation_xyz
  'x, y, z'

loop_
  _atom_site_type_symbol
  _atom_site_label
  _atom_site_symmetry_multiplicity
  _atom_site_fract_x
  _atom_site_fract_y
  _atom_site_fract_z
  _atom_site_occupancy
  Ag  Ag1       1.0  0.47333  0.24732  0.84151  1.0000
  Ag  Ag2       1.0  0.75268  0.52666  0.65849  1.0000
  Ag  Ag3       1.0  0.52667  0.75267  0.15849  1.0000
  Ag  Ag4       1.0  0.24732  0.47334  0.34151  1.0000
  H   H1        1.0  0.15541  0.69900  0.84881  1.0000
  H   H2        1.0  0.30100  0.84458  0.65119  1.0000
  H   H3        1.0  0.84459  0.30100  0.15119  1.0000
  H   H4        1.0  0.69900  0.15542  0.34881  1.0000
  H   H5        1.0  0.89846  0.47323  0.85223  1.0000
  H   H6        1.0  0.52677  0.10154  0.64777  1.0000
  H   H7        1.0  0.10154  0.52677  0.14777  1.0000
  H   H8        1.0  0.47323  0.89846  0.35223  1.0000
  H   H9        1.0  0.69548  0.68401  0.85582  1.0000
  H   H10       1.0  0.31599  0.30450  0.64418  1.0000
  H   H11       1.0  0.30451  0.31599  0.14418  1.0000
  H   H12       1.0  0.68401  0.69549  0.35582  1.0000
  H   H13       1.0  0.95125  0.91280  0.84919  1.0000
  H   H14       1.0  0.08720  0.04873  0.65081  1.0000
  H   H15       1.0  0.04875  0.08720  0.15081  1.0000
  H   H16       1.0  0.91280  0.95126  0.34919  1.0000
  H   H17       1.0  0.46435  0.54351  0.80759  1.0000
  H   H18       1.0  0.45649  0.53565  0.69241  1.0000
  H   H19       1.0  0.53565  0.45649  0.19241  1.0000
  H   H20       1.0  0.54352  0.46435  0.30759  1.0000
  C   C1        1.0  0.15596  0.45332  0.85142  1.0000
  C   C2        1.0  0.54668  0.84403  0.64858  1.0000
  C   C3        1.0  0.84404  0.54668  0.14858  1.0000
  C   C4        1.0  0.45332  0.15597  0.35142  1.0000
  C   C5        1.0  0.05558  0.69848  0.84739  1.0000
  C   C6        1.0  0.30153  0.94441  0.65260  1.0000
  C   C7        1.0  0.94442  0.30153  0.15261  1.0000
  C   C8        1.0  0.69847  0.05558  0.34739  1.0000
  C   C9        1.0  0.91096  0.56973  0.84951  1.0000
  C   C10       1.0  0.43028  0.08904  0.65049  1.0000
  C   C11       1.0  0.08904  0.43027  0.15049  1.0000
  C   C12       1.0  0.56973  0.91096  0.34951  1.0000
  C   C13       1.0  0.81304  0.81225  0.84869  1.0000
  C   C14       1.0  0.18776  0.18695  0.65131  1.0000
  C   C15       1.0  0.18696  0.18775  0.15131  1.0000
  C   C16       1.0  0.81225  0.81305  0.34869  1.0000
  C   C17       1.0  0.69900  0.93604  0.85010  1.0000
  C   C18       1.0  0.06397  0.30099  0.64990  1.0000
  C   C19       1.0  0.30100  0.06396  0.14990  1.0000
  C   C20       1.0  0.93603  0.69901  0.35010  1.0000
  C   C21       1.0  0.79694  0.68839  0.85037  1.0000
  C   C22       1.0  0.31163  0.20305  0.64963  1.0000
  C   C23       1.0  0.20306  0.31162  0.14963  1.0000
  C   C24       1.0  0.68838  0.79695  0.35037  1.0000
  C   C25       1.0  0.03961  0.57492  0.84796  1.0000
  C   C26       1.0  0.42508  0.96039  0.65204  1.0000
  C   C27       1.0  0.96039  0.42508  0.15204  1.0000
  C   C28       1.0  0.57492  0.03961  0.34796  1.0000
  C   C29       1.0  0.94217  0.81699  0.84758  1.0000
  C   C30       1.0  0.18302  0.05782  0.65242  1.0000
  C   C31       1.0  0.05783  0.18302  0.15242  1.0000
  C   C32       1.0  0.81699  0.94218  0.34758  1.0000
  C   C33       1.0  0.80466  0.16118  0.97878  1.0000
  C   C34       1.0  0.83882  0.19535  0.52122  1.0000
  C   C35       1.0  0.19534  0.83882  0.02122  1.0000
  C   C36       1.0  0.16118  0.80466  0.47878  1.0000
  S   S1        1.0  0.64589  0.31085  0.00680  1.0000
  S   S2        1.0  0.68915  0.35411  0.49320  1.0000
  S   S3        1.0  0.35411  0.68915  0.99320  1.0000
  S   S4        1.0  0.31085  0.64590  0.50680  1.0000
  N   N1        1.0  0.25296  0.35538  0.85763  1.0000
  N   N2        1.0  0.64463  0.74703  0.64237  1.0000
  N   N3        1.0  0.74704  0.64462  0.14237  1.0000
  N   N4        1.0  0.35538  0.25297  0.35763  1.0000
  N   N5        1.0  0.61156  0.04191  0.84961  1.0000
  N   N6        1.0  0.95809  0.38843  0.65039  1.0000
  N   N7        1.0  0.38844  0.95809  0.15038  1.0000
  N   N8        1.0  0.04191  0.61157  0.34961  1.0000
  O   O1        1.0  0.51107  0.48893  0.75000  1.0000
  O   O2        1.0  0.48893  0.51107  0.25000  1.0000
  O   O3        1.0  0.64228  0.31837  0.11873  1.0000
  O   O4        1.0  0.68164  0.35772  0.38128  1.0000
  O   O5        1.0  0.35772  0.68164  0.88127  1.0000
  O   O6        1.0  0.31837  0.64228  0.61872  1.0000
  O   O7        1.0  0.68095  0.43013  0.90218  1.0000
  O   O8        1.0  0.56987  0.31905  0.59782  1.0000
  O   O9        1.0  0.31904  0.56987  0.09783  1.0000
  O   O10       1.0  0.43013  0.68095  0.40218  1.0000
  O   O11       1.0  0.53172  0.26193  0.01718  1.0000
  O   O12       1.0  0.73807  0.46828  0.48282  1.0000
  O   O13       1.0  0.46828  0.73807  0.98282  1.0000
  O   O14       1.0  0.26193  0.53172  0.51718  1.0000
  F   F1        1.0  0.92236  0.18517  0.97374  1.0000
  F   F2        1.0  0.81483  0.07764  0.52625  1.0000
  F   F3        1.0  0.07764  0.81483  0.02626  1.0000
  F   F4        1.0  0.18517  0.92236  0.47375  1.0000
  F   F5        1.0  0.83045  0.14442  0.87219  1.0000
  F   F6        1.0  0.85558  0.16955  0.62781  1.0000
  F   F7        1.0  0.16955  0.85558  0.12781  1.0000
  F   F8        1.0  0.14442  0.83045  0.37219  1.0000
  F   F9        1.0  0.78746  0.03764  0.06589  1.0000
  F   F10       1.0  0.96236  0.21254  0.43411  1.0000
  F   F11       1.0  0.21254  0.96236  0.93411  1.0000
  F   F12       1.0  0.03764  0.78746  0.56589  1.0000
