data_image0
_chemical_formula_structural       H20Pb2C28N4O22
_chemical_formula_sum              "H20 Pb2 C28 N4 O22"
_cell_length_a       4.93487
_cell_length_b       12.0593
_cell_length_c       14.6631
_cell_angle_alpha    67.9086
_cell_angle_beta     86.4418
_cell_angle_gamma    78.7121

_space_group_name_H-M_alt    "P 1"
_space_group_IT_number       1

loop_
  _space_group_symop_operation_xyz
  'x, y, z'

loop_
  _atom_site_type_symbol
  _atom_site_label
  _atom_site_symmetry_multiplicity
  _atom_site_fract_x
  _atom_site_fract_y
  _atom_site_fract_z
  _atom_site_occupancy
  H   H1        1.0  0.98045  0.89064  0.49331  1.0000
  H   H2        1.0  0.01955  0.10936  0.50669  1.0000
  H   H3        1.0  0.37474  0.92956  0.27658  1.0000
  H   H4        1.0  0.62526  0.07044  0.72342  1.0000
  H   H5        1.0  0.30321  0.60039  0.48697  1.0000
  H   H6        1.0  0.69678  0.39961  0.51303  1.0000
  H   H7        1.0  0.58930  0.72599  0.27653  1.0000
  H   H8        1.0  0.41068  0.27401  0.72347  1.0000
  H   H9        1.0  0.08657  0.30493  0.86361  1.0000
  H   H10       1.0  0.91344  0.69507  0.13639  1.0000
  H   H11       1.0  0.29981  0.41452  0.04061  1.0000
  H   H12       1.0  0.70019  0.58548  0.95939  1.0000
  H   H13       1.0  0.60097  0.08106  0.08471  1.0000
  H   H14       1.0  0.39903  0.91894  0.91529  1.0000
  H   H15       1.0  0.72381  0.16952  0.20387  1.0000
  H   H16       1.0  0.27619  0.83047  0.79613  1.0000
  H   H17       1.0  0.69904  0.55869  0.24802  1.0000
  H   H18       1.0  0.30096  0.44131  0.75198  1.0000
  H   H19       1.0  0.58379  0.56215  0.14740  1.0000
  H   H20       1.0  0.41621  0.43785  0.85260  1.0000
  Pb  Pb1       1.0  0.38950  0.36881  0.32093  1.0000
  Pb  Pb2       1.0  0.61050  0.63119  0.67907  1.0000
  C   C1        1.0  0.90715  0.69315  0.38254  1.0000
  C   C2        1.0  0.09284  0.30685  0.61746  1.0000
  C   C3        1.0  0.01513  0.73842  0.44666  1.0000
  C   C4        1.0  0.98486  0.26158  0.55334  1.0000
  C   C5        1.0  0.89394  0.85323  0.44732  1.0000
  C   C6        1.0  0.10606  0.14677  0.55268  1.0000
  C   C7        1.0  0.66969  0.91958  0.38455  1.0000
  C   C8        1.0  0.33031  0.08042  0.61545  1.0000
  C   C9        1.0  0.55145  0.87560  0.32394  1.0000
  C   C10       1.0  0.44854  0.12440  0.67606  1.0000
  C   C11       1.0  0.67324  0.76162  0.32443  1.0000
  C   C12       1.0  0.32675  0.23838  0.67557  1.0000
  C   C13       1.0  0.05600  0.57854  0.37284  1.0000
  C   C14       1.0  0.94399  0.42146  0.62716  1.0000
  C   C15       1.0  0.97280  0.28517  0.10187  1.0000
  C   C16       1.0  0.02720  0.71483  0.89813  1.0000
  C   C17       1.0  0.08371  0.32269  0.00578  1.0000
  C   C18       1.0  0.91629  0.67730  0.99422  1.0000
  C   C19       1.0  0.01161  0.27604  0.93856  1.0000
  C   C20       1.0  0.98840  0.72396  0.06144  1.0000
  C   C21       1.0  0.83797  0.19142  0.96914  1.0000
  C   C22       1.0  0.16204  0.80858  0.03086  1.0000
  C   C23       1.0  0.73172  0.14937  0.06404  1.0000
  C   C24       1.0  0.26829  0.85063  0.93596  1.0000
  C   C25       1.0  0.80177  0.19809  0.12930  1.0000
  C   C26       1.0  0.19824  0.80191  0.87070  1.0000
  C   C27       1.0  0.04435  0.33386  0.17466  1.0000
  C   C28       1.0  0.95566  0.66614  0.82534  1.0000
  N   N1        1.0  0.56033  0.04354  0.37880  1.0000
  N   N2        1.0  0.43968  0.95646  0.62120  1.0000
  N   N3        1.0  0.76219  0.14437  0.89719  1.0000
  N   N4        1.0  0.23782  0.85563  0.10281  1.0000
  O   O1        1.0  0.97144  0.53885  0.31230  1.0000
  O   O2        1.0  0.02855  0.46115  0.68770  1.0000
  O   O3        1.0  0.27692  0.52244  0.42419  1.0000
  O   O4        1.0  0.72308  0.47757  0.57581  1.0000
  O   O5        1.0  0.36086  0.10392  0.32232  1.0000
  O   O6        1.0  0.63916  0.89608  0.67768  1.0000
  O   O7        1.0  0.67380  0.08605  0.42855  1.0000
  O   O8        1.0  0.32620  0.91395  0.57146  1.0000
  O   O9        1.0  0.23666  0.67495  0.50535  1.0000
  O   O10       1.0  0.76334  0.32505  0.49465  1.0000
  O   O11       1.0  0.25081  0.39172  0.15311  1.0000
  O   O12       1.0  0.74919  0.60828  0.84688  1.0000
  O   O13       1.0  0.91797  0.31617  0.25502  1.0000
  O   O14       1.0  0.08204  0.68383  0.74499  1.0000
  O   O15       1.0  0.55304  0.09734  0.91355  1.0000
  O   O16       1.0  0.44697  0.90265  0.08645  1.0000
  O   O17       1.0  0.90959  0.15462  0.82375  1.0000
  O   O18       1.0  0.09041  0.84539  0.17625  1.0000
  O   O19       1.0  0.25848  0.40333  0.97750  1.0000
  O   O20       1.0  0.74153  0.59666  0.02249  1.0000
  O   O21       1.0  0.52756  0.55989  0.21378  1.0000
  O   O22       1.0  0.47243  0.44011  0.78622  1.0000
