data_image0
_chemical_formula_structural       Mn4H20C16O26
_chemical_formula_sum              "Mn4 H20 C16 O26"
_cell_length_a       7.53455
_cell_length_b       8.86759
_cell_length_c       10.8204
_cell_angle_alpha    89.9827
_cell_angle_beta     89.9868
_cell_angle_gamma    95.7569

_space_group_name_H-M_alt    "P 1"
_space_group_IT_number       1

loop_
  _space_group_symop_operation_xyz
  'x, y, z'

loop_
  _atom_site_type_symbol
  _atom_site_label
  _atom_site_symmetry_multiplicity
  _atom_site_fract_x
  _atom_site_fract_y
  _atom_site_fract_z
  _atom_site_occupancy
  Mn  Mn1       1.0  0.17042  0.26450  0.80689  1.0000
  Mn  Mn2       1.0  0.82987  0.73530  0.30685  1.0000
  Mn  Mn3       1.0  0.27437  0.26358  0.29707  1.0000
  Mn  Mn4       1.0  0.72547  0.73635  0.79709  1.0000
  H   H1        1.0  0.41889  0.05167  0.74376  1.0000
  H   H2        1.0  0.58078  0.94770  0.24386  1.0000
  H   H3        1.0  0.12587  0.22169  0.53598  1.0000
  H   H4        1.0  0.87432  0.77851  0.03605  1.0000
  H   H5        1.0  0.99226  0.44493  0.67740  1.0000
  H   H6        1.0  0.00808  0.55537  0.17738  1.0000
  H   H7        1.0  0.50036  0.46247  0.40627  1.0000
  H   H8        1.0  0.49993  0.53664  0.90620  1.0000
  H   H9        1.0  0.27301  0.87486  0.64508  1.0000
  H   H10       1.0  0.72580  0.12486  0.14500  1.0000
  H   H11       1.0  0.09811  0.92059  0.46219  1.0000
  H   H12       1.0  0.90146  0.07950  0.96219  1.0000
  H   H13       1.0  0.15146  0.63825  0.62418  1.0000
  H   H14       1.0  0.84925  0.36195  0.12435  1.0000
  H   H15       1.0  0.37551  0.64873  0.47040  1.0000
  H   H16       1.0  0.62574  0.35091  0.97049  1.0000
  H   H17       1.0  0.17825  0.16118  0.04520  1.0000
  H   H18       1.0  0.82134  0.83902  0.54506  1.0000
  H   H19       1.0  0.36116  0.13120  0.96929  1.0000
  H   H20       1.0  0.63851  0.86863  0.46904  1.0000
  C   C1        1.0  0.02863  0.97005  0.69476  1.0000
  C   C2        1.0  0.97068  0.03055  0.19473  1.0000
  C   C3        1.0  0.21473  0.98280  0.63589  1.0000
  C   C4        1.0  0.78457  0.01713  0.13587  1.0000
  C   C5        1.0  0.19549  0.01140  0.49691  1.0000
  C   C6        1.0  0.80405  0.98864  0.99691  1.0000
  C   C7        1.0  0.36692  0.98727  0.42656  1.0000
  C   C8        1.0  0.63270  0.01272  0.92647  1.0000
  C   C9        1.0  0.37577  0.54762  0.70485  1.0000
  C   C10       1.0  0.62467  0.45206  0.20501  1.0000
  C   C11       1.0  0.22199  0.53624  0.61137  1.0000
  C   C12       1.0  0.77847  0.46383  0.11149  1.0000
  C   C13       1.0  0.29086  0.54047  0.47907  1.0000
  C   C14       1.0  0.70980  0.45946  0.97920  1.0000
  C   C15       1.0  0.14103  0.55253  0.38550  1.0000
  C   C16       1.0  0.85984  0.44793  0.88567  1.0000
  O   O1        1.0  0.93530  0.84140  0.68355  1.0000
  O   O2        1.0  0.06334  0.15955  0.18351  1.0000
  O   O3        1.0  0.97699  0.08621  0.74468  1.0000
  O   O4        1.0  0.02293  0.91462  0.24465  1.0000
  O   O5        1.0  0.33067  0.10121  0.69386  1.0000
  O   O6        1.0  0.66904  0.89839  0.19383  1.0000
  O   O7        1.0  0.12882  0.15247  0.46509  1.0000
  O   O8        1.0  0.87072  0.84759  0.96509  1.0000
  O   O9        1.0  0.42104  0.07634  0.33852  1.0000
  O   O10       1.0  0.57858  0.92352  0.83858  1.0000
  O   O11       1.0  0.43921  0.87129  0.45790  1.0000
  O   O12       1.0  0.56046  0.12880  0.95757  1.0000
  O   O13       1.0  0.50174  0.64979  0.68695  1.0000
  O   O14       1.0  0.49876  0.34991  0.18691  1.0000
  O   O15       1.0  0.36230  0.45785  0.79828  1.0000
  O   O16       1.0  0.63812  0.54140  0.29867  1.0000
  O   O17       1.0  0.09636  0.40545  0.63415  1.0000
  O   O18       1.0  0.90383  0.59479  0.13429  1.0000
  O   O19       1.0  0.39325  0.41670  0.45327  1.0000
  O   O20       1.0  0.60672  0.58275  0.95326  1.0000
  O   O21       1.0  0.13728  0.47146  0.28736  1.0000
  O   O22       1.0  0.86307  0.52889  0.78744  1.0000
  O   O23       1.0  0.03408  0.64925  0.40970  1.0000
  O   O24       1.0  0.96731  0.35162  0.90988  1.0000
  O   O25       1.0  0.22911  0.14356  0.96303  1.0000
  O   O26       1.0  0.77052  0.85610  0.46278  1.0000
