data_image0
_chemical_formula_structural       NiH18C20I8O12
_chemical_formula_sum              "Ni1 H18 C20 I8 O12"
_cell_length_a       9.67269
_cell_length_b       10.4232
_cell_length_c       10.1113
_cell_angle_alpha    102.371
_cell_angle_beta     98.8452
_cell_angle_gamma    112.743

_space_group_name_H-M_alt    "P 1"
_space_group_IT_number       1

loop_
  _space_group_symop_operation_xyz
  'x, y, z'

loop_
  _atom_site_type_symbol
  _atom_site_label
  _atom_site_symmetry_multiplicity
  _atom_site_fract_x
  _atom_site_fract_y
  _atom_site_fract_z
  _atom_site_occupancy
  Ni  Ni1       1.0  0.99999  0.49999  0.49999  1.0000
  H   H1        1.0  0.34086  0.49843  0.56050  1.0000
  H   H2        1.0  0.65912  0.50157  0.43949  1.0000
  H   H3        1.0  0.31029  0.33289  0.43732  1.0000
  H   H4        1.0  0.68971  0.66712  0.56268  1.0000
  H   H5        1.0  0.23492  0.32589  0.58810  1.0000
  H   H6        1.0  0.76509  0.67411  0.41188  1.0000
  H   H7        1.0  0.84116  0.58985  0.21922  1.0000
  H   H8        1.0  0.15886  0.41016  0.78077  1.0000
  H   H9        1.0  0.82258  0.43943  0.07960  1.0000
  H   H10       1.0  0.17744  0.56057  0.92040  1.0000
  H   H11       1.0  0.00982  0.56662  0.19251  1.0000
  H   H12       1.0  0.99019  0.43338  0.80750  1.0000
  H   H13       1.0  0.03459  0.27867  0.39939  1.0000
  H   H14       1.0  0.96539  0.72131  0.60061  1.0000
  H   H15       1.0  0.76683  0.35434  0.26707  1.0000
  H   H16       1.0  0.23316  0.64566  0.73292  1.0000
  H   H17       1.0  0.79310  0.96841  0.31249  1.0000
  H   H18       1.0  0.20688  0.03157  0.68750  1.0000
  C   C1        1.0  0.21062  0.81245  0.54666  1.0000
  C   C2        1.0  0.78939  0.18753  0.45335  1.0000
  C   C3        1.0  0.36127  0.91532  0.52720  1.0000
  C   C4        1.0  0.63872  0.08465  0.47279  1.0000
  C   C5        1.0  0.50340  0.93386  0.60765  1.0000
  C   C6        1.0  0.49656  0.06611  0.39234  1.0000
  C   C7        1.0  0.35766  0.98179  0.42037  1.0000
  C   C8        1.0  0.64232  0.01820  0.57963  1.0000
  C   C9        1.0  0.25863  0.38382  0.50921  1.0000
  C   C10       1.0  0.74137  0.61617  0.49077  1.0000
  C   C11       1.0  0.88660  0.50951  0.18751  1.0000
  C   C12       1.0  0.11341  0.49049  0.81249  1.0000
  C   C13       1.0  0.64353  0.80997  0.15041  1.0000
  C   C14       1.0  0.35650  0.19007  0.84958  1.0000
  C   C15       1.0  0.57481  0.64795  0.07860  1.0000
  C   C16       1.0  0.42521  0.35208  0.92139  1.0000
  C   C17       1.0  0.44231  0.55295  0.10822  1.0000
  C   C18       1.0  0.55769  0.44708  0.89178  1.0000
  C   C19       1.0  0.36702  0.40503  0.02870  1.0000
  C   C20       1.0  0.63299  0.59499  0.97128  1.0000
  I   I1        1.0  0.50952  0.84843  0.77812  1.0000
  I   I2        1.0  0.49047  0.15155  0.22189  1.0000
  I   I3        1.0  0.13967  0.94262  0.29962  1.0000
  I   I4        1.0  0.86030  0.05741  0.70046  1.0000
  I   I5        1.0  0.35971  0.63383  0.27147  1.0000
  I   I6        1.0  0.64033  0.36618  0.72855  1.0000
  I   I7        1.0  0.16089  0.26089  0.06161  1.0000
  I   I8        1.0  0.83915  0.73912  0.93836  1.0000
  O   O1        1.0  0.17157  0.67853  0.48497  1.0000
  O   O2        1.0  0.82842  0.32148  0.51504  1.0000
  O   O3        1.0  0.13606  0.86214  0.61879  1.0000
  O   O4        1.0  0.86393  0.13786  0.38125  1.0000
  O   O5        1.0  0.11971  0.38023  0.42972  1.0000
  O   O6        1.0  0.88027  0.61975  0.57027  1.0000
  O   O7        1.0  0.87618  0.42157  0.28101  1.0000
  O   O8        1.0  0.12381  0.57842  0.71899  1.0000
  O   O9        1.0  0.59755  0.88631  0.09710  1.0000
  O   O10       1.0  0.40248  0.11371  0.90292  1.0000
  O   O11       1.0  0.75282  0.85710  0.26966  1.0000
  O   O12       1.0  0.24720  0.14289  0.73033  1.0000
