data_image0
_chemical_formula_structural       CaP2H28C34N2O8
_chemical_formula_sum              "Ca1 P2 H28 C34 N2 O8"
_cell_length_a       5.63672
_cell_length_b       12.089
_cell_length_c       12.424
_cell_angle_alpha    109.574
_cell_angle_beta     103.086
_cell_angle_gamma    89.9874

_space_group_name_H-M_alt    "P 1"
_space_group_IT_number       1

loop_
  _space_group_symop_operation_xyz
  'x, y, z'

loop_
  _atom_site_type_symbol
  _atom_site_label
  _atom_site_symmetry_multiplicity
  _atom_site_fract_x
  _atom_site_fract_y
  _atom_site_fract_z
  _atom_site_occupancy
  Ca  Ca1       1.0  0.66368  0.99993  0.00005  1.0000
  P   P1        1.0  0.28257  0.10642  0.20253  1.0000
  P   P2        1.0  0.08071  0.89346  0.79751  1.0000
  H   H1        1.0  0.66510  0.00927  0.43534  1.0000
  H   H2        1.0  0.22984  0.99156  0.56517  1.0000
  H   H3        1.0  0.65557  0.81315  0.46037  1.0000
  H   H4        1.0  0.19369  0.18765  0.54018  1.0000
  H   H5        1.0  0.27310  0.67856  0.37472  1.0000
  H   H6        1.0  0.89561  0.32164  0.62573  1.0000
  H   H7        1.0  0.89866  0.74356  0.26804  1.0000
  H   H8        1.0  0.62851  0.25615  0.73242  1.0000
  H   H9        1.0  0.90773  0.94227  0.24915  1.0000
  H   H10       1.0  0.65793  0.05741  0.75121  1.0000
  H   H11       1.0  0.77367  0.19006  0.33653  1.0000
  H   H12       1.0  0.43728  0.80990  0.66323  1.0000
  H   H13       1.0  0.13941  0.33273  0.43143  1.0000
  H   H14       1.0  0.70833  0.66734  0.56808  1.0000
  H   H15       1.0  0.12109  0.53935  0.43758  1.0000
  H   H16       1.0  0.68408  0.46063  0.56160  1.0000
  H   H17       1.0  0.73025  0.60356  0.34218  1.0000
  H   H18       1.0  0.38884  0.39618  0.65702  1.0000
  H   H19       1.0  0.36001  0.46058  0.24972  1.0000
  H   H20       1.0  0.11092  0.53909  0.74980  1.0000
  H   H21       1.0  0.33003  0.82388  0.09432  1.0000
  H   H22       1.0  0.23599  0.17613  0.90611  1.0000
  H   H23       1.0  0.28715  0.61759  0.09268  1.0000
  H   H24       1.0  0.19454  0.38229  0.90747  1.0000
  H   H25       1.0  0.86241  0.53871  0.90655  1.0000
  H   H26       1.0  0.95580  0.46113  0.09309  1.0000
  H   H27       1.0  0.87305  0.74684  0.91114  1.0000
  H   H28       1.0  0.96199  0.25314  0.08889  1.0000
  C   C1        1.0  0.28867  0.98507  0.34001  1.0000
  C   C2        1.0  0.94838  0.01513  0.66035  1.0000
  C   C3        1.0  0.49926  0.94983  0.39908  1.0000
  C   C4        1.0  0.09968  0.05073  0.60137  1.0000
  C   C5        1.0  0.49225  0.83943  0.41178  1.0000
  C   C6        1.0  0.07914  0.16111  0.58871  1.0000
  C   C7        1.0  0.27750  0.76437  0.36400  1.0000
  C   C8        1.0  0.91146  0.23586  0.63649  1.0000
  C   C9        1.0  0.06804  0.80085  0.30458  1.0000
  C   C10       1.0  0.76181  0.19909  0.69586  1.0000
  C   C11       1.0  0.07133  0.91189  0.29294  1.0000
  C   C12       1.0  0.77756  0.08800  0.70745  1.0000
  C   C13       1.0  0.54549  0.31863  0.28912  1.0000
  C   C14       1.0  0.25679  0.68120  0.71054  1.0000
  C   C15       1.0  0.76337  0.28091  0.33968  1.0000
  C   C16       1.0  0.42405  0.71901  0.66001  1.0000
  C   C17       1.0  0.96878  0.36155  0.39225  1.0000
  C   C18       1.0  0.57696  0.63843  0.60726  1.0000
  C   C19       1.0  0.95937  0.47758  0.39409  1.0000
  C   C20       1.0  0.56581  0.52234  0.60524  1.0000
  C   C21       1.0  0.74089  0.51331  0.34169  1.0000
  C   C22       1.0  0.39980  0.48650  0.65762  1.0000
  C   C23       1.0  0.53333  0.43429  0.28963  1.0000
  C   C24       1.0  0.24424  0.56548  0.70989  1.0000
  C   C25       1.0  0.44233  0.75722  0.05207  1.0000
  C   C26       1.0  0.39043  0.24275  0.94819  1.0000
  C   C27       1.0  0.41917  0.64195  0.05087  1.0000
  C   C28       1.0  0.36837  0.35797  0.94925  1.0000
  C   C29       1.0  0.57457  0.56094  0.99996  1.0000
  C   C30       1.0  0.57458  0.43895  0.99995  1.0000
  C   C31       1.0  0.74240  0.59948  0.94986  1.0000
  C   C32       1.0  0.79253  0.40039  0.04999  1.0000
  C   C33       1.0  0.74948  0.71508  0.95240  1.0000
  C   C34       1.0  0.79715  0.28485  0.04762  1.0000
  N   N1        1.0  0.60431  0.79379  0.00394  1.0000
  N   N2        1.0  0.60054  0.20619  0.99629  1.0000
  O   O1        1.0  0.29821  0.09808  0.33263  1.0000
  O   O2        1.0  0.96607  0.90208  0.66758  1.0000
  O   O3        1.0  0.02554  0.07742  0.13047  1.0000
  O   O4        1.0  0.89613  0.92257  0.86985  1.0000
  O   O5        1.0  0.32902  0.24730  0.23655  1.0000
  O   O6        1.0  0.09283  0.75254  0.76322  1.0000
  O   O7        1.0  0.48360  0.04106  0.15508  1.0000
  O   O8        1.0  0.32930  0.95861  0.84478  1.0000
