data_image0
_chemical_formula_structural       Sr2H20C36N16O8
_chemical_formula_sum              "Sr2 H20 C36 N16 O8"
_cell_length_a       7.14051
_cell_length_b       7.47536
_cell_length_c       22.3118
_cell_angle_alpha    90.0005
_cell_angle_beta     90.0004
_cell_angle_gamma    117.35

_space_group_name_H-M_alt    "P 1"
_space_group_IT_number       1

loop_
  _space_group_symop_operation_xyz
  'x, y, z'

loop_
  _atom_site_type_symbol
  _atom_site_label
  _atom_site_symmetry_multiplicity
  _atom_site_fract_x
  _atom_site_fract_y
  _atom_site_fract_z
  _atom_site_occupancy
  Sr  Sr1       1.0  0.40620  0.95706  0.25000  1.0000
  Sr  Sr2       1.0  0.59380  0.04294  0.75000  1.0000
  H   H1        1.0  0.92735  0.70444  0.28557  1.0000
  H   H2        1.0  0.07265  0.29556  0.78557  1.0000
  H   H3        1.0  0.07264  0.29556  0.71444  1.0000
  H   H4        1.0  0.92736  0.70445  0.21444  1.0000
  H   H5        1.0  0.58753  0.66119  0.28525  1.0000
  H   H6        1.0  0.41248  0.33881  0.78524  1.0000
  H   H7        1.0  0.41247  0.33881  0.71475  1.0000
  H   H8        1.0  0.58752  0.66119  0.21476  1.0000
  H   H9        1.0  0.72550  0.11479  0.13780  1.0000
  H   H10       1.0  0.27450  0.88522  0.63780  1.0000
  H   H11       1.0  0.27450  0.88522  0.86220  1.0000
  H   H12       1.0  0.72550  0.11478  0.36220  1.0000
  H   H13       1.0  0.87811  0.13747  0.19060  1.0000
  H   H14       1.0  0.12190  0.86254  0.69060  1.0000
  H   H15       1.0  0.12189  0.86253  0.80940  1.0000
  H   H16       1.0  0.87811  0.13747  0.30940  1.0000
  H   H17       1.0  0.22295  0.06855  0.49451  1.0000
  H   H18       1.0  0.77706  0.93146  0.99451  1.0000
  H   H19       1.0  0.77705  0.93144  0.50549  1.0000
  H   H20       1.0  0.22295  0.06854  0.00548  1.0000
  C   C1        1.0  0.24382  0.30425  0.42958  1.0000
  C   C2        1.0  0.75619  0.69577  0.92959  1.0000
  C   C3        1.0  0.75619  0.69573  0.57042  1.0000
  C   C4        1.0  0.24381  0.30426  0.07042  1.0000
  C   C5        1.0  0.25478  0.49899  0.43840  1.0000
  C   C6        1.0  0.74525  0.50103  0.93840  1.0000
  C   C7        1.0  0.74523  0.50099  0.56160  1.0000
  C   C8        1.0  0.25477  0.49899  0.06160  1.0000
  C   C9        1.0  0.24811  0.52763  0.50082  1.0000
  C   C10       1.0  0.75191  0.47239  0.00082  1.0000
  C   C11       1.0  0.75189  0.47235  0.49918  1.0000
  C   C12       1.0  0.24810  0.52763  0.99917  1.0000
  C   C13       1.0  0.23096  0.34972  0.53010  1.0000
  C   C14       1.0  0.76903  0.65029  0.03010  1.0000
  C   C15       1.0  0.76904  0.65027  0.46990  1.0000
  C   C16       1.0  0.23096  0.34971  0.96990  1.0000
  C   C17       1.0  0.22865  0.21383  0.48597  1.0000
  C   C18       1.0  0.77134  0.78618  0.98598  1.0000
  C   C19       1.0  0.77136  0.78616  0.51403  1.0000
  C   C20       1.0  0.22865  0.21383  0.01403  1.0000
  C   C21       1.0  0.25892  0.22481  0.37383  1.0000
  C   C22       1.0  0.74109  0.77520  0.87384  1.0000
  C   C23       1.0  0.74109  0.77518  0.62616  1.0000
  C   C24       1.0  0.25892  0.22482  0.12616  1.0000
  C   C25       1.0  0.27606  0.63883  0.39378  1.0000
  C   C26       1.0  0.72395  0.36118  0.89378  1.0000
  C   C27       1.0  0.72393  0.36115  0.60622  1.0000
  C   C28       1.0  0.27605  0.63883  0.10621  1.0000
  C   C29       1.0  0.26671  0.70049  0.53029  1.0000
  C   C30       1.0  0.73330  0.29953  0.03028  1.0000
  C   C31       1.0  0.73329  0.29950  0.46971  1.0000
  C   C32       1.0  0.26671  0.70048  0.96971  1.0000
  C   C33       1.0  0.23126  0.32818  0.59256  1.0000
  C   C34       1.0  0.76872  0.67182  0.09256  1.0000
  C   C35       1.0  0.76874  0.67181  0.40744  1.0000
  C   C36       1.0  0.23126  0.32817  0.90744  1.0000
  N   N1        1.0  0.27518  0.16098  0.32734  1.0000
  N   N2        1.0  0.72482  0.83902  0.82734  1.0000
  N   N3        1.0  0.72481  0.83901  0.67266  1.0000
  N   N4        1.0  0.27520  0.16099  0.17266  1.0000
  N   N5        1.0  0.29684  0.75563  0.35631  1.0000
  N   N6        1.0  0.70317  0.24438  0.85631  1.0000
  N   N7        1.0  0.70316  0.24436  0.64369  1.0000
  N   N8        1.0  0.29683  0.75563  0.14369  1.0000
  N   N9        1.0  0.28446  0.84227  0.55696  1.0000
  N   N10       1.0  0.71554  0.15775  0.05696  1.0000
  N   N11       1.0  0.71554  0.15771  0.44304  1.0000
  N   N12       1.0  0.28447  0.84227  0.94304  1.0000
  N   N13       1.0  0.23661  0.31925  0.64483  1.0000
  N   N14       1.0  0.76338  0.68075  0.14484  1.0000
  N   N15       1.0  0.76339  0.68073  0.35517  1.0000
  N   N16       1.0  0.23661  0.31925  0.85517  1.0000
  O   O1        1.0  0.01655  0.72729  0.25000  1.0000
  O   O2        1.0  0.98345  0.27271  0.75000  1.0000
  O   O3        1.0  0.50973  0.66985  0.25000  1.0000
  O   O4        1.0  0.49027  0.33015  0.75000  1.0000
  O   O5        1.0  0.73827  0.12280  0.18192  1.0000
  O   O6        1.0  0.26173  0.87720  0.68192  1.0000
  O   O7        1.0  0.26172  0.87720  0.81808  1.0000
  O   O8        1.0  0.73827  0.12280  0.31808  1.0000
