data_image0
_chemical_formula_structural       Ca2H20C36N16O8
_chemical_formula_sum              "Ca2 H20 C36 N16 O8"
_cell_length_a       7.22253
_cell_length_b       7.39654
_cell_length_c       21.9211
_cell_angle_alpha    89.9989
_cell_angle_beta     89.9999
_cell_angle_gamma    118.927

_space_group_name_H-M_alt    "P 1"
_space_group_IT_number       1

loop_
  _space_group_symop_operation_xyz
  'x, y, z'

loop_
  _atom_site_type_symbol
  _atom_site_label
  _atom_site_symmetry_multiplicity
  _atom_site_fract_x
  _atom_site_fract_y
  _atom_site_fract_z
  _atom_site_occupancy
  Ca  Ca1       1.0  0.42228  0.95487  0.25000  1.0000
  Ca  Ca2       1.0  0.57771  0.04513  0.75000  1.0000
  H   H1        1.0  0.22131  0.04911  0.49092  1.0000
  H   H2        1.0  0.77869  0.95085  0.99092  1.0000
  H   H3        1.0  0.77869  0.95089  0.50908  1.0000
  H   H4        1.0  0.22132  0.04914  0.00908  1.0000
  H   H5        1.0  0.96656  0.72284  0.28596  1.0000
  H   H6        1.0  0.03343  0.27717  0.78597  1.0000
  H   H7        1.0  0.03344  0.27716  0.71404  1.0000
  H   H8        1.0  0.96656  0.72285  0.21403  1.0000
  H   H9        1.0  0.62266  0.70022  0.28575  1.0000
  H   H10       1.0  0.37734  0.29978  0.78576  1.0000
  H   H11       1.0  0.37734  0.29978  0.71425  1.0000
  H   H12       1.0  0.62266  0.70023  0.21424  1.0000
  H   H13       1.0  0.72294  0.12968  0.36072  1.0000
  H   H14       1.0  0.27705  0.87032  0.86072  1.0000
  H   H15       1.0  0.27705  0.87033  0.63928  1.0000
  H   H16       1.0  0.72296  0.12967  0.13928  1.0000
  H   H17       1.0  0.87901  0.23089  0.30616  1.0000
  H   H18       1.0  0.12098  0.76911  0.80616  1.0000
  H   H19       1.0  0.12099  0.76905  0.69384  1.0000
  H   H20       1.0  0.87899  0.23099  0.19384  1.0000
  C   C1        1.0  0.25504  0.29456  0.42558  1.0000
  C   C2        1.0  0.74496  0.70540  0.92557  1.0000
  C   C3        1.0  0.74495  0.70543  0.57442  1.0000
  C   C4        1.0  0.25504  0.29458  0.07443  1.0000
  C   C5        1.0  0.26498  0.49087  0.43518  1.0000
  C   C6        1.0  0.73504  0.50911  0.93518  1.0000
  C   C7        1.0  0.73503  0.50913  0.56482  1.0000
  C   C8        1.0  0.26496  0.49088  0.06482  1.0000
  C   C9        1.0  0.24651  0.51322  0.49863  1.0000
  C   C10       1.0  0.75349  0.48675  0.99863  1.0000
  C   C11       1.0  0.75349  0.48679  0.50137  1.0000
  C   C12       1.0  0.24651  0.51325  0.00137  1.0000
  C   C13       1.0  0.22298  0.32942  0.52771  1.0000
  C   C14       1.0  0.77701  0.67056  0.02771  1.0000
  C   C15       1.0  0.77702  0.67058  0.47229  1.0000
  C   C16       1.0  0.22299  0.32945  0.97229  1.0000
  C   C17       1.0  0.22892  0.19692  0.48253  1.0000
  C   C18       1.0  0.77108  0.80305  0.98252  1.0000
  C   C19       1.0  0.77109  0.80309  0.51748  1.0000
  C   C20       1.0  0.22893  0.19694  0.01748  1.0000
  C   C21       1.0  0.28206  0.21890  0.36935  1.0000
  C   C22       1.0  0.71796  0.78107  0.86934  1.0000
  C   C23       1.0  0.71794  0.78109  0.63066  1.0000
  C   C24       1.0  0.28206  0.21892  0.13065  1.0000
  C   C25       1.0  0.29505  0.63721  0.39033  1.0000
  C   C26       1.0  0.70492  0.36276  0.89033  1.0000
  C   C27       1.0  0.70494  0.36279  0.60967  1.0000
  C   C28       1.0  0.29507  0.63722  0.10967  1.0000
  C   C29       1.0  0.26186  0.68590  0.52932  1.0000
  C   C30       1.0  0.73814  0.31407  0.02932  1.0000
  C   C31       1.0  0.73815  0.31411  0.47068  1.0000
  C   C32       1.0  0.26187  0.68594  0.97068  1.0000
  C   C33       1.0  0.20761  0.29961  0.59113  1.0000
  C   C34       1.0  0.79239  0.70036  0.09112  1.0000
  C   C35       1.0  0.79239  0.70038  0.40888  1.0000
  C   C36       1.0  0.20761  0.29964  0.90888  1.0000
  N   N1        1.0  0.30900  0.15538  0.32333  1.0000
  N   N2        1.0  0.69099  0.84459  0.82333  1.0000
  N   N3        1.0  0.69099  0.84461  0.67667  1.0000
  N   N4        1.0  0.30902  0.15541  0.17667  1.0000
  N   N5        1.0  0.32251  0.75891  0.35252  1.0000
  N   N6        1.0  0.67750  0.24106  0.85252  1.0000
  N   N7        1.0  0.67750  0.24108  0.64748  1.0000
  N   N8        1.0  0.32250  0.75893  0.14748  1.0000
  N   N9        1.0  0.27742  0.82750  0.55726  1.0000
  N   N10       1.0  0.72259  0.17248  0.05726  1.0000
  N   N11       1.0  0.72259  0.17250  0.44274  1.0000
  N   N12       1.0  0.27741  0.82753  0.94274  1.0000
  N   N13       1.0  0.19831  0.28427  0.64431  1.0000
  N   N14       1.0  0.80168  0.71574  0.14430  1.0000
  N   N15       1.0  0.80169  0.71574  0.35570  1.0000
  N   N16       1.0  0.19832  0.28427  0.85570  1.0000
  O   O1        1.0  0.04621  0.71907  0.25000  1.0000
  O   O2        1.0  0.95378  0.28093  0.75000  1.0000
  O   O3        1.0  0.53900  0.69678  0.25000  1.0000
  O   O4        1.0  0.46099  0.30322  0.75000  1.0000
  O   O5        1.0  0.73209  0.13610  0.31572  1.0000
  O   O6        1.0  0.26790  0.86389  0.81572  1.0000
  O   O7        1.0  0.26789  0.86391  0.68428  1.0000
  O   O8        1.0  0.73211  0.13609  0.18428  1.0000
