data_image0
_chemical_formula_structural       Ag4H12C28N8O24
_chemical_formula_sum              "Ag4 H12 C28 N8 O24"
_cell_length_a       5.19849
_cell_length_b       6.57457
_cell_length_c       27.3303
_cell_angle_alpha    90.0002
_cell_angle_beta     89.9999
_cell_angle_gamma    108.77

_space_group_name_H-M_alt    "P 1"
_space_group_IT_number       1

loop_
  _space_group_symop_operation_xyz
  'x, y, z'

loop_
  _atom_site_type_symbol
  _atom_site_label
  _atom_site_symmetry_multiplicity
  _atom_site_fract_x
  _atom_site_fract_y
  _atom_site_fract_z
  _atom_site_occupancy
  Ag  Ag1       1.0  0.78186  0.98305  0.96837  1.0000
  Ag  Ag2       1.0  0.21814  0.51695  0.46837  1.0000
  Ag  Ag3       1.0  0.21814  0.01695  0.03163  1.0000
  Ag  Ag4       1.0  0.78186  0.48305  0.53163  1.0000
  H   H1        1.0  0.74903  0.68941  0.16736  1.0000
  H   H2        1.0  0.25097  0.81058  0.66736  1.0000
  H   H3        1.0  0.25097  0.31059  0.83264  1.0000
  H   H4        1.0  0.74903  0.18942  0.33264  1.0000
  H   H5        1.0  0.95453  0.23371  0.19718  1.0000
  H   H6        1.0  0.04546  0.26629  0.69718  1.0000
  H   H7        1.0  0.04546  0.76629  0.80282  1.0000
  H   H8        1.0  0.95454  0.73371  0.30282  1.0000
  H   H9        1.0  0.15559  0.49945  0.05188  1.0000
  H   H10       1.0  0.84441  0.00055  0.55188  1.0000
  H   H11       1.0  0.84441  0.50055  0.94812  1.0000
  H   H12       1.0  0.15559  0.99945  0.44812  1.0000
  C   C1        1.0  0.47361  0.60875  0.10566  1.0000
  C   C2        1.0  0.52638  0.89125  0.60566  1.0000
  C   C3        1.0  0.52639  0.39125  0.89434  1.0000
  C   C4        1.0  0.47362  0.10876  0.39434  1.0000
  C   C5        1.0  0.54798  0.59543  0.15438  1.0000
  C   C6        1.0  0.45202  0.90456  0.65438  1.0000
  C   C7        1.0  0.45202  0.40456  0.84562  1.0000
  C   C8        1.0  0.54798  0.09544  0.34562  1.0000
  C   C9        1.0  0.35880  0.46081  0.18619  1.0000
  C   C10       1.0  0.64119  0.03919  0.68619  1.0000
  C   C11       1.0  0.64120  0.53919  0.81381  1.0000
  C   C12       1.0  0.35880  0.96082  0.31381  1.0000
  C   C13       1.0  0.09866  0.33832  0.17176  1.0000
  C   C14       1.0  0.90134  0.16168  0.67176  1.0000
  C   C15       1.0  0.90134  0.66168  0.82824  1.0000
  C   C16       1.0  0.09866  0.83832  0.32824  1.0000
  C   C17       1.0  0.03313  0.35530  0.12283  1.0000
  C   C18       1.0  0.96687  0.14470  0.62283  1.0000
  C   C19       1.0  0.96688  0.64470  0.87717  1.0000
  C   C20       1.0  0.03313  0.85530  0.37717  1.0000
  C   C21       1.0  0.21419  0.48804  0.08966  1.0000
  C   C22       1.0  0.78581  0.01196  0.58966  1.0000
  C   C23       1.0  0.78582  0.51196  0.91034  1.0000
  C   C24       1.0  0.21418  0.98804  0.41034  1.0000
  C   C25       1.0  0.66921  0.75009  0.06965  1.0000
  C   C26       1.0  0.33079  0.74991  0.56965  1.0000
  C   C27       1.0  0.33079  0.24992  0.93035  1.0000
  C   C28       1.0  0.66921  0.25009  0.43035  1.0000
  N   N1        1.0  0.43975  0.44562  0.23731  1.0000
  N   N2        1.0  0.56025  0.05439  0.73731  1.0000
  N   N3        1.0  0.56026  0.55438  0.76269  1.0000
  N   N4        1.0  0.43975  0.94562  0.26269  1.0000
  N   N5        1.0  0.76122  0.23232  0.10551  1.0000
  N   N6        1.0  0.23877  0.26767  0.60551  1.0000
  N   N7        1.0  0.23878  0.76768  0.89449  1.0000
  N   N8        1.0  0.76123  0.73233  0.39449  1.0000
  O   O1        1.0  0.68693  0.51093  0.24651  1.0000
  O   O2        1.0  0.31307  0.98907  0.74651  1.0000
  O   O3        1.0  0.31308  0.48908  0.75349  1.0000
  O   O4        1.0  0.68693  0.01093  0.25349  1.0000
  O   O5        1.0  0.25832  0.36766  0.26777  1.0000
  O   O6        1.0  0.74167  0.13234  0.76777  1.0000
  O   O7        1.0  0.74168  0.63233  0.73223  1.0000
  O   O8        1.0  0.25832  0.86765  0.23223  1.0000
  O   O9        1.0  0.70751  0.25668  0.06177  1.0000
  O   O10       1.0  0.29249  0.24331  0.56177  1.0000
  O   O11       1.0  0.29249  0.74332  0.93823  1.0000
  O   O12       1.0  0.70751  0.75669  0.43823  1.0000
  O   O13       1.0  0.59800  0.11366  0.13450  1.0000
  O   O14       1.0  0.40199  0.38634  0.63450  1.0000
  O   O15       1.0  0.40199  0.88634  0.86550  1.0000
  O   O16       1.0  0.59801  0.61366  0.36550  1.0000
  O   O17       1.0  0.91727  0.82158  0.08239  1.0000
  O   O18       1.0  0.08273  0.67841  0.58239  1.0000
  O   O19       1.0  0.08273  0.17842  0.91761  1.0000
  O   O20       1.0  0.91727  0.32159  0.41761  1.0000
  O   O21       1.0  0.56522  0.78422  0.02953  1.0000
  O   O22       1.0  0.43478  0.71578  0.52953  1.0000
  O   O23       1.0  0.43478  0.21578  0.97047  1.0000
  O   O24       1.0  0.56522  0.28422  0.47047  1.0000
