data_image0
_chemical_formula_structural       Ag4H12C28N8O24
_chemical_formula_sum              "Ag4 H12 C28 N8 O24"
_cell_length_a       5.18452
_cell_length_b       9.92299
_cell_length_c       16.4318
_cell_angle_alpha    89.9998
_cell_angle_beta     94.2729
_cell_angle_gamma    90.0016

_space_group_name_H-M_alt    "P 1"
_space_group_IT_number       1

loop_
  _space_group_symop_operation_xyz
  'x, y, z'

loop_
  _atom_site_type_symbol
  _atom_site_label
  _atom_site_symmetry_multiplicity
  _atom_site_fract_x
  _atom_site_fract_y
  _atom_site_fract_z
  _atom_site_occupancy
  Ag  Ag1       1.0  0.18406  0.90772  0.47650  1.0000
  Ag  Ag2       1.0  0.81591  0.40773  0.02350  1.0000
  Ag  Ag3       1.0  0.81592  0.09226  0.52349  1.0000
  Ag  Ag4       1.0  0.18410  0.59227  0.97651  1.0000
  H   H1        1.0  0.24417  0.07678  0.29998  1.0000
  H   H2        1.0  0.75584  0.57678  0.20000  1.0000
  H   H3        1.0  0.75583  0.92323  0.70000  1.0000
  H   H4        1.0  0.24417  0.42320  0.80001  1.0000
  H   H5        1.0  0.25167  0.94035  0.05028  1.0000
  H   H6        1.0  0.74834  0.44036  0.44970  1.0000
  H   H7        1.0  0.74830  0.05965  0.94971  1.0000
  H   H8        1.0  0.25169  0.55963  0.55031  1.0000
  H   H9        1.0  0.84326  0.80796  0.23166  1.0000
  H   H10       1.0  0.15674  0.30796  0.26834  1.0000
  H   H11       1.0  0.15672  0.19204  0.76834  1.0000
  H   H12       1.0  0.84328  0.69204  0.73166  1.0000
  C   C1        1.0  0.55757  0.94266  0.27503  1.0000
  C   C2        1.0  0.44246  0.44267  0.22496  1.0000
  C   C3        1.0  0.44244  0.05734  0.72495  1.0000
  C   C4        1.0  0.55754  0.55733  0.77505  1.0000
  C   C5        1.0  0.33334  0.01698  0.25427  1.0000
  C   C6        1.0  0.66672  0.51696  0.24572  1.0000
  C   C7        1.0  0.66668  0.98303  0.74571  1.0000
  C   C8        1.0  0.33328  0.48302  0.75429  1.0000
  C   C9        1.0  0.22933  0.01543  0.17350  1.0000
  C   C10       1.0  0.77070  0.51540  0.32649  1.0000
  C   C11       1.0  0.77067  0.98459  0.82649  1.0000
  C   C12       1.0  0.22931  0.48458  0.67352  1.0000
  C   C13       1.0  0.33422  0.93928  0.11296  1.0000
  C   C14       1.0  0.66579  0.43928  0.38704  1.0000
  C   C15       1.0  0.66574  0.06072  0.88703  1.0000
  C   C16       1.0  0.33424  0.56071  0.61298  1.0000
  C   C17       1.0  0.55183  0.86270  0.13647  1.0000
  C   C18       1.0  0.44819  0.36272  0.36353  1.0000
  C   C19       1.0  0.44816  0.13730  0.86352  1.0000
  C   C20       1.0  0.55185  0.63727  0.63648  1.0000
  C   C21       1.0  0.66586  0.86372  0.21596  1.0000
  C   C22       1.0  0.33418  0.36372  0.28403  1.0000
  C   C23       1.0  0.33413  0.13629  0.78402  1.0000
  C   C24       1.0  0.66586  0.63629  0.71599  1.0000
  C   C25       1.0  0.70017  0.95810  0.35782  1.0000
  C   C26       1.0  0.29984  0.45810  0.14217  1.0000
  C   C27       1.0  0.29983  0.04190  0.64216  1.0000
  C   C28       1.0  0.70016  0.54191  0.85784  1.0000
  N   N1        1.0  0.00077  0.09872  0.15046  1.0000
  N   N2        1.0  0.99927  0.59871  0.34953  1.0000
  N   N3        1.0  0.99922  0.90130  0.84953  1.0000
  N   N4        1.0  0.00074  0.40127  0.65049  1.0000
  N   N5        1.0  0.67587  0.78546  0.07382  1.0000
  N   N6        1.0  0.32410  0.28545  0.42617  1.0000
  N   N7        1.0  0.32410  0.21454  0.92617  1.0000
  N   N8        1.0  0.67590  0.71454  0.57384  1.0000
  O   O1        1.0  0.91678  0.89881  0.36749  1.0000
  O   O2        1.0  0.08323  0.39880  0.13252  1.0000
  O   O3        1.0  0.08322  0.10119  0.63251  1.0000
  O   O4        1.0  0.91679  0.60120  0.86750  1.0000
  O   O5        1.0  0.59414  0.03297  0.40889  1.0000
  O   O6        1.0  0.40587  0.53296  0.09111  1.0000
  O   O7        1.0  0.40586  0.96703  0.59109  1.0000
  O   O8        1.0  0.59413  0.46705  0.90891  1.0000
  O   O9        1.0  0.89094  0.15478  0.20572  1.0000
  O   O10       1.0  0.10909  0.65479  0.29427  1.0000
  O   O11       1.0  0.10904  0.84524  0.79428  1.0000
  O   O12       1.0  0.89092  0.34520  0.70573  1.0000
  O   O13       1.0  0.92880  0.10667  0.07689  1.0000
  O   O14       1.0  0.07119  0.60667  0.42311  1.0000
  O   O15       1.0  0.07115  0.89336  0.92311  1.0000
  O   O16       1.0  0.92883  0.39333  0.57690  1.0000
  O   O17       1.0  0.56444  0.77930  0.00443  1.0000
  O   O18       1.0  0.43556  0.27930  0.49555  1.0000
  O   O19       1.0  0.43553  0.22067  0.99556  1.0000
  O   O20       1.0  0.56446  0.72069  0.50445  1.0000
  O   O21       1.0  0.88899  0.73256  0.09399  1.0000
  O   O22       1.0  0.11097  0.23254  0.40600  1.0000
  O   O23       1.0  0.11098  0.26745  0.90600  1.0000
  O   O24       1.0  0.88902  0.76745  0.59401  1.0000
