data_image0
_chemical_formula_structural       K4H20C12O16
_chemical_formula_sum              "K4 H20 C12 O16"
_cell_length_a       4.72611
_cell_length_b       10.5426
_cell_length_c       10.7477
_cell_angle_alpha    90.0002
_cell_angle_beta     102.237
_cell_angle_gamma    89.9998

_space_group_name_H-M_alt    "P 1"
_space_group_IT_number       1

loop_
  _space_group_symop_operation_xyz
  'x, y, z'

loop_
  _atom_site_type_symbol
  _atom_site_label
  _atom_site_symmetry_multiplicity
  _atom_site_fract_x
  _atom_site_fract_y
  _atom_site_fract_z
  _atom_site_occupancy
  K   K1        1.0  0.36726  0.49421  0.14698  1.0000
  K   K2        1.0  0.13274  0.99421  0.35302  1.0000
  K   K3        1.0  0.63274  0.50580  0.85302  1.0000
  K   K4        1.0  0.86726  0.00579  0.64698  1.0000
  H   H1        1.0  0.19023  0.74252  0.92284  1.0000
  H   H2        1.0  0.30977  0.24252  0.57715  1.0000
  H   H3        1.0  0.80977  0.25748  0.07716  1.0000
  H   H4        1.0  0.69024  0.75748  0.42284  1.0000
  H   H5        1.0  0.73322  0.76625  0.77979  1.0000
  H   H6        1.0  0.76678  0.26625  0.72021  1.0000
  H   H7        1.0  0.26678  0.23375  0.22021  1.0000
  H   H8        1.0  0.23322  0.73375  0.27979  1.0000
  H   H9        1.0  0.47172  0.85555  0.08040  1.0000
  H   H10       1.0  0.02828  0.35554  0.41960  1.0000
  H   H11       1.0  0.52828  0.14446  0.91960  1.0000
  H   H12       1.0  0.97172  0.64445  0.58040  1.0000
  H   H13       1.0  0.81042  0.95646  0.97597  1.0000
  H   H14       1.0  0.68958  0.45646  0.52403  1.0000
  H   H15       1.0  0.18958  0.04354  0.02403  1.0000
  H   H16       1.0  0.31042  0.54354  0.47597  1.0000
  H   H17       1.0  0.49575  0.91845  0.85724  1.0000
  H   H18       1.0  0.00424  0.41844  0.64276  1.0000
  H   H19       1.0  0.50425  0.08155  0.14276  1.0000
  H   H20       1.0  0.99575  0.58156  0.35724  1.0000
  C   C1        1.0  0.83505  0.73050  0.10910  1.0000
  C   C2        1.0  0.66494  0.23050  0.39090  1.0000
  C   C3        1.0  0.16496  0.26950  0.89091  1.0000
  C   C4        1.0  0.33505  0.76950  0.60910  1.0000
  C   C5        1.0  0.57615  0.79369  0.02027  1.0000
  C   C6        1.0  0.92384  0.29369  0.47973  1.0000
  C   C7        1.0  0.42385  0.20631  0.97973  1.0000
  C   C8        1.0  0.07616  0.70631  0.52027  1.0000
  C   C9        1.0  0.68413  0.87828  0.92404  1.0000
  C   C10       1.0  0.81587  0.37828  0.57596  1.0000
  C   C11       1.0  0.31587  0.12172  0.07596  1.0000
  C   C12       1.0  0.18413  0.62172  0.42404  1.0000
  O   O1        1.0  0.85073  0.61090  0.11315  1.0000
  O   O2        1.0  0.64927  0.11090  0.38686  1.0000
  O   O3        1.0  0.14928  0.38910  0.88686  1.0000
  O   O4        1.0  0.35074  0.88909  0.61314  1.0000
  O   O5        1.0  0.37661  0.69940  0.96063  1.0000
  O   O6        1.0  0.12339  0.19940  0.53937  1.0000
  O   O7        1.0  0.62339  0.30060  0.03937  1.0000
  O   O8        1.0  0.87662  0.80060  0.46063  1.0000
  O   O9        1.0  0.86556  0.81356  0.85327  1.0000
  O   O10       1.0  0.63444  0.31356  0.64673  1.0000
  O   O11       1.0  0.13444  0.18644  0.14672  1.0000
  O   O12       1.0  0.36556  0.68644  0.35327  1.0000
  O   O13       1.0  0.01978  0.80710  0.17342  1.0000
  O   O14       1.0  0.48022  0.30709  0.32658  1.0000
  O   O15       1.0  0.98022  0.19291  0.82658  1.0000
  O   O16       1.0  0.51978  0.69290  0.67343  1.0000
