data_image0
_chemical_formula_structural       Cu2H20C20S4N6Cl2
_chemical_formula_sum              "Cu2 H20 C20 S4 N6 Cl2"
_cell_length_a       7.33245
_cell_length_b       7.39615
_cell_length_c       12.3456
_cell_angle_alpha    89.9987
_cell_angle_beta     90.0004
_cell_angle_gamma    111.313

_space_group_name_H-M_alt    "P 1"
_space_group_IT_number       1

loop_
  _space_group_symop_operation_xyz
  'x, y, z'

loop_
  _atom_site_type_symbol
  _atom_site_label
  _atom_site_symmetry_multiplicity
  _atom_site_fract_x
  _atom_site_fract_y
  _atom_site_fract_z
  _atom_site_occupancy
  Cu  Cu1       1.0  0.59278  0.32810  0.45259  1.0000
  Cu  Cu2       1.0  0.59279  0.82810  0.54740  1.0000
  H   H1        1.0  0.83097  0.00208  0.96071  1.0000
  H   H2        1.0  0.83097  0.50207  0.03930  1.0000
  H   H3        1.0  0.71588  0.11051  0.06329  1.0000
  H   H4        1.0  0.71589  0.61051  0.93671  1.0000
  H   H5        1.0  0.96275  0.11221  0.19801  1.0000
  H   H6        1.0  0.96275  0.61220  0.80200  1.0000
  H   H7        1.0  0.11381  0.91371  0.01542  1.0000
  H   H8        1.0  0.11383  0.41369  0.98459  1.0000
  H   H9        1.0  0.13276  0.87959  0.15761  1.0000
  H   H10       1.0  0.13276  0.37959  0.84239  1.0000
  H   H11       1.0  0.08418  0.92015  0.46284  1.0000
  H   H12       1.0  0.08419  0.42016  0.53716  1.0000
  H   H13       1.0  0.03441  0.88740  0.67070  1.0000
  H   H14       1.0  0.03441  0.38742  0.32930  1.0000
  H   H15       1.0  0.16290  0.00730  0.85595  1.0000
  H   H16       1.0  0.16287  0.50734  0.14405  1.0000
  H   H17       1.0  0.49277  0.27905  0.87203  1.0000
  H   H18       1.0  0.49275  0.77909  0.12796  1.0000
  H   H19       1.0  0.67355  0.42317  0.70139  1.0000
  H   H20       1.0  0.67354  0.92320  0.29860  1.0000
  C   C1        1.0  0.83183  0.05670  0.04304  1.0000
  C   C2        1.0  0.83183  0.55669  0.95697  1.0000
  C   C3        1.0  0.96640  0.05682  0.11622  1.0000
  C   C4        1.0  0.96641  0.55682  0.88379  1.0000
  C   C5        1.0  0.12708  0.98302  0.09513  1.0000
  C   C6        1.0  0.12708  0.48300  0.90487  1.0000
  C   C7        1.0  0.42354  0.20450  0.23333  1.0000
  C   C8        1.0  0.42355  0.70450  0.76667  1.0000
  C   C9        1.0  0.22276  0.03678  0.48149  1.0000
  C   C10       1.0  0.22277  0.53678  0.51851  1.0000
  C   C11       1.0  0.28556  0.09330  0.59126  1.0000
  C   C12       1.0  0.28557  0.59332  0.40874  1.0000
  C   C13       1.0  0.17454  0.00578  0.68200  1.0000
  C   C14       1.0  0.17453  0.50580  0.31801  1.0000
  C   C15       1.0  0.24753  0.07328  0.78431  1.0000
  C   C16       1.0  0.24751  0.57331  0.21568  1.0000
  C   C17       1.0  0.42926  0.22319  0.79363  1.0000
  C   C18       1.0  0.42924  0.72323  0.20636  1.0000
  C   C19       1.0  0.53196  0.30423  0.69928  1.0000
  C   C20       1.0  0.53195  0.80426  0.30071  1.0000
  S   S1        1.0  0.37063  0.17634  0.09541  1.0000
  S   S2        1.0  0.37064  0.67634  0.90459  1.0000
  S   S3        1.0  0.64811  0.37422  0.26839  1.0000
  S   S4        1.0  0.64811  0.87421  0.73160  1.0000
  N   N1        1.0  0.28806  0.09616  0.30088  1.0000
  N   N2        1.0  0.28807  0.59616  0.69912  1.0000
  N   N3        1.0  0.34057  0.13444  0.40534  1.0000
  N   N4        1.0  0.34059  0.63445  0.59466  1.0000
  N   N5        1.0  0.46149  0.24211  0.60109  1.0000
  N   N6        1.0  0.46150  0.74213  0.39890  1.0000
  Cl  Cl1       1.0  0.80839  0.61776  0.51001  1.0000
  Cl  Cl2       1.0  0.80840  0.11776  0.48999  1.0000
