data_image0
_chemical_formula_structural       K2H20C30N2O10
_chemical_formula_sum              "K2 H20 C30 N2 O10"
_cell_length_a       6.5699
_cell_length_b       8.79414
_cell_length_c       11.1467
_cell_angle_alpha    100.213
_cell_angle_beta     89.9995
_cell_angle_gamma    89.9998

_space_group_name_H-M_alt    "P 1"
_space_group_IT_number       1

loop_
  _space_group_symop_operation_xyz
  'x, y, z'

loop_
  _atom_site_type_symbol
  _atom_site_label
  _atom_site_symmetry_multiplicity
  _atom_site_fract_x
  _atom_site_fract_y
  _atom_site_fract_z
  _atom_site_occupancy
  K   K1        1.0  0.39419  0.41738  0.88583  1.0000
  K   K2        1.0  0.89420  0.58262  0.11418  1.0000
  H   H1        1.0  0.99234  0.70739  0.89012  1.0000
  H   H2        1.0  0.49234  0.29261  0.10988  1.0000
  H   H3        1.0  0.41089  0.23485  0.59071  1.0000
  H   H4        1.0  0.91088  0.76515  0.40929  1.0000
  H   H5        1.0  0.40350  0.23206  0.36418  1.0000
  H   H6        1.0  0.90350  0.76794  0.63582  1.0000
  H   H7        1.0  0.40151  0.98800  0.22077  1.0000
  H   H8        1.0  0.90151  0.01200  0.77923  1.0000
  H   H9        1.0  0.40591  0.69860  0.18129  1.0000
  H   H10       1.0  0.90593  0.30141  0.81871  1.0000
  H   H11       1.0  0.39231  0.45242  0.26267  1.0000
  H   H12       1.0  0.89231  0.54758  0.73733  1.0000
  H   H13       1.0  0.40279  0.45843  0.48791  1.0000
  H   H14       1.0  0.90278  0.54157  0.51208  1.0000
  H   H15       1.0  0.47567  0.97245  0.91053  1.0000
  H   H16       1.0  0.97567  0.02755  0.08947  1.0000
  H   H17       1.0  0.26661  0.86344  0.03939  1.0000
  H   H18       1.0  0.76662  0.13655  0.96061  1.0000
  H   H19       1.0  0.12581  0.92162  0.91923  1.0000
  H   H20       1.0  0.62581  0.07838  0.08077  1.0000
  C   C1        1.0  0.41289  0.99057  0.70307  1.0000
  C   C2        1.0  0.91287  0.00943  0.29693  1.0000
  C   C3        1.0  0.40994  0.98820  0.57075  1.0000
  C   C4        1.0  0.90993  0.01180  0.42925  1.0000
  C   C5        1.0  0.40837  0.84550  0.48865  1.0000
  C   C6        1.0  0.90836  0.15450  0.51135  1.0000
  C   C7        1.0  0.40911  0.70437  0.53290  1.0000
  C   C8        1.0  0.90910  0.29564  0.46710  1.0000
  C   C9        1.0  0.41759  0.70383  0.66485  1.0000
  C   C10       1.0  0.91758  0.29616  0.33515  1.0000
  C   C11       1.0  0.40969  0.12601  0.52621  1.0000
  C   C12       1.0  0.90968  0.87399  0.47379  1.0000
  C   C13       1.0  0.40747  0.12464  0.39975  1.0000
  C   C14       1.0  0.90747  0.87536  0.60025  1.0000
  C   C15       1.0  0.40645  0.98660  0.31828  1.0000
  C   C16       1.0  0.90645  0.01340  0.68172  1.0000
  C   C17       1.0  0.40667  0.84371  0.36016  1.0000
  C   C18       1.0  0.90667  0.15629  0.63983  1.0000
  C   C19       1.0  0.40316  0.69958  0.27959  1.0000
  C   C20       1.0  0.90316  0.30042  0.72041  1.0000
  C   C21       1.0  0.39979  0.56279  0.32477  1.0000
  C   C22       1.0  0.89979  0.43722  0.67522  1.0000
  C   C23       1.0  0.40369  0.56529  0.45133  1.0000
  C   C24       1.0  0.90369  0.43471  0.54867  1.0000
  C   C25       1.0  0.43199  0.85193  0.87544  1.0000
  C   C26       1.0  0.93199  0.14806  0.12456  1.0000
  C   C27       1.0  0.23166  0.83321  0.94117  1.0000
  C   C28       1.0  0.73166  0.16678  0.05883  1.0000
  C   C29       1.0  0.61408  0.75537  0.90717  1.0000
  C   C30       1.0  0.11408  0.24462  0.09283  1.0000
  N   N1        1.0  0.41426  0.84758  0.74308  1.0000
  N   N2        1.0  0.91426  0.15242  0.25692  1.0000
  O   O1        1.0  0.41550  0.11276  0.77836  1.0000
  O   O2        1.0  0.91547  0.88724  0.22165  1.0000
  O   O3        1.0  0.42925  0.58279  0.70656  1.0000
  O   O4        1.0  0.92925  0.41720  0.29344  1.0000
  O   O5        1.0  0.13595  0.68598  0.91582  1.0000
  O   O6        1.0  0.63595  0.31401  0.08418  1.0000
  O   O7        1.0  0.59090  0.67754  0.99115  1.0000
  O   O8        1.0  0.09090  0.32246  0.00885  1.0000
  O   O9        1.0  0.77832  0.77081  0.84983  1.0000
  O   O10       1.0  0.27831  0.22919  0.15017  1.0000
