data_image0
_chemical_formula_structural       Zn2H40C36N12O8
_chemical_formula_sum              "Zn2 H40 C36 N12 O8"
_cell_length_a       9.67512
_cell_length_b       9.95908
_cell_length_c       13.1687
_cell_angle_alpha    103.903
_cell_angle_beta     101.144
_cell_angle_gamma    104.089

_space_group_name_H-M_alt    "P 1"
_space_group_IT_number       1

loop_
  _space_group_symop_operation_xyz
  'x, y, z'

loop_
  _atom_site_type_symbol
  _atom_site_label
  _atom_site_symmetry_multiplicity
  _atom_site_fract_x
  _atom_site_fract_y
  _atom_site_fract_z
  _atom_site_occupancy
  Zn  Zn1       1.0  0.54540  0.41929  0.19730  1.0000
  Zn  Zn2       1.0  0.45460  0.58072  0.80270  1.0000
  H   H1        1.0  0.10165  0.62549  0.19822  1.0000
  H   H2        1.0  0.89835  0.37449  0.80178  1.0000
  H   H3        1.0  0.26446  0.64696  0.07226  1.0000
  H   H4        1.0  0.73553  0.35301  0.92774  1.0000
  H   H5        1.0  0.16879  0.91682  0.12112  1.0000
  H   H6        1.0  0.83120  0.08320  0.87889  1.0000
  H   H7        1.0  0.91809  0.74773  0.01081  1.0000
  H   H8        1.0  0.08190  0.25229  0.98921  1.0000
  H   H9        1.0  0.45621  0.24118  0.37257  1.0000
  H   H10       1.0  0.54380  0.75881  0.62743  1.0000
  H   H11       1.0  0.79995  0.61473  0.41076  1.0000
  H   H12       1.0  0.20005  0.38527  0.58925  1.0000
  H   H13       1.0  0.53621  0.30973  0.64633  1.0000
  H   H14       1.0  0.46378  0.69029  0.35367  1.0000
  H   H15       1.0  0.39670  0.33666  0.93349  1.0000
  H   H16       1.0  0.60331  0.66334  0.06651  1.0000
  H   H17       1.0  0.83885  0.52113  0.68035  1.0000
  H   H18       1.0  0.16115  0.47887  0.31965  1.0000
  H   H19       1.0  0.77128  0.66960  0.67131  1.0000
  H   H20       1.0  0.22872  0.33040  0.32869  1.0000
  H   H21       1.0  0.96797  0.74717  0.57243  1.0000
  H   H22       1.0  0.03203  0.25282  0.42757  1.0000
  H   H23       1.0  0.03894  0.60691  0.59923  1.0000
  H   H24       1.0  0.96106  0.39309  0.40078  1.0000
  H   H25       1.0  0.07021  0.71953  0.79961  1.0000
  H   H26       1.0  0.92980  0.28047  0.20040  1.0000
  H   H27       1.0  0.00441  0.85899  0.76966  1.0000
  H   H28       1.0  0.99559  0.14101  0.23033  1.0000
  H   H29       1.0  0.28706  0.79761  0.72561  1.0000
  H   H30       1.0  0.71295  0.20239  0.27438  1.0000
  H   H31       1.0  0.22058  0.93671  0.69365  1.0000
  H   H32       1.0  0.77942  0.06328  0.30635  1.0000
  H   H33       1.0  0.23032  0.03771  0.89191  1.0000
  H   H34       1.0  0.76968  0.96229  0.10809  1.0000
  H   H35       1.0  0.30044  0.90012  0.92067  1.0000
  H   H36       1.0  0.69957  0.09988  0.07933  1.0000
  H   H37       1.0  0.50384  0.12283  0.97376  1.0000
  H   H38       1.0  0.49616  0.87717  0.02624  1.0000
  H   H39       1.0  0.52674  0.00132  0.85821  1.0000
  H   H40       1.0  0.47326  0.99868  0.14178  1.0000
  C   C1        1.0  0.81230  0.47698  0.14678  1.0000
  C   C2        1.0  0.18769  0.52301  0.85321  1.0000
  C   C3        1.0  0.90912  0.48681  0.07058  1.0000
  C   C4        1.0  0.09087  0.51317  0.92941  1.0000
  C   C5        1.0  0.05850  0.57007  0.11130  1.0000
  C   C6        1.0  0.94149  0.42991  0.88870  1.0000
  C   C7        1.0  0.14847  0.58302  0.04133  1.0000
  C   C8        1.0  0.85153  0.41696  0.95866  1.0000
  C   C9        1.0  0.29184  0.19022  0.12576  1.0000
  C   C10       1.0  0.70815  0.80978  0.87425  1.0000
  C   C11       1.0  0.13979  0.09389  0.06147  1.0000
  C   C12       1.0  0.86020  0.90612  0.93854  1.0000
  C   C13       1.0  0.09355  0.95194  0.06791  1.0000
  C   C14       1.0  0.90646  0.04807  0.93211  1.0000
  C   C15       1.0  0.95469  0.85828  0.00664  1.0000
  C   C16       1.0  0.04529  0.14172  0.99338  1.0000
  C   C17       1.0  0.54892  0.33937  0.41128  1.0000
  C   C18       1.0  0.45109  0.66063  0.58871  1.0000
  C   C19       1.0  0.72338  0.53006  0.42863  1.0000
  C   C20       1.0  0.27663  0.46994  0.57137  1.0000
  C   C21       1.0  0.50429  0.28323  0.71569  1.0000
  C   C22       1.0  0.49570  0.71678  0.28431  1.0000
  C   C23       1.0  0.43384  0.30152  0.86158  1.0000
  C   C24       1.0  0.56616  0.69849  0.13842  1.0000
  C   C25       1.0  0.82775  0.59631  0.63273  1.0000
  C   C26       1.0  0.17225  0.40368  0.36726  1.0000
  C   C27       1.0  0.97906  0.68241  0.62891  1.0000
  C   C28       1.0  0.02094  0.31759  0.37109  1.0000
  C   C29       1.0  0.06573  0.78366  0.74227  1.0000
  C   C30       1.0  0.93427  0.21633  0.25773  1.0000
  C   C31       1.0  0.22287  0.87109  0.75019  1.0000
  C   C32       1.0  0.77714  0.12891  0.24981  1.0000
  C   C33       1.0  0.29789  0.96855  0.86641  1.0000
  C   C34       1.0  0.70212  0.03145  0.13359  1.0000
  C   C35       1.0  0.45564  0.06428  0.88694  1.0000
  C   C36       1.0  0.54437  0.93573  0.11305  1.0000
  N   N1        1.0  0.60948  0.42492  0.35428  1.0000
  N   N2        1.0  0.39053  0.57508  0.64571  1.0000
  N   N3        1.0  0.61887  0.38680  0.51611  1.0000
  N   N4        1.0  0.38113  0.61320  0.48389  1.0000
  N   N5        1.0  0.72954  0.50777  0.52563  1.0000
  N   N6        1.0  0.27046  0.49222  0.47436  1.0000
  N   N7        1.0  0.45893  0.37301  0.78955  1.0000
  N   N8        1.0  0.54107  0.62700  0.21045  1.0000
  N   N9        1.0  0.50833  0.16132  0.73847  1.0000
  N   N10       1.0  0.49167  0.83869  0.26152  1.0000
  N   N11       1.0  0.46367  0.17539  0.83146  1.0000
  N   N12       1.0  0.53633  0.82462  0.16854  1.0000
  O   O1        1.0  0.67685  0.39088  0.10249  1.0000
  O   O2        1.0  0.32314  0.60913  0.89751  1.0000
  O   O3        1.0  0.86213  0.54975  0.24483  1.0000
  O   O4        1.0  0.13786  0.45023  0.75517  1.0000
  O   O5        1.0  0.34225  0.30880  0.10174  1.0000
  O   O6        1.0  0.65774  0.69121  0.89827  1.0000
  O   O7        1.0  0.36484  0.15361  0.19827  1.0000
  O   O8        1.0  0.63517  0.84639  0.80172  1.0000
