data_image0
_chemical_formula_structural       Cu4H32C24S8N16
_chemical_formula_sum              "Cu4 H32 C24 S8 N16"
_cell_length_a       7.79
_cell_length_b       9.06083
_cell_length_c       14.025
_cell_angle_alpha    90.0072
_cell_angle_beta     89.9923
_cell_angle_gamma    108.987

_space_group_name_H-M_alt    "P 1"
_space_group_IT_number       1

loop_
  _space_group_symop_operation_xyz
  'x, y, z'

loop_
  _atom_site_type_symbol
  _atom_site_label
  _atom_site_symmetry_multiplicity
  _atom_site_fract_x
  _atom_site_fract_y
  _atom_site_fract_z
  _atom_site_occupancy
  Cu  Cu1       1.0  0.00000  0.00000  0.00000  1.0000
  Cu  Cu2       1.0  0.00000  0.50000  0.50000  1.0000
  Cu  Cu3       1.0  0.50000  1.00000  0.50000  1.0000
  Cu  Cu4       1.0  0.50000  0.50000  1.00000  1.0000
  H   H1        1.0  0.17219  0.11120  0.33009  1.0000
  H   H2        1.0  0.82786  0.38900  0.82994  1.0000
  H   H3        1.0  0.82781  0.88880  0.66991  1.0000
  H   H4        1.0  0.17213  0.61100  0.17005  1.0000
  H   H5        1.0  0.12890  0.05605  0.45201  1.0000
  H   H6        1.0  0.87100  0.44395  0.95192  1.0000
  H   H7        1.0  0.87110  0.94394  0.54799  1.0000
  H   H8        1.0  0.12900  0.55605  0.04808  1.0000
  H   H9        1.0  0.06535  0.81626  0.35271  1.0000
  H   H10       1.0  0.93479  0.68385  0.85267  1.0000
  H   H11       1.0  0.93465  0.18374  0.64729  1.0000
  H   H12       1.0  0.06521  0.31615  0.14733  1.0000
  H   H13       1.0  0.28298  0.89052  0.29936  1.0000
  H   H14       1.0  0.71710  0.60977  0.79940  1.0000
  H   H15       1.0  0.71702  0.10948  0.70064  1.0000
  H   H16       1.0  0.28290  0.39023  0.20060  1.0000
  H   H17       1.0  0.32929  0.73588  0.41622  1.0000
  H   H18       1.0  0.67109  0.76440  0.91646  1.0000
  H   H19       1.0  0.67071  0.26412  0.58378  1.0000
  H   H20       1.0  0.32890  0.23560  0.08354  1.0000
  H   H21       1.0  0.20393  0.78562  0.49773  1.0000
  H   H22       1.0  0.79631  0.71432  0.99785  1.0000
  H   H23       1.0  0.79607  0.21438  0.50227  1.0000
  H   H24       1.0  0.20369  0.28568  0.00215  1.0000
  H   H25       1.0  0.40743  0.24321  0.45432  1.0000
  H   H26       1.0  0.59241  0.25682  0.95397  1.0000
  H   H27       1.0  0.59257  0.75679  0.54568  1.0000
  H   H28       1.0  0.40759  0.74318  0.04603  1.0000
  H   H29       1.0  0.48234  0.17700  0.35810  1.0000
  H   H30       1.0  0.51761  0.32340  0.85790  1.0000
  H   H31       1.0  0.51765  0.82300  0.64190  1.0000
  H   H32       1.0  0.48239  0.67660  0.14210  1.0000
  C   C1        1.0  0.19363  0.00753  0.80440  1.0000
  C   C2        1.0  0.80616  0.49244  0.30448  1.0000
  C   C3        1.0  0.80638  0.99248  0.19560  1.0000
  C   C4        1.0  0.19384  0.50756  0.69552  1.0000
  C   C5        1.0  0.22454  0.01014  0.70513  1.0000
  C   C6        1.0  0.77524  0.48984  0.20521  1.0000
  C   C7        1.0  0.77546  0.98985  0.29487  1.0000
  C   C8        1.0  0.22475  0.51016  0.79479  1.0000
  C   C9        1.0  0.29094  0.94244  0.86496  1.0000
  C   C10       1.0  0.70899  0.55766  0.36507  1.0000
  C   C11       1.0  0.70907  0.05757  0.13505  1.0000
  C   C12       1.0  0.29100  0.44234  0.63493  1.0000
  C   C13       1.0  0.42628  0.88673  0.82794  1.0000
  C   C14       1.0  0.57355  0.61326  0.32811  1.0000
  C   C15       1.0  0.57372  0.11327  0.17206  1.0000
  C   C16       1.0  0.42644  0.38674  0.67189  1.0000
  C   C17       1.0  0.21610  0.05552  0.39072  1.0000
  C   C18       1.0  0.78390  0.44461  0.89062  1.0000
  C   C19       1.0  0.78390  0.94448  0.60927  1.0000
  C   C20       1.0  0.21610  0.55538  0.10938  1.0000
  C   C21       1.0  0.20640  0.89029  0.36503  1.0000
  C   C22       1.0  0.79372  0.60991  0.86503  1.0000
  C   C23       1.0  0.79360  0.10971  0.63497  1.0000
  C   C24       1.0  0.20628  0.39009  0.13497  1.0000
  S   S1        1.0  0.02909  0.08104  0.84569  1.0000
  S   S2        1.0  0.97052  0.41872  0.34575  1.0000
  S   S3        1.0  0.97091  0.91896  0.15431  1.0000
  S   S4        1.0  0.02949  0.58128  0.65425  1.0000
  S   S5        1.0  0.25180  0.92664  0.98645  1.0000
  S   S6        1.0  0.74850  0.57372  0.48654  1.0000
  S   S7        1.0  0.74821  0.07337  0.01355  1.0000
  S   S8        1.0  0.25150  0.42628  0.51346  1.0000
  N   N1        1.0  0.24822  0.01009  0.62256  1.0000
  N   N2        1.0  0.75155  0.48992  0.12265  1.0000
  N   N3        1.0  0.75177  0.98991  0.37744  1.0000
  N   N4        1.0  0.24844  0.51008  0.87735  1.0000
  N   N5        1.0  0.53893  0.84005  0.79706  1.0000
  N   N6        1.0  0.46084  0.65983  0.29724  1.0000
  N   N7        1.0  0.46108  0.15995  0.20294  1.0000
  N   N8        1.0  0.53916  0.34016  0.70277  1.0000
  N   N9        1.0  0.29218  0.82703  0.44206  1.0000
  N   N10       1.0  0.70809  0.67313  0.94216  1.0000
  N   N11       1.0  0.70782  0.17296  0.55793  1.0000
  N   N12       1.0  0.29191  0.32687  0.05784  1.0000
  N   N13       1.0  0.40545  0.14343  0.41872  1.0000
  N   N14       1.0  0.59450  0.35674  0.91853  1.0000
  N   N15       1.0  0.59455  0.85657  0.58128  1.0000
  N   N16       1.0  0.40549  0.64327  0.08147  1.0000
