data_image0
_chemical_formula_structural       Zn4H44C32N12Cl4O4
_chemical_formula_sum              "Zn4 H44 C32 N12 Cl4 O4"
_cell_length_a       9.26444
_cell_length_b       11.1329
_cell_length_c       11.4381
_cell_angle_alpha    109.817
_cell_angle_beta     90.0001
_cell_angle_gamma    90.0001

_space_group_name_H-M_alt    "P 1"
_space_group_IT_number       1

loop_
  _space_group_symop_operation_xyz
  'x, y, z'

loop_
  _atom_site_type_symbol
  _atom_site_label
  _atom_site_symmetry_multiplicity
  _atom_site_fract_x
  _atom_site_fract_y
  _atom_site_fract_z
  _atom_site_occupancy
  Zn  Zn1       1.0  0.72018  0.62993  0.32980  1.0000
  Zn  Zn2       1.0  0.22018  0.87007  0.17019  1.0000
  Zn  Zn3       1.0  0.27982  0.37007  0.67020  1.0000
  Zn  Zn4       1.0  0.77982  0.12993  0.82981  1.0000
  H   H1        1.0  0.55530  0.57437  0.12408  1.0000
  H   H2        1.0  0.05530  0.92563  0.37592  1.0000
  H   H3        1.0  0.44470  0.42563  0.87592  1.0000
  H   H4        1.0  0.94470  0.07437  0.62408  1.0000
  H   H5        1.0  0.49547  0.68013  0.04593  1.0000
  H   H6        1.0  0.99547  0.81987  0.45407  1.0000
  H   H7        1.0  0.50453  0.31987  0.95407  1.0000
  H   H8        1.0  0.00453  0.18013  0.54593  1.0000
  H   H9        1.0  0.36840  0.60159  0.10960  1.0000
  H   H10       1.0  0.86840  0.89841  0.39040  1.0000
  H   H11       1.0  0.63160  0.39841  0.89040  1.0000
  H   H12       1.0  0.13160  0.10159  0.60960  1.0000
  H   H13       1.0  0.71068  0.89560  0.57379  1.0000
  H   H14       1.0  0.21067  0.60440  0.92621  1.0000
  H   H15       1.0  0.28932  0.10440  0.42621  1.0000
  H   H16       1.0  0.78932  0.39560  0.07379  1.0000
  H   H17       1.0  0.64427  0.60410  0.58405  1.0000
  H   H18       1.0  0.14427  0.89590  0.91595  1.0000
  H   H19       1.0  0.35573  0.39590  0.41595  1.0000
  H   H20       1.0  0.85573  0.10410  0.08405  1.0000
  H   H21       1.0  0.04972  0.53198  0.65140  1.0000
  H   H22       1.0  0.54972  0.96802  0.84860  1.0000
  H   H23       1.0  0.95028  0.46802  0.34860  1.0000
  H   H24       1.0  0.45028  0.03198  0.15140  1.0000
  H   H25       1.0  0.02566  0.68370  0.76968  1.0000
  H   H26       1.0  0.52566  0.81630  0.73032  1.0000
  H   H27       1.0  0.97434  0.31630  0.23032  1.0000
  H   H28       1.0  0.47434  0.18370  0.26968  1.0000
  H   H29       1.0  0.02625  0.67229  0.60967  1.0000
  H   H30       1.0  0.52625  0.82771  0.89033  1.0000
  H   H31       1.0  0.97375  0.32772  0.39033  1.0000
  H   H32       1.0  0.47375  0.17228  0.10967  1.0000
  H   H33       1.0  0.65674  0.55144  0.74832  1.0000
  H   H34       1.0  0.15674  0.94855  0.75168  1.0000
  H   H35       1.0  0.34326  0.44856  0.25168  1.0000
  H   H36       1.0  0.84326  0.05145  0.24832  1.0000
  H   H37       1.0  0.79734  0.62841  0.85603  1.0000
  H   H38       1.0  0.29733  0.87159  0.64397  1.0000
  H   H39       1.0  0.20267  0.37159  0.14397  1.0000
  H   H40       1.0  0.70267  0.12841  0.35603  1.0000
  H   H41       1.0  0.82010  0.46746  0.75598  1.0000
  H   H42       1.0  0.32010  0.03254  0.74402  1.0000
  H   H43       1.0  0.17990  0.53254  0.24402  1.0000
  H   H44       1.0  0.67990  0.96746  0.25598  1.0000
  C   C1        1.0  0.48023  0.75579  0.24426  1.0000
  C   C2        1.0  0.98023  0.74421  0.25574  1.0000
  C   C3        1.0  0.51977  0.24421  0.75574  1.0000
  C   C4        1.0  0.01977  0.25579  0.74426  1.0000
  C   C5        1.0  0.47531  0.64705  0.12475  1.0000
  C   C6        1.0  0.97531  0.85295  0.37525  1.0000
  C   C7        1.0  0.52469  0.35295  0.87525  1.0000
  C   C8        1.0  0.02469  0.14705  0.62475  1.0000
  C   C9        1.0  0.55046  0.88112  0.42871  1.0000
  C   C10       1.0  0.05046  0.61888  0.07129  1.0000
  C   C11       1.0  0.44954  0.11888  0.57129  1.0000
  C   C12       1.0  0.94954  0.38112  0.92871  1.0000
  C   C13       1.0  0.62128  0.93996  0.54167  1.0000
  C   C14       1.0  0.12128  0.56004  0.95833  1.0000
  C   C15       1.0  0.37872  0.06004  0.45833  1.0000
  C   C16       1.0  0.87872  0.43996  0.04167  1.0000
  C   C17       1.0  0.56790  0.06022  0.61186  1.0000
  C   C18       1.0  0.06790  0.43978  0.88814  1.0000
  C   C19       1.0  0.43211  0.93978  0.38814  1.0000
  C   C20       1.0  0.93210  0.56022  0.11186  1.0000
  C   C21       1.0  0.76010  0.62576  0.58140  1.0000
  C   C22       1.0  0.26010  0.87425  0.91861  1.0000
  C   C23       1.0  0.23990  0.37424  0.41861  1.0000
  C   C24       1.0  0.73990  0.12575  0.08140  1.0000
  C   C25       1.0  0.99504  0.62458  0.67506  1.0000
  C   C26       1.0  0.49504  0.87542  0.82494  1.0000
  C   C27       1.0  0.00496  0.37542  0.32494  1.0000
  C   C28       1.0  0.50496  0.12458  0.17506  1.0000
  C   C29       1.0  0.77396  0.56049  0.76271  1.0000
  C   C30       1.0  0.27396  0.93951  0.73729  1.0000
  C   C31       1.0  0.22604  0.43951  0.23729  1.0000
  C   C32       1.0  0.72604  0.06049  0.26271  1.0000
  N   N1        1.0  0.57728  0.76494  0.33523  1.0000
  N   N2        1.0  0.07728  0.73506  0.16476  1.0000
  N   N3        1.0  0.42272  0.23506  0.66476  1.0000
  N   N4        1.0  0.92272  0.26494  0.83524  1.0000
  N   N5        1.0  0.39058  0.85754  0.27153  1.0000
  N   N6        1.0  0.89058  0.64246  0.22847  1.0000
  N   N7        1.0  0.60942  0.14246  0.72847  1.0000
  N   N8        1.0  0.10942  0.35754  0.77153  1.0000
  N   N9        1.0  0.83937  0.60532  0.66931  1.0000
  N   N10       1.0  0.33937  0.89467  0.83069  1.0000
  N   N11       1.0  0.16064  0.39467  0.33069  1.0000
  N   N12       1.0  0.66063  0.10533  0.16931  1.0000
  Cl  Cl1       1.0  0.62212  0.43605  0.29329  1.0000
  Cl  Cl2       1.0  0.12213  0.06395  0.20671  1.0000
  Cl  Cl3       1.0  0.37788  0.56395  0.70671  1.0000
  Cl  Cl4       1.0  0.87787  0.93605  0.79329  1.0000
  O   O1        1.0  0.81250  0.66608  0.49935  1.0000
  O   O2        1.0  0.31250  0.83392  0.00065  1.0000
  O   O3        1.0  0.18750  0.33392  0.50065  1.0000
  O   O4        1.0  0.68750  0.16608  0.99935  1.0000
