data_image0
_chemical_formula_structural       Ag6H22C28N4O20
_chemical_formula_sum              "Ag6 H22 C28 N4 O20"
_cell_length_a       6.64492
_cell_length_b       10.5794
_cell_length_c       12.9602
_cell_angle_alpha    66.6728
_cell_angle_beta     82.6437
_cell_angle_gamma    83.3309

_space_group_name_H-M_alt    "P 1"
_space_group_IT_number       1

loop_
  _space_group_symop_operation_xyz
  'x, y, z'

loop_
  _atom_site_type_symbol
  _atom_site_label
  _atom_site_symmetry_multiplicity
  _atom_site_fract_x
  _atom_site_fract_y
  _atom_site_fract_z
  _atom_site_occupancy
  Ag  Ag1       1.0  0.49999  1.00000  1.00000  1.0000
  Ag  Ag2       1.0  0.00001  0.00000  0.00000  1.0000
  Ag  Ag3       1.0  0.43129  0.53694  0.08992  1.0000
  Ag  Ag4       1.0  0.56870  0.46306  0.91007  1.0000
  Ag  Ag5       1.0  0.12408  0.60404  0.92265  1.0000
  Ag  Ag6       1.0  0.87592  0.39597  0.07735  1.0000
  H   H1        1.0  0.68418  0.93314  0.39947  1.0000
  H   H2        1.0  0.31581  0.06686  0.60053  1.0000
  H   H3        1.0  0.68577  0.67592  0.47914  1.0000
  H   H4        1.0  0.31423  0.32408  0.52086  1.0000
  H   H5        1.0  0.34486  0.77561  0.20349  1.0000
  H   H6        1.0  0.65515  0.22438  0.79652  1.0000
  H   H7        1.0  0.22975  0.72225  0.40527  1.0000
  H   H8        1.0  0.77026  0.27775  0.59473  1.0000
  H   H9        1.0  0.16928  0.91510  0.47345  1.0000
  H   H10       1.0  0.83072  0.08490  0.52655  1.0000
  H   H11       1.0  0.80735  0.05599  0.19892  1.0000
  H   H12       1.0  0.19265  0.94401  0.80108  1.0000
  H   H13       1.0  0.38546  0.76740  0.70437  1.0000
  H   H14       1.0  0.61453  0.23260  0.29563  1.0000
  H   H15       1.0  0.14766  0.77910  0.69672  1.0000
  H   H16       1.0  0.85234  0.22090  0.30328  1.0000
  H   H17       1.0  0.02315  0.34022  0.39254  1.0000
  H   H18       1.0  0.97685  0.65978  0.60746  1.0000
  H   H19       1.0  0.47597  0.50867  0.31725  1.0000
  H   H20       1.0  0.52404  0.49133  0.68275  1.0000
  H   H21       1.0  0.24060  0.51532  0.30684  1.0000
  H   H22       1.0  0.75940  0.48468  0.69316  1.0000
  C   C1        1.0  0.80587  0.94391  0.23475  1.0000
  C   C2        1.0  0.19412  0.05609  0.76526  1.0000
  C   C3        1.0  0.73820  0.87476  0.34735  1.0000
  C   C4        1.0  0.26180  0.12524  0.65265  1.0000
  C   C5        1.0  0.73949  0.73157  0.39120  1.0000
  C   C6        1.0  0.26050  0.26843  0.60880  1.0000
  C   C7        1.0  0.80990  0.66147  0.32058  1.0000
  C   C8        1.0  0.19010  0.33854  0.67942  1.0000
  C   C9        1.0  0.86934  0.73799  0.20643  1.0000
  C   C10       1.0  0.13066  0.26200  0.79358  1.0000
  C   C11       1.0  0.82242  0.50633  0.37007  1.0000
  C   C12       1.0  0.17758  0.49367  0.62994  1.0000
  C   C13       1.0  0.92378  0.66576  0.12542  1.0000
  C   C14       1.0  0.07623  0.33424  0.87459  1.0000
  C   C15       1.0  0.31842  0.85785  0.23517  1.0000
  C   C16       1.0  0.68158  0.14215  0.76483  1.0000
  C   C17       1.0  0.25241  0.82830  0.34795  1.0000
  C   C18       1.0  0.74759  0.17170  0.65205  1.0000
  C   C19       1.0  0.22143  0.93575  0.38545  1.0000
  C   C20       1.0  0.77857  0.06426  0.61455  1.0000
  C   C21       1.0  0.25790  0.07008  0.30942  1.0000
  C   C22       1.0  0.74210  0.92992  0.69058  1.0000
  C   C23       1.0  0.32578  0.09248  0.19677  1.0000
  C   C24       1.0  0.67422  0.90752  0.80323  1.0000
  C   C25       1.0  0.23334  0.18146  0.35608  1.0000
  C   C26       1.0  0.76666  0.81853  0.64392  1.0000
  C   C27       1.0  0.37321  0.23528  0.11310  1.0000
  C   C28       1.0  0.62680  0.76472  0.88689  1.0000
  N   N1        1.0  0.86941  0.87689  0.16573  1.0000
  N   N2        1.0  0.13059  0.12311  0.83427  1.0000
  N   N3        1.0  0.35582  0.98651  0.16173  1.0000
  N   N4        1.0  0.64418  0.01348  0.83827  1.0000
  O   O1        1.0  0.02351  0.72808  0.03156  1.0000
  O   O2        1.0  0.97650  0.27192  0.96845  1.0000
  O   O3        1.0  0.86048  0.54585  0.16174  1.0000
  O   O4        1.0  0.13951  0.45416  0.83826  1.0000
  O   O5        1.0  0.00996  0.44968  0.38413  1.0000
  O   O6        1.0  0.99005  0.55032  0.61587  1.0000
  O   O7        1.0  0.66929  0.43987  0.40309  1.0000
  O   O8        1.0  0.33073  0.56014  0.59691  1.0000
  O   O9        1.0  0.38587  0.22166  0.37785  1.0000
  O   O10       1.0  0.61412  0.77834  0.62215  1.0000
  O   O11       1.0  0.04651  0.21791  0.38146  1.0000
  O   O12       1.0  0.95349  0.78209  0.61854  1.0000
  O   O13       1.0  0.29683  0.33256  0.14351  1.0000
  O   O14       1.0  0.70318  0.66745  0.85648  1.0000
  O   O15       1.0  0.48533  0.24673  0.02343  1.0000
  O   O16       1.0  0.51467  0.75326  0.97657  1.0000
  O   O17       1.0  0.36778  0.55579  0.26543  1.0000
  O   O18       1.0  0.63222  0.44421  0.73457  1.0000
  O   O19       1.0  0.25159  0.77381  0.74708  1.0000
  O   O20       1.0  0.74841  0.22619  0.25292  1.0000
