data_image0
_chemical_formula_structural       Cd2H14C16S4N6O2
_chemical_formula_sum              "Cd2 H14 C16 S4 N6 O2"
_cell_length_a       8.17636
_cell_length_b       8.50568
_cell_length_c       9.75554
_cell_angle_alpha    69.2507
_cell_angle_beta     72.4536
_cell_angle_gamma    72.3666

_space_group_name_H-M_alt    "P 1"
_space_group_IT_number       1

loop_
  _space_group_symop_operation_xyz
  'x, y, z'

loop_
  _atom_site_type_symbol
  _atom_site_label
  _atom_site_symmetry_multiplicity
  _atom_site_fract_x
  _atom_site_fract_y
  _atom_site_fract_z
  _atom_site_occupancy
  Cd  Cd1       1.0  0.63369  0.64284  0.51603  1.0000
  Cd  Cd2       1.0  0.36631  0.35716  0.48397  1.0000
  H   H1        1.0  0.47232  0.32657  0.91124  1.0000
  H   H2        1.0  0.52768  0.67344  0.08876  1.0000
  H   H3        1.0  0.96068  0.90879  0.70619  1.0000
  H   H4        1.0  0.03932  0.09122  0.29380  1.0000
  H   H5        1.0  0.78713  0.16989  0.54307  1.0000
  H   H6        1.0  0.21287  0.83011  0.45693  1.0000
  H   H7        1.0  0.62875  0.07231  0.09002  1.0000
  H   H8        1.0  0.37125  0.92770  0.90998  1.0000
  H   H9        1.0  0.87667  0.82216  0.12776  1.0000
  H   H10       1.0  0.12333  0.17784  0.87223  1.0000
  H   H11       1.0  0.04301  0.78124  0.96817  1.0000
  H   H12       1.0  0.95699  0.21876  0.03182  1.0000
  H   H13       1.0  0.85386  0.69603  0.02663  1.0000
  H   H14       1.0  0.14615  0.30397  0.97337  1.0000
  C   C1        1.0  0.02555  0.45643  0.33036  1.0000
  C   C2        1.0  0.97444  0.54357  0.66964  1.0000
  C   C3        1.0  0.34121  0.94626  0.66178  1.0000
  C   C4        1.0  0.65880  0.05374  0.33822  1.0000
  C   C5        1.0  0.58084  0.22829  0.87512  1.0000
  C   C6        1.0  0.41916  0.77171  0.12489  1.0000
  C   C7        1.0  0.85298  0.99727  0.75711  1.0000
  C   C8        1.0  0.14702  0.00273  0.24289  1.0000
  C   C9        1.0  0.80833  0.96660  0.91356  1.0000
  C   C10       1.0  0.19167  0.03340  0.08644  1.0000
  C   C11       1.0  0.76141  0.13868  0.66480  1.0000
  C   C12       1.0  0.23858  0.86132  0.33520  1.0000
  C   C13       1.0  0.66995  0.08780  0.96997  1.0000
  C   C14       1.0  0.33005  0.91221  0.03003  1.0000
  C   C15       1.0  0.90091  0.80957  0.01505  1.0000
  C   C16       1.0  0.09909  0.19043  0.98495  1.0000
  S   S1        1.0  0.32134  0.74869  0.70491  1.0000
  S   S2        1.0  0.67867  0.25130  0.29509  1.0000
  S   S3        1.0  0.23173  0.39267  0.25290  1.0000
  S   S4        1.0  0.76827  0.60733  0.74710  1.0000
  N   N1        1.0  0.87644  0.50050  0.38668  1.0000
  N   N2        1.0  0.12356  0.49950  0.61332  1.0000
  N   N3        1.0  0.62527  0.25024  0.72497  1.0000
  N   N4        1.0  0.37472  0.74977  0.27503  1.0000
  N   N5        1.0  0.35535  0.08916  0.63518  1.0000
  N   N6        1.0  0.64466  0.91083  0.36482  1.0000
  O   O1        1.0  0.53304  0.38437  0.63679  1.0000
  O   O2        1.0  0.46695  0.61564  0.36321  1.0000
