data_image0
_chemical_formula_structural       Cd2H22C28N4O10
_chemical_formula_sum              "Cd2 H22 C28 N4 O10"
_cell_length_a       6.87255
_cell_length_b       9.71123
_cell_length_c       11.3392
_cell_angle_alpha    91.611
_cell_angle_beta     91.3995
_cell_angle_gamma    72.3394

_space_group_name_H-M_alt    "P 1"
_space_group_IT_number       1

loop_
  _space_group_symop_operation_xyz
  'x, y, z'

loop_
  _atom_site_type_symbol
  _atom_site_label
  _atom_site_symmetry_multiplicity
  _atom_site_fract_x
  _atom_site_fract_y
  _atom_site_fract_z
  _atom_site_occupancy
  Cd  Cd1       1.0  0.48998  0.80905  0.95109  1.0000
  Cd  Cd2       1.0  0.51004  0.19095  0.04892  1.0000
  H   H1        1.0  0.25519  0.59986  0.95018  1.0000
  H   H2        1.0  0.74481  0.40015  0.04981  1.0000
  H   H3        1.0  0.13140  0.71423  0.85681  1.0000
  H   H4        1.0  0.86861  0.28578  0.14318  1.0000
  H   H5        1.0  0.55736  0.56546  0.17211  1.0000
  H   H6        1.0  0.44265  0.43455  0.82788  1.0000
  H   H7        1.0  0.20722  0.00526  0.17998  1.0000
  H   H8        1.0  0.79278  0.99474  0.82002  1.0000
  H   H9        1.0  0.19890  0.89219  0.40151  1.0000
  H   H10       1.0  0.80108  0.10780  0.59849  1.0000
  H   H11       1.0  0.93418  0.58258  0.65394  1.0000
  H   H12       1.0  0.06585  0.41743  0.34606  1.0000
  H   H13       1.0  0.01325  0.29254  0.94284  1.0000
  H   H14       1.0  0.98674  0.70746  0.05715  1.0000
  H   H15       1.0  0.38072  0.76327  0.54840  1.0000
  H   H16       1.0  0.61928  0.23673  0.45160  1.0000
  H   H17       1.0  0.52202  0.40842  0.29257  1.0000
  H   H18       1.0  0.47799  0.59157  0.70743  1.0000
  H   H19       1.0  0.14177  0.37872  0.52657  1.0000
  H   H20       1.0  0.85824  0.62127  0.47343  1.0000
  H   H21       1.0  0.28392  0.13205  0.61064  1.0000
  H   H22       1.0  0.71605  0.86795  0.38936  1.0000
  C   C1        1.0  0.45873  0.66956  0.20227  1.0000
  C   C2        1.0  0.54125  0.33044  0.79772  1.0000
  C   C3        1.0  0.27900  0.89712  0.21186  1.0000
  C   C4        1.0  0.72099  0.10288  0.78815  1.0000
  C   C5        1.0  0.81173  0.56902  0.87496  1.0000
  C   C6        1.0  0.18828  0.43099  0.12504  1.0000
  C   C7        1.0  0.27628  0.84315  0.32198  1.0000
  C   C8        1.0  0.72373  0.15685  0.67803  1.0000
  C   C9        1.0  0.95459  0.45004  0.80471  1.0000
  C   C10       1.0  0.04538  0.54996  0.19528  1.0000
  C   C11       1.0  0.44188  0.59847  0.40855  1.0000
  C   C12       1.0  0.55813  0.40152  0.59145  1.0000
  C   C13       1.0  0.99629  0.47395  0.68800  1.0000
  C   C14       1.0  0.00370  0.52605  0.31200  1.0000
  C   C15       1.0  0.03930  0.31290  0.85174  1.0000
  C   C16       1.0  0.96069  0.68710  0.14826  1.0000
  C   C17       1.0  0.42984  0.64816  0.52595  1.0000
  C   C18       1.0  0.57016  0.35183  0.47405  1.0000
  C   C19       1.0  0.51208  0.44989  0.38307  1.0000
  C   C20       1.0  0.48792  0.55010  0.61692  1.0000
  C   C21       1.0  0.11125  0.35974  0.61743  1.0000
  C   C22       1.0  0.88876  0.64026  0.38256  1.0000
  C   C23       1.0  0.16000  0.19937  0.78251  1.0000
  C   C24       1.0  0.84000  0.80063  0.21749  1.0000
  C   C25       1.0  0.19125  0.22219  0.66390  1.0000
  C   C26       1.0  0.80875  0.77780  0.33610  1.0000
  C   C27       1.0  0.26193  0.05662  0.83692  1.0000
  C   C28       1.0  0.73809  0.94338  0.16309  1.0000
  N   N1        1.0  0.39317  0.78768  0.13854  1.0000
  N   N2        1.0  0.60680  0.21233  0.86146  1.0000
  N   N3        1.0  0.39000  0.69796  0.31508  1.0000
  N   N4        1.0  0.61001  0.30203  0.68492  1.0000
  O   O1        1.0  0.71072  0.94466  0.04965  1.0000
  O   O2        1.0  0.28926  0.05533  0.95036  1.0000
  O   O3        1.0  0.26888  0.66675  0.88700  1.0000
  O   O4        1.0  0.73112  0.33327  0.11301  1.0000
  O   O5        1.0  0.77221  0.69880  0.83871  1.0000
  O   O6        1.0  0.22783  0.30121  0.16129  1.0000
  O   O7        1.0  0.72559  0.53938  0.96489  1.0000
  O   O8        1.0  0.27442  0.46063  0.03512  1.0000
  O   O9        1.0  0.32308  0.94335  0.77325  1.0000
  O   O10       1.0  0.67691  0.05666  0.22676  1.0000
