data_image0
_chemical_formula_structural       U2Ag4H12C28N4O20
_chemical_formula_sum              "U2 Ag4 H12 C28 N4 O20"
_cell_length_a       8.58467
_cell_length_b       9.44017
_cell_length_c       12.1498
_cell_angle_alpha    71.2956
_cell_angle_beta     67.969
_cell_angle_gamma    65.7452

_space_group_name_H-M_alt    "P 1"
_space_group_IT_number       1

loop_
  _space_group_symop_operation_xyz
  'x, y, z'

loop_
  _atom_site_type_symbol
  _atom_site_label
  _atom_site_symmetry_multiplicity
  _atom_site_fract_x
  _atom_site_fract_y
  _atom_site_fract_z
  _atom_site_occupancy
  U   U1        1.0  0.62044  0.27559  0.82470  1.0000
  U   U2        1.0  0.37957  0.72442  0.17530  1.0000
  Ag  Ag1       1.0  0.95907  0.12074  0.26416  1.0000
  Ag  Ag2       1.0  0.04093  0.87927  0.73584  1.0000
  Ag  Ag3       1.0  0.88903  0.40062  0.08213  1.0000
  Ag  Ag4       1.0  0.11097  0.59939  0.91788  1.0000
  H   H1        1.0  0.82138  0.67017  0.27190  1.0000
  H   H2        1.0  0.17861  0.32983  0.72810  1.0000
  H   H3        1.0  0.52213  0.77541  0.42055  1.0000
  H   H4        1.0  0.47786  0.22458  0.57944  1.0000
  H   H5        1.0  0.31018  0.21346  0.33158  1.0000
  H   H6        1.0  0.68982  0.78653  0.66842  1.0000
  H   H7        1.0  0.03467  0.40961  0.34173  1.0000
  H   H8        1.0  0.96532  0.59039  0.65827  1.0000
  H   H9        1.0  0.59085  0.02898  0.39041  1.0000
  H   H10       1.0  0.40914  0.97101  0.60959  1.0000
  H   H11       1.0  0.85248  0.89749  0.23107  1.0000
  H   H12       1.0  0.14753  0.10251  0.76893  1.0000
  C   C1        1.0  0.78739  0.60651  0.36496  1.0000
  C   C2        1.0  0.21260  0.39349  0.63504  1.0000
  C   C3        1.0  0.62227  0.66470  0.44625  1.0000
  C   C4        1.0  0.37772  0.33529  0.55374  1.0000
  C   C5        1.0  0.85452  0.93562  0.99546  1.0000
  C   C6        1.0  0.14549  0.06439  0.00454  1.0000
  C   C7        1.0  0.97123  0.21920  0.56926  1.0000
  C   C8        1.0  0.02876  0.78080  0.43074  1.0000
  C   C9        1.0  0.43276  0.16506  0.26410  1.0000
  C   C10       1.0  0.56724  0.83494  0.73591  1.0000
  C   C11       1.0  0.85669  0.37962  0.52147  1.0000
  C   C12       1.0  0.14330  0.62038  0.47852  1.0000
  C   C13       1.0  0.90711  0.46192  0.40342  1.0000
  C   C14       1.0  0.09288  0.53808  0.59658  1.0000
  C   C15       1.0  0.58278  0.57473  0.56274  1.0000
  C   C16       1.0  0.41721  0.42526  0.43725  1.0000
  C   C17       1.0  0.40741  0.62350  0.65474  1.0000
  C   C18       1.0  0.59258  0.37650  0.34526  1.0000
  C   C19       1.0  0.28682  0.31753  0.09307  1.0000
  C   C20       1.0  0.71318  0.68247  0.90693  1.0000
  C   C21       1.0  0.58565  0.05902  0.29717  1.0000
  C   C22       1.0  0.41435  0.94098  0.70283  1.0000
  C   C23       1.0  0.73293  0.98712  0.20933  1.0000
  C   C24       1.0  0.26708  0.01288  0.79067  1.0000
  C   C25       1.0  0.43929  0.20557  0.14176  1.0000
  C   C26       1.0  0.56071  0.79443  0.85824  1.0000
  C   C27       1.0  0.72277  0.02688  0.09081  1.0000
  C   C28       1.0  0.27724  0.97312  0.90919  1.0000
  N   N1        1.0  0.69791  0.43491  0.60014  1.0000
  N   N2        1.0  0.30208  0.56508  0.39985  1.0000
  N   N3        1.0  0.58327  0.14111  0.05625  1.0000
  N   N4        1.0  0.41674  0.85889  0.94375  1.0000
  O   O1        1.0  0.13110  0.35367  0.16182  1.0000
  O   O2        1.0  0.86890  0.64633  0.83818  1.0000
  O   O3        1.0  0.82739  0.99489  0.88980  1.0000
  O   O4        1.0  0.17263  0.00512  0.11020  1.0000
  O   O5        1.0  0.39517  0.53526  0.76081  1.0000
  O   O6        1.0  0.60482  0.46475  0.23919  1.0000
  O   O7        1.0  0.97263  0.80914  0.02318  1.0000
  O   O8        1.0  0.02737  0.19086  0.97682  1.0000
  O   O9        1.0  0.89593  0.16175  0.68076  1.0000
  O   O10       1.0  0.10407  0.83826  0.31924  1.0000
  O   O11       1.0  0.32975  0.36677  0.97701  1.0000
  O   O12       1.0  0.67026  0.63323  0.02299  1.0000
  O   O13       1.0  0.51513  0.17458  0.78649  1.0000
  O   O14       1.0  0.48489  0.82540  0.21352  1.0000
  O   O15       1.0  0.72200  0.38357  0.85871  1.0000
  O   O16       1.0  0.27799  0.61645  0.14129  1.0000
  O   O17       1.0  0.28686  0.74490  0.62163  1.0000
  O   O18       1.0  0.71313  0.25509  0.37837  1.0000
  O   O19       1.0  0.12015  0.15029  0.50723  1.0000
  O   O20       1.0  0.87985  0.84970  0.49276  1.0000
