data_image0
_chemical_formula_structural       U4H12C28N4O24
_chemical_formula_sum              "U4 H12 C28 N4 O24"
_cell_length_a       5.58222
_cell_length_b       8.4334
_cell_length_c       19.746
_cell_angle_alpha    90.0002
_cell_angle_beta     89.9994
_cell_angle_gamma    90.0001

_space_group_name_H-M_alt    "P 1"
_space_group_IT_number       1

loop_
  _space_group_symop_operation_xyz
  'x, y, z'

loop_
  _atom_site_type_symbol
  _atom_site_label
  _atom_site_symmetry_multiplicity
  _atom_site_fract_x
  _atom_site_fract_y
  _atom_site_fract_z
  _atom_site_occupancy
  U   U1        1.0  0.45321  0.24427  0.12613  1.0000
  U   U2        1.0  0.04679  0.75573  0.62613  1.0000
  U   U3        1.0  0.54679  0.74427  0.37387  1.0000
  U   U4        1.0  0.95321  0.25573  0.87387  1.0000
  H   H1        1.0  0.08272  0.80721  0.23065  1.0000
  H   H2        1.0  0.41730  0.19280  0.73064  1.0000
  H   H3        1.0  0.91729  0.30721  0.26935  1.0000
  H   H4        1.0  0.58271  0.69279  0.76936  1.0000
  H   H5        1.0  0.87918  0.90523  0.12442  1.0000
  H   H6        1.0  0.62084  0.09477  0.62442  1.0000
  H   H7        1.0  0.12083  0.40523  0.37557  1.0000
  H   H8        1.0  0.37917  0.59477  0.87558  1.0000
  H   H9        1.0  0.90477  0.73632  0.01883  1.0000
  H   H10       1.0  0.59524  0.26367  0.51883  1.0000
  H   H11       1.0  0.09524  0.23633  0.48117  1.0000
  H   H12       1.0  0.40476  0.76367  0.98117  1.0000
  C   C1        1.0  0.33233  0.52138  0.24134  1.0000
  C   C2        1.0  0.16767  0.47862  0.74134  1.0000
  C   C3        1.0  0.66766  0.02138  0.25866  1.0000
  C   C4        1.0  0.83233  0.97862  0.75866  1.0000
  C   C5        1.0  0.21187  0.59670  0.18163  1.0000
  C   C6        1.0  0.28813  0.40329  0.68162  1.0000
  C   C7        1.0  0.78813  0.09670  0.31837  1.0000
  C   C8        1.0  0.71187  0.90330  0.81838  1.0000
  C   C9        1.0  0.08892  0.74065  0.18352  1.0000
  C   C10       1.0  0.41109  0.25935  0.68351  1.0000
  C   C11       1.0  0.91108  0.24065  0.31648  1.0000
  C   C12       1.0  0.58892  0.75935  0.81648  1.0000
  C   C13       1.0  0.97703  0.79371  0.12445  1.0000
  C   C14       1.0  0.52298  0.20630  0.62445  1.0000
  C   C15       1.0  0.02298  0.29371  0.37555  1.0000
  C   C16       1.0  0.47703  0.70629  0.87555  1.0000
  C   C17       1.0  0.99172  0.70153  0.06590  1.0000
  C   C18       1.0  0.50830  0.29846  0.56590  1.0000
  C   C19       1.0  0.00829  0.20153  0.43410  1.0000
  C   C20       1.0  0.49171  0.79847  0.93410  1.0000
  C   C21       1.0  0.11939  0.55937  0.06823  1.0000
  C   C22       1.0  0.38062  0.44063  0.56823  1.0000
  C   C23       1.0  0.88062  0.05937  0.43177  1.0000
  C   C24       1.0  0.61937  0.94063  0.93177  1.0000
  C   C25       1.0  0.14573  0.44443  0.01066  1.0000
  C   C26       1.0  0.35427  0.55557  0.51066  1.0000
  C   C27       1.0  0.85427  0.94443  0.48934  1.0000
  C   C28       1.0  0.64572  0.05558  0.98934  1.0000
  N   N1        1.0  0.22721  0.50913  0.12504  1.0000
  N   N2        1.0  0.27279  0.49087  0.62504  1.0000
  N   N3        1.0  0.77279  0.00913  0.37496  1.0000
  N   N4        1.0  0.72720  0.99087  0.87496  1.0000
  O   O1        1.0  0.18510  0.13967  0.15061  1.0000
  O   O2        1.0  0.31490  0.86033  0.65061  1.0000
  O   O3        1.0  0.81489  0.63967  0.34939  1.0000
  O   O4        1.0  0.68510  0.36034  0.84939  1.0000
  O   O5        1.0  0.71403  0.36107  0.10566  1.0000
  O   O6        1.0  0.78597  0.63893  0.60566  1.0000
  O   O7        1.0  0.28597  0.86107  0.39434  1.0000
  O   O8        1.0  0.21403  0.13893  0.89434  1.0000
  O   O9        1.0  0.42700  0.38645  0.23167  1.0000
  O   O10       1.0  0.07299  0.61354  0.73167  1.0000
  O   O11       1.0  0.57299  0.88645  0.26833  1.0000
  O   O12       1.0  0.92701  0.11355  0.76833  1.0000
  O   O13       1.0  0.32748  0.59239  0.29798  1.0000
  O   O14       1.0  0.17252  0.40761  0.79798  1.0000
  O   O15       1.0  0.67251  0.09239  0.20202  1.0000
  O   O16       1.0  0.82749  0.90761  0.70202  1.0000
  O   O17       1.0  0.27174  0.32261  0.02404  1.0000
  O   O18       1.0  0.22826  0.67739  0.52404  1.0000
  O   O19       1.0  0.72826  0.82261  0.47596  1.0000
  O   O20       1.0  0.77173  0.17739  0.97596  1.0000
  O   O21       1.0  0.04508  0.47083  0.95414  1.0000
  O   O22       1.0  0.45493  0.52917  0.45414  1.0000
  O   O23       1.0  0.95492  0.97083  0.54586  1.0000
  O   O24       1.0  0.54507  0.02917  0.04586  1.0000
