data_image0
_chemical_formula_structural       Cd2H32C32N4Cl4O8
_chemical_formula_sum              "Cd2 H32 C32 N4 Cl4 O8"
_cell_length_a       7.02577
_cell_length_b       10.2425
_cell_length_c       13.9964
_cell_angle_alpha    95.5302
_cell_angle_beta     104.534
_cell_angle_gamma    110.089

_space_group_name_H-M_alt    "P 1"
_space_group_IT_number       1

loop_
  _space_group_symop_operation_xyz
  'x, y, z'

loop_
  _atom_site_type_symbol
  _atom_site_label
  _atom_site_symmetry_multiplicity
  _atom_site_fract_x
  _atom_site_fract_y
  _atom_site_fract_z
  _atom_site_occupancy
  Cd  Cd1       1.0  0.57350  0.75004  0.74993  1.0000
  Cd  Cd2       1.0  0.42650  0.24996  0.25007  1.0000
  H   H1        1.0  0.07931  0.70102  0.62123  1.0000
  H   H2        1.0  0.25665  0.79916  0.87872  1.0000
  H   H3        1.0  0.92069  0.29898  0.37877  1.0000
  H   H4        1.0  0.74334  0.20084  0.12128  1.0000
  H   H5        1.0  0.75573  0.44689  0.45636  1.0000
  H   H6        1.0  0.35271  0.05314  0.04375  1.0000
  H   H7        1.0  0.24428  0.55311  0.54364  1.0000
  H   H8        1.0  0.64728  0.94686  0.95625  1.0000
  H   H9        1.0  0.89482  0.44216  0.57981  1.0000
  H   H10       1.0  0.37291  0.05795  0.92028  1.0000
  H   H11       1.0  0.10518  0.55785  0.42020  1.0000
  H   H12       1.0  0.62709  0.94204  0.07972  1.0000
  H   H13       1.0  0.25534  0.85825  0.55504  1.0000
  H   H14       1.0  0.34128  0.64177  0.94461  1.0000
  H   H15       1.0  0.74467  0.14175  0.44496  1.0000
  H   H16       1.0  0.65872  0.35823  0.05539  1.0000
  H   H17       1.0  0.28219  0.01105  0.42321  1.0000
  H   H18       1.0  0.34773  0.48902  0.07643  1.0000
  H   H19       1.0  0.71782  0.98895  0.57679  1.0000
  H   H20       1.0  0.65227  0.51098  0.92357  1.0000
  H   H21       1.0  0.95357  0.97270  0.28433  1.0000
  H   H22       1.0  0.19704  0.52720  0.21557  1.0000
  H   H23       1.0  0.04643  0.02730  0.71567  1.0000
  H   H24       1.0  0.80296  0.47279  0.78443  1.0000
  H   H25       1.0  0.61110  0.77751  0.27723  1.0000
  H   H26       1.0  0.05671  0.72218  0.22290  1.0000
  H   H27       1.0  0.38890  0.22250  0.72277  1.0000
  H   H28       1.0  0.94329  0.27781  0.77709  1.0000
  H   H29       1.0  0.61038  0.62629  0.40705  1.0000
  H   H30       1.0  0.07704  0.87352  0.09311  1.0000
  H   H31       1.0  0.38962  0.37372  0.59295  1.0000
  H   H32       1.0  0.92296  0.12648  0.90689  1.0000
  C   C1        1.0  0.75706  0.64891  0.61249  1.0000
  C   C2        1.0  0.99532  0.85101  0.88751  1.0000
  C   C3        1.0  0.24294  0.35110  0.38751  1.0000
  C   C4        1.0  0.00468  0.14898  0.11249  1.0000
  C   C5        1.0  0.92671  0.64836  0.56071  1.0000
  C   C6        1.0  0.21734  0.85170  0.93932  1.0000
  C   C7        1.0  0.07329  0.35165  0.43929  1.0000
  C   C8        1.0  0.78266  0.14830  0.06068  1.0000
  C   C9        1.0  0.90617  0.49973  0.51796  1.0000
  C   C10       1.0  0.38851  0.00031  0.98210  1.0000
  C   C11       1.0  0.09383  0.50027  0.48205  1.0000
  C   C12       1.0  0.61149  0.99968  0.01790  1.0000
  C   C13       1.0  0.12076  0.84309  0.48968  1.0000
  C   C14       1.0  0.28759  0.65692  0.01009  1.0000
  C   C15       1.0  0.87924  0.15692  0.51032  1.0000
  C   C16       1.0  0.71241  0.34308  0.98991  1.0000
  C   C17       1.0  0.13192  0.92723  0.41800  1.0000
  C   C18       1.0  0.28653  0.57279  0.08176  1.0000
  C   C19       1.0  0.86808  0.07277  0.58200  1.0000
  C   C20       1.0  0.71347  0.42721  0.91824  1.0000
  C   C21       1.0  0.94781  0.90599  0.34064  1.0000
  C   C22       1.0  0.20131  0.59391  0.15926  1.0000
  C   C23       1.0  0.05219  0.09401  0.65936  1.0000
  C   C24       1.0  0.79870  0.40609  0.84074  1.0000
  C   C25       1.0  0.75772  0.79769  0.33636  1.0000
  C   C26       1.0  0.12374  0.70209  0.16365  1.0000
  C   C27       1.0  0.24228  0.20231  0.66364  1.0000
  C   C28       1.0  0.87626  0.29791  0.83635  1.0000
  C   C29       1.0  0.75394  0.71407  0.40846  1.0000
  C   C30       1.0  0.13133  0.78576  0.09161  1.0000
  C   C31       1.0  0.24606  0.28593  0.59155  1.0000
  C   C32       1.0  0.86868  0.21423  0.90839  1.0000
  N   N1        1.0  0.93358  0.73911  0.48408  1.0000
  N   N2        1.0  0.21011  0.76087  0.01588  1.0000
  N   N3        1.0  0.06642  0.26090  0.51592  1.0000
  N   N4        1.0  0.78989  0.23913  0.98412  1.0000
  Cl  Cl1       1.0  0.44495  0.94715  0.73545  1.0000
  Cl  Cl2       1.0  0.26237  0.55271  0.76443  1.0000
  Cl  Cl3       1.0  0.55505  0.05285  0.26455  1.0000
  Cl  Cl4       1.0  0.73763  0.44729  0.23557  1.0000
  O   O1        1.0  0.71889  0.76243  0.62054  1.0000
  O   O2        1.0  0.83542  0.73756  0.87960  1.0000
  O   O3        1.0  0.28110  0.23757  0.37946  1.0000
  O   O4        1.0  0.16458  0.26244  0.12040  1.0000
  O   O5        1.0  0.67919  0.54340  0.64914  1.0000
  O   O6        1.0  0.98638  0.95640  0.85070  1.0000
  O   O7        1.0  0.32082  0.45660  0.35086  1.0000
  O   O8        1.0  0.01361  0.04359  0.14929  1.0000
