data_image0
_chemical_formula_structural       Cd2H32C32Br4N4O8
_chemical_formula_sum              "Cd2 H32 C32 Br4 N4 O8"
_cell_length_a       7.20031
_cell_length_b       10.2717
_cell_length_c       14.2638
_cell_angle_alpha    75.3129
_cell_angle_beta     75.39
_cell_angle_gamma    69.4837

_space_group_name_H-M_alt    "P 1"
_space_group_IT_number       1

loop_
  _space_group_symop_operation_xyz
  'x, y, z'

loop_
  _atom_site_type_symbol
  _atom_site_label
  _atom_site_symmetry_multiplicity
  _atom_site_fract_x
  _atom_site_fract_y
  _atom_site_fract_z
  _atom_site_occupancy
  Cd  Cd1       1.0  0.15791  0.25016  0.74998  1.0000
  Cd  Cd2       1.0  0.84212  0.74982  0.25003  1.0000
  H   H1        1.0  0.61740  0.30230  0.61815  1.0000
  H   H2        1.0  0.53794  0.19754  0.88177  1.0000
  H   H3        1.0  0.38261  0.69769  0.38186  1.0000
  H   H4        1.0  0.46206  0.80246  0.11822  1.0000
  H   H5        1.0  0.68587  0.55274  0.45794  1.0000
  H   H6        1.0  0.69657  0.94719  0.04206  1.0000
  H   H7        1.0  0.31414  0.44726  0.54206  1.0000
  H   H8        1.0  0.30341  0.05281  0.95794  1.0000
  H   H9        1.0  0.54223  0.56146  0.57812  1.0000
  H   H10       1.0  0.68169  0.93839  0.92190  1.0000
  H   H11       1.0  0.45777  0.43854  0.42188  1.0000
  H   H12       1.0  0.31830  0.06161  0.07810  1.0000
  H   H13       1.0  0.60867  0.14430  0.54978  1.0000
  H   H14       1.0  0.30240  0.35533  0.95047  1.0000
  H   H15       1.0  0.39133  0.85570  0.45023  1.0000
  H   H16       1.0  0.69758  0.64467  0.04953  1.0000
  H   H17       1.0  0.74293  0.99100  0.41926  1.0000
  H   H18       1.0  0.15311  0.50843  0.08112  1.0000
  H   H19       1.0  0.25706  0.00900  0.58074  1.0000
  H   H20       1.0  0.84688  0.49157  0.91888  1.0000
  H   H21       1.0  0.02781  0.03100  0.28499  1.0000
  H   H22       1.0  0.34439  0.46862  0.21512  1.0000
  H   H23       1.0  0.97219  0.96900  0.71501  1.0000
  H   H24       1.0  0.65561  0.53138  0.78488  1.0000
  H   H25       1.0  0.16552  0.22582  0.28397  1.0000
  H   H26       1.0  0.67636  0.27415  0.21575  1.0000
  H   H27       1.0  0.83448  0.77418  0.71603  1.0000
  H   H28       1.0  0.32364  0.72584  0.78425  1.0000
  H   H29       1.0  0.01188  0.37435  0.41374  1.0000
  H   H30       1.0  0.80068  0.12584  0.08589  1.0000
  H   H31       1.0  0.98812  0.62565  0.58626  1.0000
  H   H32       1.0  0.19931  0.87415  0.91411  1.0000
  C   C1        1.0  0.87824  0.35544  0.61364  1.0000
  C   C2        1.0  0.84739  0.14440  0.88628  1.0000
  C   C3        1.0  0.12176  0.64456  0.38636  1.0000
  C   C4        1.0  0.15261  0.85560  0.11372  1.0000
  C   C5        1.0  0.71631  0.35440  0.56054  1.0000
  C   C6        1.0  0.63140  0.14547  0.93937  1.0000
  C   C7        1.0  0.28369  0.64560  0.43947  1.0000
  C   C8        1.0  0.36860  0.85453  0.06063  1.0000
  C   C9        1.0  0.59024  0.50136  0.51802  1.0000
  C   C10       1.0  0.60965  0.99857  0.98197  1.0000
  C   C11       1.0  0.40976  0.49864  0.48199  1.0000
  C   C12       1.0  0.39033  0.00143  0.01803  1.0000
  C   C13       1.0  0.72835  0.15877  0.48748  1.0000
  C   C14       1.0  0.37464  0.34098  0.01262  1.0000
  C   C15       1.0  0.27165  0.84124  0.51252  1.0000
  C   C16       1.0  0.62535  0.65902  0.98738  1.0000
  C   C17       1.0  0.80566  0.07446  0.41624  1.0000
  C   C18       1.0  0.29653  0.42520  0.08393  1.0000
  C   C19       1.0  0.19434  0.92555  0.58376  1.0000
  C   C20       1.0  0.70347  0.57480  0.91607  1.0000
  C   C21       1.0  0.96545  0.09657  0.34164  1.0000
  C   C22       1.0  0.40419  0.40316  0.15840  1.0000
  C   C23       1.0  0.03455  0.90343  0.65836  1.0000
  C   C24       1.0  0.59581  0.59683  0.84160  1.0000
  C   C25       1.0  0.04152  0.20463  0.34064  1.0000
  C   C26       1.0  0.58755  0.29532  0.15919  1.0000
  C   C27       1.0  0.95848  0.79536  0.65936  1.0000
  C   C28       1.0  0.41245  0.70468  0.84081  1.0000
  C   C29       1.0  0.95913  0.28737  0.41278  1.0000
  C   C30       1.0  0.65985  0.21272  0.08697  1.0000
  C   C31       1.0  0.04087  0.71263  0.58723  1.0000
  C   C32       1.0  0.34015  0.78728  0.91303  1.0000
  Br  Br1       1.0  0.49511  0.04388  0.73184  1.0000
  Br  Br2       1.0  0.27083  0.45626  0.76829  1.0000
  Br  Br3       1.0  0.50499  0.95615  0.26816  1.0000
  Br  Br4       1.0  0.72912  0.54376  0.23171  1.0000
  N   N1        1.0  0.80590  0.26265  0.48496  1.0000
  N   N2        1.0  0.55374  0.23728  0.01494  1.0000
  N   N3        1.0  0.19410  0.73736  0.51504  1.0000
  N   N4        1.0  0.44625  0.76273  0.98506  1.0000
  O   O1        1.0  0.02117  0.23894  0.62629  1.0000
  O   O2        1.0  0.88632  0.26093  0.87353  1.0000
  O   O3        1.0  0.97883  0.76107  0.37372  1.0000
  O   O4        1.0  0.11368  0.73907  0.12647  1.0000
  O   O5        1.0  0.85292  0.46435  0.64564  1.0000
  O   O6        1.0  0.96297  0.03545  0.85438  1.0000
  O   O7        1.0  0.14709  0.53566  0.35436  1.0000
  O   O8        1.0  0.03704  0.96454  0.14562  1.0000
