data_image0
_chemical_formula_structural       U2H12Pb2C28N4O20
_chemical_formula_sum              "U2 H12 Pb2 C28 N4 O20"
_cell_length_a       8.83226
_cell_length_b       10.7006
_cell_length_c       10.6994
_cell_angle_alpha    97.9858
_cell_angle_beta     107.49
_cell_angle_gamma    107.487

_space_group_name_H-M_alt    "P 1"
_space_group_IT_number       1

loop_
  _space_group_symop_operation_xyz
  'x, y, z'

loop_
  _atom_site_type_symbol
  _atom_site_label
  _atom_site_symmetry_multiplicity
  _atom_site_fract_x
  _atom_site_fract_y
  _atom_site_fract_z
  _atom_site_occupancy
  U   U1        1.0  0.99992  0.49997  0.99995  1.0000
  U   U2        1.0  0.49997  0.00003  0.50003  1.0000
  H   H1        1.0  0.71732  0.65950  0.17810  1.0000
  H   H2        1.0  0.78264  0.82190  0.34049  1.0000
  H   H3        1.0  0.28262  0.34049  0.82189  1.0000
  H   H4        1.0  0.21738  0.17810  0.65958  1.0000
  H   H5        1.0  0.47207  0.25063  0.19916  1.0000
  H   H6        1.0  0.02795  0.80084  0.74937  1.0000
  H   H7        1.0  0.52795  0.74931  0.80078  1.0000
  H   H8        1.0  0.97211  0.19924  0.25072  1.0000
  H   H9        1.0  0.74177  0.44072  0.22477  1.0000
  H   H10       1.0  0.75828  0.77524  0.55932  1.0000
  H   H11       1.0  0.25823  0.55928  0.77520  1.0000
  H   H12       1.0  0.24178  0.22480  0.44076  1.0000
  Pb  Pb1       1.0  0.75047  0.06341  0.93683  1.0000
  Pb  Pb2       1.0  0.25027  0.93678  0.06320  1.0000
  C   C1        1.0  0.31594  0.36640  0.13696  1.0000
  C   C2        1.0  0.18407  0.86302  0.63359  1.0000
  C   C3        1.0  0.68407  0.63353  0.86297  1.0000
  C   C4        1.0  0.81598  0.13702  0.36649  1.0000
  C   C5        1.0  0.60693  0.57524  0.17227  1.0000
  C   C6        1.0  0.89307  0.82774  0.42476  1.0000
  C   C7        1.0  0.39302  0.42475  0.82770  1.0000
  C   C8        1.0  0.10697  0.17228  0.57531  1.0000
  C   C9        1.0  0.47097  0.34773  0.18102  1.0000
  C   C10       1.0  0.02907  0.81897  0.65228  1.0000
  C   C11       1.0  0.52903  0.65222  0.81891  1.0000
  C   C12       1.0  0.97099  0.18109  0.34780  1.0000
  C   C13       1.0  0.61900  0.45330  0.19674  1.0000
  C   C14       1.0  0.88101  0.80326  0.54670  1.0000
  C   C15       1.0  0.38099  0.54669  0.80321  1.0000
  C   C16       1.0  0.11904  0.19678  0.45337  1.0000
  C   C17       1.0  0.14980  0.25693  0.10881  1.0000
  C   C18       1.0  0.35022  0.89112  0.74306  1.0000
  C   C19       1.0  0.85022  0.74300  0.89109  1.0000
  C   C20       1.0  0.64983  0.10885  0.25698  1.0000
  C   C21       1.0  0.44737  0.58758  0.13563  1.0000
  C   C22       1.0  0.05261  0.86441  0.41240  1.0000
  C   C23       1.0  0.55256  0.41237  0.86432  1.0000
  C   C24       1.0  0.94745  0.13566  0.58767  1.0000
  C   C25       1.0  0.42166  0.71646  0.11633  1.0000
  C   C26       1.0  0.07824  0.88372  0.28348  1.0000
  C   C27       1.0  0.57811  0.28346  0.88363  1.0000
  C   C28       1.0  0.92181  0.11639  0.71657  1.0000
  N   N1        1.0  0.30377  0.48417  0.11515  1.0000
  N   N2        1.0  0.19623  0.88488  0.51583  1.0000
  N   N3        1.0  0.69619  0.51575  0.88479  1.0000
  N   N4        1.0  0.80381  0.11519  0.48425  1.0000
  O   O1        1.0  0.01868  0.29215  0.06806  1.0000
  O   O2        1.0  0.48136  0.93199  0.70790  1.0000
  O   O3        1.0  0.98137  0.70784  0.93190  1.0000
  O   O4        1.0  0.51868  0.06809  0.29214  1.0000
  O   O5        1.0  0.26152  0.70421  0.07507  1.0000
  O   O6        1.0  0.23838  0.92495  0.29569  1.0000
  O   O7        1.0  0.73826  0.29566  0.92494  1.0000
  O   O8        1.0  0.76167  0.07514  0.70432  1.0000
  O   O9        1.0  0.97734  0.55361  0.15889  1.0000
  O   O10       1.0  0.52250  0.84109  0.44636  1.0000
  O   O11       1.0  0.02241  0.44626  0.84097  1.0000
  O   O12       1.0  0.47748  0.15899  0.55373  1.0000
  O   O13       1.0  0.14006  0.14208  0.12602  1.0000
  O   O14       1.0  0.35985  0.87370  0.85783  1.0000
  O   O15       1.0  0.85988  0.85780  0.87379  1.0000
  O   O16       1.0  0.64017  0.12606  0.14214  1.0000
  O   O17       1.0  0.54199  0.82342  0.13954  1.0000
  O   O18       1.0  0.95782  0.86051  0.17657  1.0000
  O   O19       1.0  0.45766  0.17657  0.86039  1.0000
  O   O20       1.0  0.04218  0.13965  0.82355  1.0000
