data_image0
_chemical_formula_structural       Cd4H24C24I4N4O16
_chemical_formula_sum              "Cd4 H24 C24 I4 N4 O16"
_cell_length_a       8.44606
_cell_length_b       10.6358
_cell_length_c       10.8177
_cell_angle_alpha    90.8601
_cell_angle_beta     90
_cell_angle_gamma    89.9999

_space_group_name_H-M_alt    "P 1"
_space_group_IT_number       1

loop_
  _space_group_symop_operation_xyz
  'x, y, z'

loop_
  _atom_site_type_symbol
  _atom_site_label
  _atom_site_symmetry_multiplicity
  _atom_site_fract_x
  _atom_site_fract_y
  _atom_site_fract_z
  _atom_site_occupancy
  Cd  Cd1       1.0  0.09354  0.33421  0.45206  1.0000
  Cd  Cd2       1.0  0.59353  0.16579  0.54794  1.0000
  Cd  Cd3       1.0  0.90646  0.66579  0.54794  1.0000
  Cd  Cd4       1.0  0.40647  0.83421  0.45206  1.0000
  H   H1        1.0  0.43732  0.63368  0.84147  1.0000
  H   H2        1.0  0.93732  0.86632  0.15853  1.0000
  H   H3        1.0  0.56268  0.36632  0.15853  1.0000
  H   H4        1.0  0.06268  0.13368  0.84147  1.0000
  H   H5        1.0  0.35834  0.50435  0.02487  1.0000
  H   H6        1.0  0.85834  0.99565  0.97513  1.0000
  H   H7        1.0  0.64166  0.49565  0.97513  1.0000
  H   H8        1.0  0.14166  0.00435  0.02487  1.0000
  H   H9        1.0  0.12076  0.36333  0.00458  1.0000
  H   H10       1.0  0.62076  0.13667  0.99542  1.0000
  H   H11       1.0  0.87924  0.63667  0.99542  1.0000
  H   H12       1.0  0.37924  0.86333  0.00458  1.0000
  H   H13       1.0  0.97014  0.36099  0.80042  1.0000
  H   H14       1.0  0.47014  0.13901  0.19958  1.0000
  H   H15       1.0  0.02986  0.63901  0.19958  1.0000
  H   H16       1.0  0.52986  0.86099  0.80042  1.0000
  H   H17       1.0  0.08994  0.91103  0.41221  1.0000
  H   H18       1.0  0.58994  0.58897  0.58779  1.0000
  H   H19       1.0  0.91006  0.08897  0.58779  1.0000
  H   H20       1.0  0.41006  0.41103  0.41221  1.0000
  H   H21       1.0  0.19412  0.02880  0.37756  1.0000
  H   H22       1.0  0.69412  0.47120  0.62244  1.0000
  H   H23       1.0  0.80588  0.97120  0.62244  1.0000
  H   H24       1.0  0.30588  0.52880  0.37756  1.0000
  C   C1        1.0  0.28818  0.65696  0.62651  1.0000
  C   C2        1.0  0.78818  0.84304  0.37349  1.0000
  C   C3        1.0  0.71182  0.34304  0.37349  1.0000
  C   C4        1.0  0.21182  0.15696  0.62651  1.0000
  C   C5        1.0  0.24671  0.56930  0.72936  1.0000
  C   C6        1.0  0.74671  0.93070  0.27064  1.0000
  C   C7        1.0  0.75329  0.43070  0.27064  1.0000
  C   C8        1.0  0.25329  0.06930  0.72936  1.0000
  C   C9        1.0  0.33463  0.57189  0.83843  1.0000
  C   C10       1.0  0.83463  0.92811  0.16157  1.0000
  C   C11       1.0  0.66537  0.42811  0.16157  1.0000
  C   C12       1.0  0.16537  0.07189  0.83843  1.0000
  C   C13       1.0  0.29169  0.49915  0.93878  1.0000
  C   C14       1.0  0.79169  0.00085  0.06122  1.0000
  C   C15       1.0  0.70831  0.50085  0.06122  1.0000
  C   C16       1.0  0.20831  0.99915  0.93878  1.0000
  C   C17       1.0  0.15914  0.42161  0.92797  1.0000
  C   C18       1.0  0.65914  0.07839  0.07203  1.0000
  C   C19       1.0  0.84086  0.57839  0.07203  1.0000
  C   C20       1.0  0.34086  0.92161  0.92797  1.0000
  C   C21       1.0  0.07520  0.41792  0.81842  1.0000
  C   C22       1.0  0.57520  0.08208  0.18158  1.0000
  C   C23       1.0  0.92480  0.58208  0.18158  1.0000
  C   C24       1.0  0.42480  0.91792  0.81842  1.0000
  I   I1        1.0  0.36424  0.70865  0.22102  1.0000
  I   I2        1.0  0.86424  0.79135  0.77898  1.0000
  I   I3        1.0  0.63576  0.29135  0.77898  1.0000
  I   I4        1.0  0.13576  0.20865  0.22102  1.0000
  N   N1        1.0  0.11873  0.49003  0.72130  1.0000
  N   N2        1.0  0.61873  0.00996  0.27870  1.0000
  N   N3        1.0  0.88127  0.50997  0.27870  1.0000
  N   N4        1.0  0.38127  0.99004  0.72130  1.0000
  O   O1        1.0  0.18337  0.96157  0.43863  1.0000
  O   O2        1.0  0.68337  0.53843  0.56137  1.0000
  O   O3        1.0  0.81663  0.03844  0.56137  1.0000
  O   O4        1.0  0.31663  0.46157  0.43863  1.0000
  O   O5        1.0  0.43372  0.68807  0.61855  1.0000
  O   O6        1.0  0.93373  0.81193  0.38145  1.0000
  O   O7        1.0  0.56628  0.31193  0.38145  1.0000
  O   O8        1.0  0.06628  0.18807  0.61855  1.0000
  O   O9        1.0  0.18346  0.70468  0.55801  1.0000
  O   O10       1.0  0.68347  0.79532  0.44200  1.0000
  O   O11       1.0  0.81654  0.29532  0.44199  1.0000
  O   O12       1.0  0.31654  0.20468  0.55801  1.0000
  O   O13       1.0  0.03229  0.48017  0.61961  1.0000
  O   O14       1.0  0.53229  0.01983  0.38039  1.0000
  O   O15       1.0  0.96771  0.51983  0.38039  1.0000
  O   O16       1.0  0.46771  0.98017  0.61961  1.0000
