data_image0
_chemical_formula_structural       Co2H14C16S4N6O4
_chemical_formula_sum              "Co2 H14 C16 S4 N6 O4"
_cell_length_a       7.68727
_cell_length_b       8.1586
_cell_length_c       9.74533
_cell_angle_alpha    75.1401
_cell_angle_beta     73.1586
_cell_angle_gamma    74.4094

_space_group_name_H-M_alt    "P 1"
_space_group_IT_number       1

loop_
  _space_group_symop_operation_xyz
  'x, y, z'

loop_
  _atom_site_type_symbol
  _atom_site_label
  _atom_site_symmetry_multiplicity
  _atom_site_fract_x
  _atom_site_fract_y
  _atom_site_fract_z
  _atom_site_occupancy
  Co  Co1       1.0  0.36724  0.35739  0.49650  1.0000
  Co  Co2       1.0  0.63276  0.64261  0.50350  1.0000
  H   H1        1.0  0.20151  0.82874  0.43996  1.0000
  H   H2        1.0  0.79848  0.17125  0.56004  1.0000
  H   H3        1.0  0.05907  0.06570  0.25628  1.0000
  H   H4        1.0  0.94092  0.93430  0.74372  1.0000
  H   H5        1.0  0.45907  0.81404  0.91644  1.0000
  H   H6        1.0  0.54095  0.18597  0.08356  1.0000
  H   H7        1.0  0.58234  0.58762  0.11769  1.0000
  H   H8        1.0  0.41767  0.41239  0.88231  1.0000
  H   H9        1.0  0.92644  0.19846  0.05896  1.0000
  H   H10       1.0  0.07356  0.80153  0.94105  1.0000
  H   H11       1.0  0.04215  0.31213  0.88659  1.0000
  H   H12       1.0  0.95784  0.68787  0.11341  1.0000
  H   H13       1.0  0.10765  0.30190  0.05255  1.0000
  H   H14       1.0  0.89235  0.69810  0.94746  1.0000
  C   C1        1.0  0.34283  0.97885  0.64059  1.0000
  C   C2        1.0  0.65717  0.02115  0.35940  1.0000
  C   C3        1.0  0.25223  0.96047  0.07025  1.0000
  C   C4        1.0  0.74778  0.03953  0.92975  1.0000
  C   C5        1.0  0.97954  0.55422  0.64783  1.0000
  C   C6        1.0  0.02045  0.44579  0.35217  1.0000
  C   C7        1.0  0.24962  0.83536  0.32253  1.0000
  C   C8        1.0  0.75037  0.16463  0.67747  1.0000
  C   C9        1.0  0.17536  0.96412  0.21924  1.0000
  C   C10       1.0  0.82464  0.03587  0.78076  1.0000
  C   C11       1.0  0.39950  0.82209  0.03101  1.0000
  C   C12       1.0  0.60051  0.17792  0.96899  1.0000
  C   C13       1.0  0.46829  0.69761  0.13812  1.0000
  C   C14       1.0  0.53172  0.30240  0.86188  1.0000
  C   C15       1.0  0.05860  0.23254  0.99282  1.0000
  C   C16       1.0  0.94140  0.76746  0.00718  1.0000
  S   S1        1.0  0.33045  0.77528  0.67771  1.0000
  S   S2        1.0  0.66956  0.22472  0.32229  1.0000
  S   S3        1.0  0.76094  0.64696  0.70067  1.0000
  S   S4        1.0  0.23905  0.35304  0.29933  1.0000
  N   N1        1.0  0.35376  0.12632  0.61023  1.0000
  N   N2        1.0  0.64623  0.87368  0.38976  1.0000
  N   N3        1.0  0.13762  0.48843  0.60744  1.0000
  N   N4        1.0  0.86238  0.51157  0.39256  1.0000
  N   N5        1.0  0.39519  0.70714  0.28133  1.0000
  N   N6        1.0  0.60481  0.29285  0.71867  1.0000
  O   O1        1.0  0.47134  0.58637  0.38241  1.0000
  O   O2        1.0  0.52866  0.41362  0.61759  1.0000
  O   O3        1.0  0.19630  0.07986  0.95943  1.0000
  O   O4        1.0  0.80371  0.92014  0.04057  1.0000
