data_image0
_chemical_formula_structural       Cd2H42C36N4O8
_chemical_formula_sum              "Cd2 H42 C36 N4 O8"
_cell_length_a       9.13277
_cell_length_b       10.1984
_cell_length_c       10.8179
_cell_angle_alpha    64.4314
_cell_angle_beta     74.248
_cell_angle_gamma    88.5458

_space_group_name_H-M_alt    "P 1"
_space_group_IT_number       1

loop_
  _space_group_symop_operation_xyz
  'x, y, z'

loop_
  _atom_site_type_symbol
  _atom_site_label
  _atom_site_symmetry_multiplicity
  _atom_site_fract_x
  _atom_site_fract_y
  _atom_site_fract_z
  _atom_site_occupancy
  Cd  Cd1       1.0  0.57017  0.41665  0.36242  1.0000
  Cd  Cd2       1.0  0.42983  0.58335  0.63758  1.0000
  H   H1        1.0  0.56824  0.92822  0.36708  1.0000
  H   H2        1.0  0.43176  0.07178  0.63292  1.0000
  H   H3        1.0  0.98744  0.75351  0.24799  1.0000
  H   H4        1.0  0.01256  0.24649  0.75201  1.0000
  H   H5        1.0  0.99606  0.15568  0.28826  1.0000
  H   H6        1.0  0.00394  0.84433  0.71174  1.0000
  H   H7        1.0  0.23724  0.18893  0.19402  1.0000
  H   H8        1.0  0.76276  0.81107  0.80598  1.0000
  H   H9        1.0  0.38554  0.07579  0.22898  1.0000
  H   H10       1.0  0.61446  0.92421  0.77102  1.0000
  H   H11       1.0  0.21725  0.04769  0.36881  1.0000
  H   H12       1.0  0.78275  0.95231  0.63119  1.0000
  H   H13       1.0  0.20130  0.93931  0.02526  1.0000
  H   H14       1.0  0.79870  0.06069  0.97474  1.0000
  H   H15       1.0  0.37231  0.02731  0.01620  1.0000
  H   H16       1.0  0.62770  0.97268  0.98380  1.0000
  H   H17       1.0  0.20840  0.12408  0.99627  1.0000
  H   H18       1.0  0.79160  0.87592  0.00373  1.0000
  H   H19       1.0  0.20688  0.77813  0.41130  1.0000
  H   H20       1.0  0.79312  0.22187  0.58870  1.0000
  H   H21       1.0  0.37240  0.82612  0.26300  1.0000
  H   H22       1.0  0.62760  0.17388  0.73701  1.0000
  H   H23       1.0  0.20786  0.73484  0.26801  1.0000
  H   H24       1.0  0.79214  0.26515  0.73200  1.0000
  H   H25       1.0  0.61922  0.67083  0.03675  1.0000
  H   H26       1.0  0.38079  0.32917  0.96325  1.0000
  H   H27       1.0  0.39554  0.75526  0.89491  1.0000
  H   H28       1.0  0.60446  0.24474  0.10509  1.0000
  H   H29       1.0  0.21808  0.29307  0.40478  1.0000
  H   H30       1.0  0.78192  0.70693  0.59522  1.0000
  H   H31       1.0  0.06577  0.36787  0.33173  1.0000
  H   H32       1.0  0.93423  0.63213  0.66827  1.0000
  H   H33       1.0  0.13145  0.43960  0.43237  1.0000
  H   H34       1.0  0.86855  0.56040  0.56763  1.0000
  H   H35       1.0  0.10601  0.71536  0.98979  1.0000
  H   H36       1.0  0.89399  0.28464  0.01021  1.0000
  H   H37       1.0  0.01516  0.58454  0.16663  1.0000
  H   H38       1.0  0.98484  0.41546  0.83337  1.0000
  H   H39       1.0  0.08420  0.38287  0.09216  1.0000
  H   H40       1.0  0.91580  0.61713  0.90784  1.0000
  H   H41       1.0  0.16786  0.51633  0.91364  1.0000
  H   H42       1.0  0.83214  0.48367  0.08636  1.0000
  C   C1        1.0  0.69694  0.17829  0.34428  1.0000
  C   C2        1.0  0.30305  0.82171  0.65572  1.0000
  C   C3        1.0  0.77639  0.05562  0.32454  1.0000
  C   C4        1.0  0.22361  0.94438  0.67546  1.0000
  C   C5        1.0  0.69254  0.93583  0.33647  1.0000
  C   C6        1.0  0.30746  0.06417  0.66353  1.0000
  C   C7        1.0  0.77093  0.82656  0.31018  1.0000
  C   C8        1.0  0.22907  0.17344  0.68982  1.0000
  C   C9        1.0  0.93105  0.83955  0.27007  1.0000
  C   C10       1.0  0.06896  0.16045  0.72993  1.0000
  C   C11       1.0  0.01703  0.95617  0.26198  1.0000
  C   C12       1.0  0.98297  0.04383  0.73802  1.0000
  C   C13       1.0  0.93642  0.06301  0.29103  1.0000
  C   C14       1.0  0.06358  0.93699  0.70897  1.0000
  C   C15       1.0  0.68647  0.69290  0.32862  1.0000
  C   C16       1.0  0.31353  0.30710  0.67138  1.0000
  C   C17       1.0  0.19183  0.96708  0.21736  1.0000
  C   C18       1.0  0.80817  0.03292  0.78264  1.0000
  C   C19       1.0  0.26093  0.07635  0.25417  1.0000
  C   C20       1.0  0.73907  0.92365  0.74583  1.0000
  C   C21       1.0  0.24671  0.01748  0.05420  1.0000
  C   C22       1.0  0.75329  0.98252  0.94580  1.0000
  C   C23       1.0  0.24692  0.81758  0.29464  1.0000
  C   C24       1.0  0.75308  0.18242  0.70536  1.0000
  C   C25       1.0  0.49892  0.63179  0.07328  1.0000
  C   C26       1.0  0.50107  0.36821  0.92673  1.0000
  C   C27       1.0  0.38926  0.67656  0.00324  1.0000
  C   C28       1.0  0.61074  0.32344  0.99676  1.0000
  C   C29       1.0  0.28409  0.49951  0.22293  1.0000
  C   C30       1.0  0.71591  0.50049  0.77707  1.0000
  C   C31       1.0  0.16837  0.39477  0.35400  1.0000
  C   C32       1.0  0.83163  0.60524  0.64601  1.0000
  C   C33       1.0  0.10674  0.60272  0.06915  1.0000
  C   C34       1.0  0.89326  0.39728  0.93085  1.0000
  C   C35       1.0  0.07811  0.49458  0.01341  1.0000
  C   C36       1.0  0.92189  0.50542  0.98658  1.0000
  N   N1        1.0  0.43275  0.52204  0.20887  1.0000
  N   N2        1.0  0.56725  0.47796  0.79113  1.0000
  N   N3        1.0  0.25438  0.59314  0.09898  1.0000
  N   N4        1.0  0.74562  0.40686  0.90102  1.0000
  O   O1        1.0  0.55569  0.18311  0.35108  1.0000
  O   O2        1.0  0.44431  0.81688  0.64892  1.0000
  O   O3        1.0  0.77544  0.27831  0.34863  1.0000
  O   O4        1.0  0.22455  0.72169  0.65137  1.0000
  O   O5        1.0  0.75665  0.61446  0.27125  1.0000
  O   O6        1.0  0.24335  0.38554  0.72874  1.0000
  O   O7        1.0  0.54500  0.65898  0.40236  1.0000
  O   O8        1.0  0.45500  0.34102  0.59764  1.0000
