data_image0
_chemical_formula_structural       Ag4B4H28C24N36
_chemical_formula_sum              "Ag4 B4 H28 C24 N36"
_cell_length_a       6.57139
_cell_length_b       12.7199
_cell_length_c       12.9686
_cell_angle_alpha    90
_cell_angle_beta     89.9999
_cell_angle_gamma    89.9997

_space_group_name_H-M_alt    "P 1"
_space_group_IT_number       1

loop_
  _space_group_symop_operation_xyz
  'x, y, z'

loop_
  _atom_site_type_symbol
  _atom_site_label
  _atom_site_symmetry_multiplicity
  _atom_site_fract_x
  _atom_site_fract_y
  _atom_site_fract_z
  _atom_site_occupancy
  Ag  Ag1       1.0  0.96606  0.21593  0.10834  1.0000
  Ag  Ag2       1.0  0.46606  0.78407  0.89166  1.0000
  Ag  Ag3       1.0  0.46605  0.71593  0.39166  1.0000
  Ag  Ag4       1.0  0.96606  0.28407  0.60834  1.0000
  B   B1        1.0  0.69146  0.02719  0.26235  1.0000
  B   B2        1.0  0.19146  0.97281  0.73765  1.0000
  B   B3        1.0  0.19146  0.52719  0.23765  1.0000
  B   B4        1.0  0.69146  0.47281  0.76235  1.0000
  H   H1        1.0  0.57887  0.53860  0.79858  1.0000
  H   H2        1.0  0.07887  0.46140  0.20142  1.0000
  H   H3        1.0  0.07887  0.03860  0.70142  1.0000
  H   H4        1.0  0.57887  0.96140  0.29858  1.0000
  H   H5        1.0  0.20539  0.43327  0.00143  1.0000
  H   H6        1.0  0.70538  0.56672  0.99857  1.0000
  H   H7        1.0  0.70538  0.93327  0.49857  1.0000
  H   H8        1.0  0.20538  0.06672  0.50143  1.0000
  H   H9        1.0  0.67643  0.28296  0.89509  1.0000
  H   H10       1.0  0.17643  0.71704  0.10491  1.0000
  H   H11       1.0  0.17642  0.78296  0.60491  1.0000
  H   H12       1.0  0.67642  0.21704  0.39510  1.0000
  H   H13       1.0  0.15892  0.96255  0.00440  1.0000
  H   H14       1.0  0.65892  0.03746  0.99559  1.0000
  H   H15       1.0  0.65892  0.46255  0.49560  1.0000
  H   H16       1.0  0.15892  0.53745  0.50440  1.0000
  H   H17       1.0  0.70949  0.81543  0.18255  1.0000
  H   H18       1.0  0.20948  0.18457  0.81745  1.0000
  H   H19       1.0  0.20949  0.31543  0.31745  1.0000
  H   H20       1.0  0.70948  0.68457  0.68255  1.0000
  H   H21       1.0  0.48042  0.33628  0.10903  1.0000
  H   H22       1.0  0.98042  0.66372  0.89097  1.0000
  H   H23       1.0  0.98041  0.83628  0.39097  1.0000
  H   H24       1.0  0.48042  0.16372  0.60903  1.0000
  H   H25       1.0  0.25837  0.05894  0.24539  1.0000
  H   H26       1.0  0.75837  0.94106  0.75461  1.0000
  H   H27       1.0  0.75837  0.55894  0.25461  1.0000
  H   H28       1.0  0.25837  0.44106  0.74539  1.0000
  C   C1        1.0  0.06930  0.41523  0.95737  1.0000
  C   C2        1.0  0.56930  0.58477  0.04263  1.0000
  C   C3        1.0  0.56930  0.91523  0.54263  1.0000
  C   C4        1.0  0.06930  0.08477  0.45737  1.0000
  C   C5        1.0  0.80282  0.33770  0.90364  1.0000
  C   C6        1.0  0.30282  0.66230  0.09636  1.0000
  C   C7        1.0  0.30282  0.83770  0.59636  1.0000
  C   C8        1.0  0.80281  0.16230  0.40365  1.0000
  C   C9        1.0  0.03738  0.94811  0.05938  1.0000
  C   C10       1.0  0.53738  0.05190  0.94061  1.0000
  C   C11       1.0  0.53737  0.44811  0.44062  1.0000
  C   C12       1.0  0.03738  0.55190  0.55938  1.0000
  C   C13       1.0  0.81251  0.87194  0.14808  1.0000
  C   C14       1.0  0.31250  0.12806  0.85192  1.0000
  C   C15       1.0  0.31251  0.37194  0.35192  1.0000
  C   C16       1.0  0.81250  0.62806  0.64808  1.0000
  C   C17       1.0  0.47090  0.25929  0.14487  1.0000
  C   C18       1.0  0.97091  0.74071  0.85513  1.0000
  C   C19       1.0  0.97089  0.75929  0.35513  1.0000
  C   C20       1.0  0.47090  0.24071  0.64487  1.0000
  C   C21       1.0  0.35620  0.12007  0.21458  1.0000
  C   C22       1.0  0.85620  0.87992  0.78542  1.0000
  C   C23       1.0  0.85620  0.62007  0.28542  1.0000
  C   C24       1.0  0.35620  0.37993  0.71458  1.0000
  N   N1        1.0  0.95053  0.32905  0.97456  1.0000
  N   N2        1.0  0.45053  0.67095  0.02544  1.0000
  N   N3        1.0  0.45053  0.82905  0.52544  1.0000
  N   N4        1.0  0.95053  0.17095  0.47456  1.0000
  N   N5        1.0  0.81637  0.97388  0.17680  1.0000
  N   N6        1.0  0.31636  0.02612  0.82320  1.0000
  N   N7        1.0  0.31636  0.47388  0.32320  1.0000
  N   N8        1.0  0.81637  0.52612  0.67680  1.0000
  N   N9        1.0  0.96084  0.02414  0.11876  1.0000
  N   N10       1.0  0.46084  0.97586  0.88124  1.0000
  N   N11       1.0  0.46084  0.52414  0.38124  1.0000
  N   N12       1.0  0.96084  0.47586  0.61876  1.0000
  N   N13       1.0  0.95067  0.85216  0.07502  1.0000
  N   N14       1.0  0.45066  0.14784  0.92498  1.0000
  N   N15       1.0  0.45067  0.35216  0.42499  1.0000
  N   N16       1.0  0.95066  0.64784  0.57502  1.0000
  N   N17       1.0  0.55981  0.11653  0.21878  1.0000
  N   N18       1.0  0.05981  0.88347  0.78123  1.0000
  N   N19       1.0  0.05980  0.61653  0.28122  1.0000
  N   N20       1.0  0.55981  0.38347  0.71877  1.0000
  N   N21       1.0  0.63567  0.20635  0.17412  1.0000
  N   N22       1.0  0.13567  0.79365  0.82588  1.0000
  N   N23       1.0  0.13566  0.70635  0.32588  1.0000
  N   N24       1.0  0.63567  0.29365  0.67412  1.0000
  N   N25       1.0  0.29408  0.20869  0.16868  1.0000
  N   N26       1.0  0.79408  0.79131  0.83132  1.0000
  N   N27       1.0  0.79407  0.70869  0.33132  1.0000
  N   N28       1.0  0.29408  0.29131  0.66868  1.0000
  N   N29       1.0  0.83225  0.07530  0.34629  1.0000
  N   N30       1.0  0.33225  0.92470  0.65372  1.0000
  N   N31       1.0  0.33225  0.57530  0.15372  1.0000
  N   N32       1.0  0.83226  0.42470  0.84628  1.0000
  N   N33       1.0  0.00292  0.47575  0.88073  1.0000
  N   N34       1.0  0.50292  0.52424  0.11927  1.0000
  N   N35       1.0  0.50292  0.97575  0.61927  1.0000
  N   N36       1.0  0.00292  0.02424  0.38073  1.0000
