data_image0
_chemical_formula_structural       Cu4H28C28N4O24
_chemical_formula_sum              "Cu4 H28 C28 N4 O24"
_cell_length_a       7.06903
_cell_length_b       9.06675
_cell_length_c       13.6248
_cell_angle_alpha    90
_cell_angle_beta     89.9997
_cell_angle_gamma    106.92

_space_group_name_H-M_alt    "P 1"
_space_group_IT_number       1

loop_
  _space_group_symop_operation_xyz
  'x, y, z'

loop_
  _atom_site_type_symbol
  _atom_site_label
  _atom_site_symmetry_multiplicity
  _atom_site_fract_x
  _atom_site_fract_y
  _atom_site_fract_z
  _atom_site_occupancy
  Cu  Cu1       1.0  0.85000  0.15690  0.93586  1.0000
  Cu  Cu2       1.0  0.65000  0.34310  0.43586  1.0000
  Cu  Cu3       1.0  0.15000  0.84310  0.06414  1.0000
  Cu  Cu4       1.0  0.35000  0.65690  0.56415  1.0000
  H   H1        1.0  0.58865  0.36783  0.02191  1.0000
  H   H2        1.0  0.91135  0.13216  0.52191  1.0000
  H   H3        1.0  0.41136  0.63216  0.97809  1.0000
  H   H4        1.0  0.08865  0.86784  0.47809  1.0000
  H   H5        1.0  0.16559  0.24702  0.25931  1.0000
  H   H6        1.0  0.33441  0.25299  0.75931  1.0000
  H   H7        1.0  0.83441  0.75298  0.74069  1.0000
  H   H8        1.0  0.66559  0.74701  0.24069  1.0000
  H   H9        1.0  0.30192  0.27528  0.90545  1.0000
  H   H10       1.0  0.19808  0.22471  0.40544  1.0000
  H   H11       1.0  0.69808  0.72471  0.09455  1.0000
  H   H12       1.0  0.80192  0.77529  0.59456  1.0000
  H   H13       1.0  0.48525  0.01238  0.89391  1.0000
  H   H14       1.0  0.01475  0.48762  0.39391  1.0000
  H   H15       1.0  0.51475  0.98762  0.10609  1.0000
  H   H16       1.0  0.98525  0.51238  0.60609  1.0000
  H   H17       1.0  0.63091  0.06698  0.79815  1.0000
  H   H18       1.0  0.86909  0.43303  0.29815  1.0000
  H   H19       1.0  0.36909  0.93303  0.20185  1.0000
  H   H20       1.0  0.13091  0.56697  0.70185  1.0000
  H   H21       1.0  0.81829  0.41429  0.84507  1.0000
  H   H22       1.0  0.68171  0.08572  0.34507  1.0000
  H   H23       1.0  0.18171  0.58571  0.15492  1.0000
  H   H24       1.0  0.31829  0.91429  0.65492  1.0000
  H   H25       1.0  0.01949  0.47314  0.89886  1.0000
  H   H26       1.0  0.48051  0.02686  0.39886  1.0000
  H   H27       1.0  0.98051  0.52686  0.10114  1.0000
  H   H28       1.0  0.51949  0.97315  0.60114  1.0000
  C   C1        1.0  0.05599  0.20373  0.11314  1.0000
  C   C2        1.0  0.44401  0.29628  0.61314  1.0000
  C   C3        1.0  0.94401  0.79627  0.88685  1.0000
  C   C4        1.0  0.55599  0.70372  0.38686  1.0000
  C   C5        1.0  0.43823  0.32370  0.04971  1.0000
  C   C6        1.0  0.06177  0.17630  0.54971  1.0000
  C   C7        1.0  0.56177  0.67630  0.95028  1.0000
  C   C8        1.0  0.93823  0.82370  0.45029  1.0000
  C   C9        1.0  0.84381  0.13414  0.14097  1.0000
  C   C10       1.0  0.65618  0.36587  0.64097  1.0000
  C   C11       1.0  0.15619  0.86586  0.85903  1.0000
  C   C12       1.0  0.34382  0.63413  0.35904  1.0000
  C   C13       1.0  0.39942  0.31686  0.15039  1.0000
  C   C14       1.0  0.10058  0.18314  0.65038  1.0000
  C   C15       1.0  0.60058  0.68314  0.84961  1.0000
  C   C16       1.0  0.89942  0.81686  0.34962  1.0000
  C   C17       1.0  0.56160  0.37072  0.22532  1.0000
  C   C18       1.0  0.93839  0.12928  0.72532  1.0000
  C   C19       1.0  0.43840  0.62928  0.77468  1.0000
  C   C20       1.0  0.06160  0.87072  0.27468  1.0000
  C   C21       1.0  0.20431  0.25485  0.18205  1.0000
  C   C22       1.0  0.29569  0.24516  0.68205  1.0000
  C   C23       1.0  0.79569  0.74515  0.81795  1.0000
  C   C24       1.0  0.70431  0.75484  0.31796  1.0000
  C   C25       1.0  0.28066  0.27133  0.98452  1.0000
  C   C26       1.0  0.21933  0.22867  0.48452  1.0000
  C   C27       1.0  0.71934  0.72867  0.01548  1.0000
  C   C28       1.0  0.78067  0.77133  0.51548  1.0000
  N   N1        1.0  0.09400  0.21337  0.01592  1.0000
  N   N2        1.0  0.40600  0.28663  0.51592  1.0000
  N   N3        1.0  0.90600  0.78663  0.98408  1.0000
  N   N4        1.0  0.59400  0.71336  0.48408  1.0000
  O   O1        1.0  0.72118  0.10572  0.06680  1.0000
  O   O2        1.0  0.77882  0.39429  0.56680  1.0000
  O   O3        1.0  0.27882  0.89428  0.93320  1.0000
  O   O4        1.0  0.22118  0.60571  0.43320  1.0000
  O   O5        1.0  0.79447  0.10546  0.22777  1.0000
  O   O6        1.0  0.70554  0.39456  0.72777  1.0000
  O   O7        1.0  0.20553  0.89454  0.77223  1.0000
  O   O8        1.0  0.29447  0.60545  0.27223  1.0000
  O   O9        1.0  0.50089  0.34114  0.31410  1.0000
  O   O10       1.0  0.99910  0.15886  0.81410  1.0000
  O   O11       1.0  0.49911  0.65886  0.68590  1.0000
  O   O12       1.0  0.00089  0.84114  0.18590  1.0000
  O   O13       1.0  0.73644  0.43644  0.19815  1.0000
  O   O14       1.0  0.76356  0.06356  0.69815  1.0000
  O   O15       1.0  0.26357  0.56355  0.80185  1.0000
  O   O16       1.0  0.23643  0.93645  0.30186  1.0000
  O   O17       1.0  0.59855  0.09649  0.86613  1.0000
  O   O18       1.0  0.90145  0.40351  0.36613  1.0000
  O   O19       1.0  0.40145  0.90351  0.13387  1.0000
  O   O20       1.0  0.09855  0.59649  0.63387  1.0000
  O   O21       1.0  0.87951  0.42018  0.91061  1.0000
  O   O22       1.0  0.62049  0.07982  0.41061  1.0000
  O   O23       1.0  0.12049  0.57983  0.08939  1.0000
  O   O24       1.0  0.37951  0.92018  0.58939  1.0000
