data_image0
_chemical_formula_structural       Hg4H54C30S4N2Cl4
_chemical_formula_sum              "Hg4 H54 C30 S4 N2 Cl4"
_cell_length_a       9.95613
_cell_length_b       9.95616
_cell_length_c       11.9144
_cell_angle_alpha    78.46
_cell_angle_beta     78.4598
_cell_angle_gamma    68.5124

_space_group_name_H-M_alt    "P 1"
_space_group_IT_number       1

loop_
  _space_group_symop_operation_xyz
  'x, y, z'

loop_
  _atom_site_type_symbol
  _atom_site_label
  _atom_site_symmetry_multiplicity
  _atom_site_fract_x
  _atom_site_fract_y
  _atom_site_fract_z
  _atom_site_occupancy
  Hg  Hg1       1.0  0.00262  0.99738  1.00000  1.0000
  Hg  Hg2       1.0  0.96483  0.20053  0.71919  1.0000
  Hg  Hg3       1.0  0.79947  0.03517  0.28081  1.0000
  Hg  Hg4       1.0  0.02337  0.97662  0.50000  1.0000
  H   H1        1.0  0.26641  0.81926  0.82190  1.0000
  H   H2        1.0  0.18074  0.73360  0.17810  1.0000
  H   H3        1.0  0.49571  0.59834  0.81460  1.0000
  H   H4        1.0  0.40166  0.50430  0.18540  1.0000
  H   H5        1.0  0.56225  0.43775  0.00000  1.0000
  H   H6        1.0  0.17990  0.70311  0.67457  1.0000
  H   H7        1.0  0.29688  0.82010  0.32543  1.0000
  H   H8        1.0  0.40294  0.47619  0.68218  1.0000
  H   H9        1.0  0.52381  0.59706  0.31782  1.0000
  H   H10       1.0  0.57741  0.42259  0.50000  1.0000
  H   H11       1.0  0.82376  0.36128  0.94095  1.0000
  H   H12       1.0  0.63872  0.17624  0.05905  1.0000
  H   H13       1.0  0.93480  0.33798  0.04850  1.0000
  H   H14       1.0  0.66202  0.06520  0.95150  1.0000
  H   H15       1.0  0.88231  0.29965  0.38576  1.0000
  H   H16       1.0  0.70035  0.11769  0.61424  1.0000
  H   H17       1.0  0.83315  0.39082  0.51011  1.0000
  H   H18       1.0  0.60918  0.16685  0.48989  1.0000
  H   H19       1.0  0.94289  0.65297  0.74112  1.0000
  H   H20       1.0  0.34703  0.05711  0.25888  1.0000
  H   H21       1.0  0.84051  0.53504  0.75434  1.0000
  H   H22       1.0  0.46496  0.15949  0.24567  1.0000
  H   H23       1.0  0.03456  0.46664  0.72367  1.0000
  H   H24       1.0  0.53336  0.96544  0.27633  1.0000
  H   H25       1.0  0.83730  0.73090  0.93324  1.0000
  H   H26       1.0  0.26910  0.16270  0.06676  1.0000
  H   H27       1.0  0.83074  0.60193  0.05931  1.0000
  H   H28       1.0  0.39806  0.16926  0.94069  1.0000
  H   H29       1.0  0.72067  0.62681  0.95100  1.0000
  H   H30       1.0  0.37318  0.27933  0.04900  1.0000
  H   H31       1.0  0.10880  0.61381  0.89159  1.0000
  H   H32       1.0  0.38618  0.89120  0.10841  1.0000
  H   H33       1.0  0.19024  0.42474  0.87903  1.0000
  H   H34       1.0  0.57526  0.80976  0.12097  1.0000
  H   H35       1.0  0.10980  0.48131  0.01637  1.0000
  H   H36       1.0  0.51869  0.89020  0.98363  1.0000
  H   H37       1.0  0.05204  0.35351  0.21833  1.0000
  H   H38       1.0  0.64649  0.94796  0.78167  1.0000
  H   H39       1.0  0.19036  0.32758  0.30193  1.0000
  H   H40       1.0  0.67242  0.80964  0.69806  1.0000
  H   H41       1.0  0.12354  0.49553  0.21117  1.0000
  H   H42       1.0  0.50447  0.87646  0.78883  1.0000
  H   H43       1.0  0.06779  0.62901  0.38960  1.0000
  H   H44       1.0  0.37099  0.93221  0.61040  1.0000
  H   H45       1.0  0.13035  0.45976  0.47953  1.0000
  H   H46       1.0  0.54024  0.86966  0.52047  1.0000
  H   H47       1.0  0.95147  0.58471  0.51378  1.0000
  H   H48       1.0  0.41529  0.04853  0.48622  1.0000
  H   H49       1.0  0.79358  0.53727  0.26877  1.0000
  H   H50       1.0  0.46273  0.20642  0.73124  1.0000
  H   H51       1.0  0.87255  0.67328  0.26121  1.0000
  H   H52       1.0  0.32672  0.12745  0.73879  1.0000
  H   H53       1.0  0.75709  0.63475  0.38816  1.0000
  H   H54       1.0  0.36525  0.24291  0.61185  1.0000
  C   C1        1.0  0.92983  0.36014  0.95498  1.0000
  C   C2        1.0  0.63986  0.07017  0.04502  1.0000
  C   C3        1.0  0.92210  0.34838  0.44140  1.0000
  C   C4        1.0  0.65162  0.07790  0.55860  1.0000
  C   C5        1.0  0.30254  0.74734  0.90025  1.0000
  C   C6        1.0  0.25266  0.69746  0.09975  1.0000
  C   C7        1.0  0.42796  0.62441  0.89668  1.0000
  C   C8        1.0  0.37559  0.57204  0.10332  1.0000
  C   C9        1.0  0.46496  0.53504  0.00000  1.0000
  C   C10       1.0  0.25967  0.67407  0.59809  1.0000
  C   C11       1.0  0.32593  0.74034  0.40191  1.0000
  C   C12       1.0  0.38300  0.54919  0.60137  1.0000
  C   C13       1.0  0.45081  0.61700  0.39863  1.0000
  C   C14       1.0  0.48018  0.51982  0.50000  1.0000
  C   C15       1.0  0.95158  0.50659  0.90296  1.0000
  C   C16       1.0  0.49341  0.04842  0.09704  1.0000
  C   C17       1.0  0.94159  0.54183  0.77286  1.0000
  C   C18       1.0  0.45816  0.05841  0.22714  1.0000
  C   C19       1.0  0.82751  0.62316  0.96562  1.0000
  C   C20       1.0  0.37684  0.17249  0.03438  1.0000
  C   C21       1.0  0.09878  0.50616  0.92387  1.0000
  C   C22       1.0  0.49384  0.90122  0.07613  1.0000
  C   C23       1.0  0.97490  0.47027  0.36835  1.0000
  C   C24       1.0  0.52973  0.02510  0.63165  1.0000
  C   C25       1.0  0.09196  0.40823  0.26917  1.0000
  C   C26       1.0  0.59177  0.90804  0.73083  1.0000
  C   C27       1.0  0.03445  0.53945  0.44240  1.0000
  C   C28       1.0  0.46055  0.96556  0.55760  1.0000
  C   C29       1.0  0.84135  0.58550  0.31887  1.0000
  C   C30       1.0  0.41450  0.15865  0.68113  1.0000
  S   S1        1.0  0.07164  0.20509  0.89196  1.0000
  S   S2        1.0  0.79491  0.92836  0.10804  1.0000
  S   S3        1.0  0.07058  0.20264  0.51042  1.0000
  S   S4        1.0  0.79736  0.92942  0.48958  1.0000
  N   N1        1.0  0.21688  0.78312  0.00000  1.0000
  N   N2        1.0  0.23250  0.76750  0.50000  1.0000
  Cl  Cl1       1.0  0.98166  0.91588  0.76621  1.0000
  Cl  Cl2       1.0  0.08412  0.01834  0.23379  1.0000
  Cl  Cl3       1.0  0.69196  0.33155  0.74991  1.0000
  Cl  Cl4       1.0  0.66845  0.30804  0.25009  1.0000
