data_image0
_chemical_formula_structural       H18Pb2C18N2O10
_chemical_formula_sum              "H18 Pb2 C18 N2 O10"
_cell_length_a       7.3157
_cell_length_b       8.88826
_cell_length_c       9.28794
_cell_angle_alpha    76.9745
_cell_angle_beta     66.2841
_cell_angle_gamma    78.2455

_space_group_name_H-M_alt    "P 1"
_space_group_IT_number       1

loop_
  _space_group_symop_operation_xyz
  'x, y, z'

loop_
  _atom_site_type_symbol
  _atom_site_label
  _atom_site_symmetry_multiplicity
  _atom_site_fract_x
  _atom_site_fract_y
  _atom_site_fract_z
  _atom_site_occupancy
  H   H1        1.0  0.91155  0.65632  0.71330  1.0000
  H   H2        1.0  0.08847  0.34368  0.28670  1.0000
  H   H3        1.0  0.69435  0.66337  0.85579  1.0000
  H   H4        1.0  0.30566  0.33662  0.14421  1.0000
  H   H5        1.0  0.08424  0.58875  0.09784  1.0000
  H   H6        1.0  0.91577  0.41126  0.90216  1.0000
  H   H7        1.0  0.58712  0.10472  0.24232  1.0000
  H   H8        1.0  0.41287  0.89527  0.75769  1.0000
  H   H9        1.0  0.49396  0.92760  0.35950  1.0000
  H   H10       1.0  0.50603  0.07239  0.64050  1.0000
  H   H11       1.0  0.42833  0.02004  0.19146  1.0000
  H   H12       1.0  0.57166  0.97996  0.80854  1.0000
  H   H13       1.0  0.91116  0.92779  0.63315  1.0000
  H   H14       1.0  0.08884  0.07221  0.36685  1.0000
  H   H15       1.0  0.14582  0.96294  0.62074  1.0000
  H   H16       1.0  0.85417  0.03706  0.37925  1.0000
  H   H17       1.0  0.92778  0.10118  0.69046  1.0000
  H   H18       1.0  0.07221  0.89881  0.30952  1.0000
  Pb  Pb1       1.0  0.67047  0.45233  0.63543  1.0000
  Pb  Pb2       1.0  0.32953  0.54767  0.36457  1.0000
  C   C1        1.0  0.78305  0.68709  0.34597  1.0000
  C   C2        1.0  0.21695  0.31291  0.65403  1.0000
  C   C3        1.0  0.83410  0.76668  0.17754  1.0000
  C   C4        1.0  0.16591  0.23332  0.82246  1.0000
  C   C5        1.0  0.72655  0.90455  0.12710  1.0000
  C   C6        1.0  0.27343  0.09546  0.87291  1.0000
  C   C7        1.0  0.93613  0.89656  0.86035  1.0000
  C   C8        1.0  0.06387  0.10344  0.13965  1.0000
  C   C9        1.0  0.04473  0.75379  0.90132  1.0000
  C   C10       1.0  0.95527  0.24622  0.09867  1.0000
  C   C11       1.0  0.99742  0.69488  0.06219  1.0000
  C   C12       1.0  0.00257  0.30513  0.93782  1.0000
  C   C13       1.0  0.54891  0.99270  0.23852  1.0000
  C   C14       1.0  0.45108  0.00730  0.76148  1.0000
  C   C15       1.0  0.98393  0.97716  0.69160  1.0000
  C   C16       1.0  0.01606  0.02284  0.30840  1.0000
  C   C17       1.0  0.19952  0.65994  0.77979  1.0000
  C   C18       1.0  0.80049  0.34007  0.22020  1.0000
  N   N1        1.0  0.78403  0.96863  0.97191  1.0000
  N   N2        1.0  0.21596  0.03137  0.02809  1.0000
  O   O1        1.0  0.92203  0.63677  0.39933  1.0000
  O   O2        1.0  0.07797  0.36322  0.60067  1.0000
  O   O3        1.0  0.59928  0.66258  0.43156  1.0000
  O   O4        1.0  0.40071  0.33741  0.56844  1.0000
  O   O5        1.0  0.15901  0.65339  0.66014  1.0000
  O   O6        1.0  0.84100  0.34661  0.33986  1.0000
  O   O7        1.0  0.35382  0.58966  0.80924  1.0000
  O   O8        1.0  0.64619  0.41036  0.19076  1.0000
  O   O9        1.0  0.76384  0.65083  0.74455  1.0000
  O   O10       1.0  0.23617  0.34916  0.25545  1.0000
