data_image0
_chemical_formula_structural       Cd2H16C20I4N4
_chemical_formula_sum              "Cd2 H16 C20 I4 N4"
_cell_length_a       7.64235
_cell_length_b       9.68319
_cell_length_c       9.68315
_cell_angle_alpha    62.5749
_cell_angle_beta     77.2473
_cell_angle_gamma    77.2473

_space_group_name_H-M_alt    "P 1"
_space_group_IT_number       1

loop_
  _space_group_symop_operation_xyz
  'x, y, z'

loop_
  _atom_site_type_symbol
  _atom_site_label
  _atom_site_symmetry_multiplicity
  _atom_site_fract_x
  _atom_site_fract_y
  _atom_site_fract_z
  _atom_site_occupancy
  Cd  Cd1       1.0  0.25000  0.91710  0.08290  1.0000
  Cd  Cd2       1.0  0.75000  0.08290  0.91710  1.0000
  H   H1        1.0  0.33452  0.33309  0.55142  1.0000
  H   H2        1.0  0.16548  0.44858  0.66691  1.0000
  H   H3        1.0  0.66548  0.66691  0.44858  1.0000
  H   H4        1.0  0.83452  0.55142  0.33309  1.0000
  H   H5        1.0  0.56992  0.21133  0.40729  1.0000
  H   H6        1.0  0.93007  0.59271  0.78868  1.0000
  H   H7        1.0  0.43007  0.78868  0.59271  1.0000
  H   H8        1.0  0.06992  0.40729  0.21132  1.0000
  H   H9        1.0  0.69551  0.37845  0.12818  1.0000
  H   H10       1.0  0.80449  0.87182  0.62155  1.0000
  H   H11       1.0  0.30449  0.62154  0.87182  1.0000
  H   H12       1.0  0.19551  0.12818  0.37845  1.0000
  H   H13       1.0  0.56803  0.66601  0.00658  1.0000
  H   H14       1.0  0.93197  0.99342  0.33400  1.0000
  H   H15       1.0  0.43197  0.33400  0.99342  1.0000
  H   H16       1.0  0.06803  0.00658  0.66600  1.0000
  C   C1        1.0  0.32197  0.56564  0.35447  1.0000
  C   C2        1.0  0.17803  0.64553  0.43437  1.0000
  C   C3        1.0  0.67803  0.43436  0.64553  1.0000
  C   C4        1.0  0.82197  0.35447  0.56563  1.0000
  C   C5        1.0  0.38710  0.40541  0.43037  1.0000
  C   C6        1.0  0.11289  0.56963  0.59459  1.0000
  C   C7        1.0  0.61289  0.59459  0.56963  1.0000
  C   C8        1.0  0.88710  0.43037  0.40541  1.0000
  C   C9        1.0  0.52059  0.33639  0.34912  1.0000
  C   C10       1.0  0.97940  0.65087  0.66362  1.0000
  C   C11       1.0  0.47941  0.66362  0.65087  1.0000
  C   C12       1.0  0.02059  0.34913  0.33638  1.0000
  C   C13       1.0  0.58908  0.42845  0.19445  1.0000
  C   C14       1.0  0.91092  0.80555  0.57155  1.0000
  C   C15       1.0  0.41092  0.57155  0.80555  1.0000
  C   C16       1.0  0.08908  0.19445  0.42845  1.0000
  C   C17       1.0  0.51943  0.58707  0.12686  1.0000
  C   C18       1.0  0.98057  0.87314  0.41294  1.0000
  C   C19       1.0  0.48057  0.41294  0.87314  1.0000
  C   C20       1.0  0.01943  0.12686  0.58706  1.0000
  I   I1        1.0  0.47857  0.99568  0.78246  1.0000
  I   I2        1.0  0.02143  0.21754  0.00432  1.0000
  I   I3        1.0  0.52143  0.00432  0.21754  1.0000
  I   I4        1.0  0.97857  0.78246  0.99568  1.0000
  N   N1        1.0  0.38870  0.65310  0.20417  1.0000
  N   N2        1.0  0.11130  0.79583  0.34690  1.0000
  N   N3        1.0  0.61130  0.34690  0.79583  1.0000
  N   N4        1.0  0.88870  0.20417  0.65310  1.0000
