data_image0
_chemical_formula_structural       V2H14C24O10
_chemical_formula_sum              "V2 H14 C24 O10"
_cell_length_a       6.89176
_cell_length_b       6.7142
_cell_length_c       12.8348
_cell_angle_alpha    105.557
_cell_angle_beta     103.69
_cell_angle_gamma    89.6963

_space_group_name_H-M_alt    "P 1"
_space_group_IT_number       1

loop_
  _space_group_symop_operation_xyz
  'x, y, z'

loop_
  _atom_site_type_symbol
  _atom_site_label
  _atom_site_symmetry_multiplicity
  _atom_site_fract_x
  _atom_site_fract_y
  _atom_site_fract_z
  _atom_site_occupancy
  V   V1        1.0  0.50000  0.00001  1.00000  1.0000
  V   V2        1.0  1.00000  0.00000  0.00000  1.0000
  H   H1        1.0  0.25040  0.71577  0.00085  1.0000
  H   H2        1.0  0.74961  0.28425  0.99915  1.0000
  H   H3        1.0  0.69510  0.46388  0.25875  1.0000
  H   H4        1.0  0.80451  0.20757  0.74143  1.0000
  H   H5        1.0  0.30489  0.53611  0.74126  1.0000
  H   H6        1.0  0.19548  0.79243  0.25857  1.0000
  H   H7        1.0  0.86066  0.60749  0.46002  1.0000
  H   H8        1.0  0.63857  0.14806  0.54060  1.0000
  H   H9        1.0  0.13935  0.39249  0.53997  1.0000
  H   H10       1.0  0.36143  0.85193  0.45940  1.0000
  H   H11       1.0  0.15486  0.31061  0.34103  1.0000
  H   H12       1.0  0.34669  0.97169  0.65866  1.0000
  H   H13       1.0  0.84514  0.68938  0.65897  1.0000
  H   H14       1.0  0.65330  0.02831  0.34134  1.0000
  C   C1        1.0  0.32364  0.28250  0.16889  1.0000
  C   C2        1.0  0.17516  0.11330  0.83111  1.0000
  C   C3        1.0  0.67636  0.71751  0.83111  1.0000
  C   C4        1.0  0.82483  0.88671  0.16889  1.0000
  C   C5        1.0  0.41366  0.38185  0.28872  1.0000
  C   C6        1.0  0.08698  0.09515  0.71157  1.0000
  C   C7        1.0  0.58634  0.61815  0.71128  1.0000
  C   C8        1.0  0.91301  0.90486  0.28842  1.0000
  C   C9        1.0  0.61499  0.46562  0.32265  1.0000
  C   C10       1.0  0.88510  0.14485  0.67758  1.0000
  C   C11       1.0  0.38501  0.53437  0.67735  1.0000
  C   C12       1.0  0.11489  0.85515  0.32242  1.0000
  C   C13       1.0  0.70612  0.54397  0.43400  1.0000
  C   C14       1.0  0.79355  0.11066  0.56635  1.0000
  C   C15       1.0  0.29389  0.45601  0.56600  1.0000
  C   C16       1.0  0.20645  0.88934  0.43365  1.0000
  C   C17       1.0  0.39831  0.45720  0.48291  1.0000
  C   C18       1.0  0.10209  0.97474  0.51707  1.0000
  C   C19       1.0  0.60170  0.54279  0.51710  1.0000
  C   C20       1.0  0.89791  0.02527  0.48293  1.0000
  C   C21       1.0  0.30809  0.37794  0.36789  1.0000
  C   C22       1.0  0.19284  0.01182  0.63204  1.0000
  C   C23       1.0  0.69191  0.62205  0.63211  1.0000
  C   C24       1.0  0.80716  0.98818  0.36796  1.0000
  O   O1        1.0  0.24912  0.86023  0.99974  1.0000
  O   O2        1.0  0.75088  0.13978  0.00025  1.0000
  O   O3        1.0  0.43902  0.26025  0.10169  1.0000
  O   O4        1.0  0.05737  0.15569  0.89690  1.0000
  O   O5        1.0  0.56098  0.73976  0.89831  1.0000
  O   O6        1.0  0.94262  0.84431  0.10310  1.0000
  O   O7        1.0  0.13948  0.21901  0.13889  1.0000
  O   O8        1.0  0.35973  0.07795  0.86147  1.0000
  O   O9        1.0  0.86052  0.78099  0.86112  1.0000
  O   O10       1.0  0.64026  0.92205  0.13853  1.0000
