data_image0
_chemical_formula_structural       NiH18C12S4N2O2
_chemical_formula_sum              "Ni1 H18 C12 S4 N2 O2"
_cell_length_a       6.59798
_cell_length_b       6.93138
_cell_length_c       9.97278
_cell_angle_alpha    102.566
_cell_angle_beta     100.794
_cell_angle_gamma    103.668

_space_group_name_H-M_alt    "P 1"
_space_group_IT_number       1

loop_
  _space_group_symop_operation_xyz
  'x, y, z'

loop_
  _atom_site_type_symbol
  _atom_site_label
  _atom_site_symmetry_multiplicity
  _atom_site_fract_x
  _atom_site_fract_y
  _atom_site_fract_z
  _atom_site_occupancy
  Ni  Ni1       1.0  0.00001  0.00000  1.00000  1.0000
  H   H1        1.0  0.19603  0.05721  0.51352  1.0000
  H   H2        1.0  0.80397  0.94279  0.48649  1.0000
  H   H3        1.0  0.59780  0.14755  0.62142  1.0000
  H   H4        1.0  0.40221  0.85247  0.37859  1.0000
  H   H5        1.0  0.60332  0.41131  0.68393  1.0000
  H   H6        1.0  0.39666  0.58871  0.31608  1.0000
  H   H7        1.0  0.45430  0.21675  0.74816  1.0000
  H   H8        1.0  0.54569  0.78326  0.25185  1.0000
  H   H9        1.0  0.28848  0.53006  0.59873  1.0000
  H   H10       1.0  0.71150  0.46993  0.40127  1.0000
  H   H11       1.0  0.04551  0.35009  0.48167  1.0000
  H   H12       1.0  0.95448  0.64989  0.51832  1.0000
  H   H13       1.0  0.11576  0.35056  0.66189  1.0000
  H   H14       1.0  0.88422  0.64943  0.33811  1.0000
  H   H15       1.0  0.73194  0.28463  0.08422  1.0000
  H   H16       1.0  0.26808  0.71537  0.91577  1.0000
  H   H17       1.0  0.27123  0.35426  0.92055  1.0000
  H   H18       1.0  0.72878  0.64574  0.07945  1.0000
  C   C1        1.0  0.25152  0.14810  0.27970  1.0000
  C   C2        1.0  0.74849  0.85190  0.72030  1.0000
  C   C3        1.0  0.30305  0.21531  0.53778  1.0000
  C   C4        1.0  0.69695  0.78469  0.46222  1.0000
  C   C5        1.0  0.50262  0.25053  0.65429  1.0000
  C   C6        1.0  0.49737  0.74949  0.34572  1.0000
  C   C7        1.0  0.18130  0.37228  0.57102  1.0000
  C   C8        1.0  0.81869  0.62771  0.42898  1.0000
  C   C9        1.0  0.85155  0.38036  0.04573  1.0000
  C   C10       1.0  0.14844  0.61963  0.95427  1.0000
  C   C11       1.0  0.14962  0.41971  0.95623  1.0000
  C   C12       1.0  0.85038  0.58031  0.04377  1.0000
  S   S1        1.0  0.36857  0.13255  0.14111  1.0000
  S   S2        1.0  0.63144  0.86746  0.85889  1.0000
  S   S3        1.0  0.97896  0.06430  0.24437  1.0000
  S   S4        1.0  0.02104  0.93569  0.75562  1.0000
  N   N1        1.0  0.00125  0.29889  0.00152  1.0000
  N   N2        1.0  0.99877  0.70111  0.99847  1.0000
  O   O1        1.0  0.38385  0.22623  0.40946  1.0000
  O   O2        1.0  0.61615  0.77376  0.59055  1.0000
