data_image0
_chemical_formula_structural       Cd2H28C16N8O12
_chemical_formula_sum              "Cd2 H28 C16 N8 O12"
_cell_length_a       4.69497
_cell_length_b       9.26187
_cell_length_c       14.8715
_cell_angle_alpha    96.8052
_cell_angle_beta     89.9581
_cell_angle_gamma    104.534

_space_group_name_H-M_alt    "P 1"
_space_group_IT_number       1

loop_
  _space_group_symop_operation_xyz
  'x, y, z'

loop_
  _atom_site_type_symbol
  _atom_site_label
  _atom_site_symmetry_multiplicity
  _atom_site_fract_x
  _atom_site_fract_y
  _atom_site_fract_z
  _atom_site_occupancy
  Cd  Cd1       1.0  1.00000  0.00000  0.00000  1.0000
  Cd  Cd2       1.0  0.00000  1.00000  0.50000  1.0000
  H   H1        1.0  0.79275  0.13192  0.86507  1.0000
  H   H2        1.0  0.66109  0.86913  0.63534  1.0000
  H   H3        1.0  0.20724  0.86807  0.13493  1.0000
  H   H4        1.0  0.33893  0.13087  0.36466  1.0000
  H   H5        1.0  0.72499  0.22472  0.95784  1.0000
  H   H6        1.0  0.49907  0.77799  0.54250  1.0000
  H   H7        1.0  0.27500  0.77527  0.04216  1.0000
  H   H8        1.0  0.50093  0.22200  0.45750  1.0000
  H   H9        1.0  0.47271  0.54119  0.85522  1.0000
  H   H10       1.0  0.93151  0.45995  0.64495  1.0000
  H   H11       1.0  0.52728  0.45881  0.14478  1.0000
  H   H12       1.0  0.06850  0.54005  0.35505  1.0000
  H   H13       1.0  0.25757  0.35507  0.97810  1.0000
  H   H14       1.0  0.89592  0.64394  0.52059  1.0000
  H   H15       1.0  0.74241  0.64493  0.02189  1.0000
  H   H16       1.0  0.10410  0.35606  0.47941  1.0000
  H   H17       1.0  0.29412  0.27538  0.86707  1.0000
  H   H18       1.0  0.01813  0.72334  0.63108  1.0000
  H   H19       1.0  0.70587  0.72462  0.13293  1.0000
  H   H20       1.0  0.98188  0.27666  0.36892  1.0000
  H   H21       1.0  0.98412  0.69270  0.83645  1.0000
  H   H22       1.0  0.29342  0.30985  0.66645  1.0000
  H   H23       1.0  0.01588  0.30731  0.16355  1.0000
  H   H24       1.0  0.70660  0.69015  0.33355  1.0000
  H   H25       1.0  0.25705  0.69937  0.75320  1.0000
  H   H26       1.0  0.56459  0.30209  0.74777  1.0000
  H   H27       1.0  0.74295  0.30064  0.24680  1.0000
  H   H28       1.0  0.43542  0.69791  0.25223  1.0000
  C   C1        1.0  0.13820  0.31391  0.91280  1.0000
  C   C2        1.0  0.82155  0.68593  0.58642  1.0000
  C   C3        1.0  0.86179  0.68609  0.08720  1.0000
  C   C4        1.0  0.17847  0.31407  0.41358  1.0000
  C   C5        1.0  0.04454  0.44507  0.87932  1.0000
  C   C6        1.0  0.59826  0.55590  0.62106  1.0000
  C   C7        1.0  0.95545  0.55493  0.12067  1.0000
  C   C8        1.0  0.40177  0.44410  0.37894  1.0000
  C   C9        1.0  0.21442  0.69129  0.82556  1.0000
  C   C10       1.0  0.52529  0.31035  0.67568  1.0000
  C   C11       1.0  0.78558  0.30872  0.17444  1.0000
  C   C12       1.0  0.47471  0.68965  0.32431  1.0000
  C   C13       1.0  0.41386  0.83093  0.87956  1.0000
  C   C14       1.0  0.58184  0.17016  0.62070  1.0000
  C   C15       1.0  0.58613  0.16907  0.12044  1.0000
  C   C16       1.0  0.41817  0.82984  0.37930  1.0000
  N   N1        1.0  0.88976  0.18689  0.92532  1.0000
  N   N2        1.0  0.70169  0.81415  0.57481  1.0000
  N   N3        1.0  0.11023  0.81311  0.07468  1.0000
  N   N4        1.0  0.29832  0.18584  0.42519  1.0000
  N   N5        1.0  0.26077  0.55175  0.84973  1.0000
  N   N6        1.0  0.70928  0.44949  0.65079  1.0000
  N   N7        1.0  0.73922  0.44825  0.15027  1.0000
  N   N8        1.0  0.29073  0.55050  0.34921  1.0000
  O   O1        1.0  0.78035  0.44984  0.88244  1.0000
  O   O2        1.0  0.32941  0.55142  0.61857  1.0000
  O   O3        1.0  0.21963  0.55016  0.11756  1.0000
  O   O4        1.0  0.67060  0.44857  0.38143  1.0000
  O   O5        1.0  0.63890  0.81138  0.91968  1.0000
  O   O6        1.0  0.82430  0.18906  0.57937  1.0000
  O   O7        1.0  0.36109  0.18862  0.08033  1.0000
  O   O8        1.0  0.17570  0.81094  0.42063  1.0000
  O   O9        1.0  0.34255  0.95412  0.87956  1.0000
  O   O10       1.0  0.38738  0.04761  0.62136  1.0000
  O   O11       1.0  0.65745  0.04588  0.12044  1.0000
  O   O12       1.0  0.61263  0.95239  0.37864  1.0000
