data_image0
_chemical_formula_structural       Tb2H8C24O16F12
_chemical_formula_sum              "Tb2 H8 C24 O16 F12"
_cell_length_a       8.84176
_cell_length_b       8.84924
_cell_length_c       11.169
_cell_angle_alpha    107.475
_cell_angle_beta     110.315
_cell_angle_gamma    100.5

_space_group_name_H-M_alt    "P 1"
_space_group_IT_number       1

loop_
  _space_group_symop_operation_xyz
  'x, y, z'

loop_
  _atom_site_type_symbol
  _atom_site_label
  _atom_site_symmetry_multiplicity
  _atom_site_fract_x
  _atom_site_fract_y
  _atom_site_fract_z
  _atom_site_occupancy
  Tb  Tb1       1.0  0.18608  0.39490  0.47053  1.0000
  Tb  Tb2       1.0  0.92411  0.71551  0.52951  1.0000
  H   H1        1.0  0.32180  0.35672  0.26096  1.0000
  H   H2        1.0  0.09562  0.06042  0.73899  1.0000
  H   H3        1.0  0.48464  0.40948  0.39585  1.0000
  H   H4        1.0  0.01329  0.08834  0.60415  1.0000
  H   H5        1.0  0.00312  0.01409  0.35064  1.0000
  H   H6        1.0  0.66306  0.65224  0.64942  1.0000
  H   H7        1.0  0.11891  0.03588  0.27421  1.0000
  H   H8        1.0  0.76105  0.84442  0.72573  1.0000
  C   C1        1.0  0.18902  0.70075  0.76790  1.0000
  C   C2        1.0  0.93283  0.42125  0.23213  1.0000
  C   C3        1.0  0.31925  0.69883  0.89754  1.0000
  C   C4        1.0  0.80116  0.42158  0.10239  1.0000
  C   C5        1.0  0.27600  0.59610  0.96146  1.0000
  C   C6        1.0  0.63454  0.31419  0.03824  1.0000
  C   C7        1.0  0.39306  0.60168  0.08569  1.0000
  C   C8        1.0  0.51598  0.30694  0.91390  1.0000
  C   C9        1.0  0.56195  0.71057  0.15324  1.0000
  C   C10       1.0  0.55739  0.40837  0.84649  1.0000
  C   C11       1.0  0.60518  0.80943  0.08486  1.0000
  C   C12       1.0  0.72468  0.52008  0.91508  1.0000
  C   C13       1.0  0.48695  0.80307  0.96094  1.0000
  C   C14       1.0  0.84210  0.52589  0.03907  1.0000
  C   C15       1.0  0.29509  0.79524  0.50007  1.0000
  C   C16       1.0  0.42903  0.92910  0.50001  1.0000
  C   C17       1.0  0.41558  0.95015  0.37885  1.0000
  C   C18       1.0  0.57120  0.03671  0.62127  1.0000
  C   C19       1.0  0.53906  0.07150  0.37827  1.0000
  C   C20       1.0  0.69317  0.16102  0.62216  1.0000
  C   C21       1.0  0.67968  0.17996  0.50029  1.0000
  C   C22       1.0  0.68664  0.72090  0.28951  1.0000
  C   C23       1.0  0.43141  0.39701  0.71029  1.0000
  C   C24       1.0  0.81281  0.31304  0.50024  1.0000
  O   O1        1.0  0.36458  0.34045  0.34772  1.0000
  O   O2        1.0  0.99239  0.01657  0.65236  1.0000
  O   O3        1.0  0.10178  0.09256  0.35528  1.0000
  O   O4        1.0  0.73689  0.74624  0.64476  1.0000
  O   O5        1.0  0.16217  0.59675  0.64939  1.0000
  O   O6        1.0  0.94732  0.51294  0.35064  1.0000
  O   O7        1.0  0.10999  0.80472  0.78112  1.0000
  O   O8        1.0  0.02369  0.32910  0.21893  1.0000
  O   O9        1.0  0.31085  0.65132  0.46941  1.0000
  O   O10       1.0  0.18181  0.84175  0.53081  1.0000
  O   O11       1.0  0.93379  0.27005  0.48054  1.0000
  O   O12       1.0  0.78935  0.45356  0.51984  1.0000
  O   O13       1.0  0.64394  0.61840  0.34009  1.0000
  O   O14       1.0  0.27825  0.30373  0.65961  1.0000
  O   O15       1.0  0.83503  0.83141  0.35363  1.0000
  O   O16       1.0  0.47788  0.48149  0.64634  1.0000
  F   F1        1.0  0.11692  0.48770  0.90195  1.0000
  F   F2        1.0  0.58548  0.21461  0.09765  1.0000
  F   F3        1.0  0.33442  0.49704  0.13787  1.0000
  F   F4        1.0  0.35910  0.19598  0.86151  1.0000
  F   F5        1.0  0.76417  0.91464  0.13513  1.0000
  F   F6        1.0  0.77974  0.62871  0.86483  1.0000
  F   F7        1.0  0.53815  0.90000  0.90045  1.0000
  F   F8        1.0  0.99948  0.63774  0.09977  1.0000
  F   F9        1.0  0.27771  0.85286  0.25700  1.0000
  F   F10       1.0  0.59565  0.02023  0.74294  1.0000
  F   F11       1.0  0.51991  0.08418  0.25658  1.0000
  F   F12       1.0  0.82748  0.26328  0.74396  1.0000
