data_image0
_chemical_formula_structural       Co2H8C24N8O16
_chemical_formula_sum              "Co2 H8 C24 N8 O16"
_cell_length_a       7.90795
_cell_length_b       7.91294
_cell_length_c       12.7797
_cell_angle_alpha    90.8614
_cell_angle_beta     108.047
_cell_angle_gamma    118.341

_space_group_name_H-M_alt    "P 1"
_space_group_IT_number       1

loop_
  _space_group_symop_operation_xyz
  'x, y, z'

loop_
  _atom_site_type_symbol
  _atom_site_label
  _atom_site_symmetry_multiplicity
  _atom_site_fract_x
  _atom_site_fract_y
  _atom_site_fract_z
  _atom_site_occupancy
  Co  Co1       1.0  0.75163  0.50136  0.24999  1.0000
  Co  Co2       1.0  0.24841  0.49868  0.75001  1.0000
  H   H1        1.0  0.06083  0.47476  0.13856  1.0000
  H   H2        1.0  0.83571  0.92198  0.36156  1.0000
  H   H3        1.0  0.93919  0.52526  0.86144  1.0000
  H   H4        1.0  0.16428  0.07803  0.63843  1.0000
  H   H5        1.0  0.40104  0.54692  0.28131  1.0000
  H   H6        1.0  0.76491  0.11911  0.21867  1.0000
  H   H7        1.0  0.59898  0.45310  0.71869  1.0000
  H   H8        1.0  0.23506  0.88088  0.78131  1.0000
  C   C1        1.0  0.15518  0.42686  0.11563  1.0000
  C   C2        1.0  0.81075  0.03922  0.38442  1.0000
  C   C3        1.0  0.84483  0.57314  0.88437  1.0000
  C   C4        1.0  0.18925  0.96077  0.61558  1.0000
  C   C5        1.0  0.34437  0.46782  0.19638  1.0000
  C   C6        1.0  0.77083  0.14752  0.30363  1.0000
  C   C7        1.0  0.65563  0.53218  0.80362  1.0000
  C   C8        1.0  0.22917  0.85247  0.69636  1.0000
  C   C9        1.0  0.39311  0.31505  0.06137  1.0000
  C   C10       1.0  0.75320  0.33145  0.43861  1.0000
  C   C11       1.0  0.60688  0.68494  0.93862  1.0000
  C   C12       1.0  0.24681  0.66856  0.56139  1.0000
  C   C13       1.0  0.20327  0.27527  0.98358  1.0000
  C   C14       1.0  0.79124  0.21950  0.51641  1.0000
  C   C15       1.0  0.79671  0.72472  0.01642  1.0000
  C   C16       1.0  0.20876  0.78050  0.48358  1.0000
  C   C17       1.0  0.12439  0.16090  0.86630  1.0000
  C   C18       1.0  0.79437  0.25810  0.63378  1.0000
  C   C19       1.0  0.87564  0.83913  0.13372  1.0000
  C   C20       1.0  0.20561  0.74189  0.36620  1.0000
  C   C21       1.0  0.54348  0.27288  0.03758  1.0000
  C   C22       1.0  0.73503  0.50566  0.46237  1.0000
  C   C23       1.0  0.45656  0.72711  0.96242  1.0000
  C   C24       1.0  0.26496  0.49437  0.53764  1.0000
  N   N1        1.0  0.46003  0.41171  0.16658  1.0000
  N   N2        1.0  0.74459  0.29297  0.33339  1.0000
  N   N3        1.0  0.53998  0.58827  0.83342  1.0000
  N   N4        1.0  0.25540  0.70703  0.66662  1.0000
  N   N5        1.0  0.08659  0.33358  0.01097  1.0000
  N   N6        1.0  0.82224  0.07556  0.48910  1.0000
  N   N7        1.0  0.91341  0.66641  0.98903  1.0000
  N   N8        1.0  0.17777  0.92446  0.51090  1.0000
  O   O1        1.0  0.72036  0.35051  0.12429  1.0000
  O   O2        1.0  0.72647  0.59597  0.37568  1.0000
  O   O3        1.0  0.27962  0.64950  0.87571  1.0000
  O   O4        1.0  0.27353  0.40402  0.62432  1.0000
  O   O5        1.0  0.51310  0.18204  0.94897  1.0000
  O   O6        1.0  0.73240  0.56383  0.55089  1.0000
  O   O7        1.0  0.48690  0.81795  0.05102  1.0000
  O   O8        1.0  0.26759  0.43617  0.44913  1.0000
  O   O9        1.0  0.19047  0.25370  0.79112  1.0000
  O   O10       1.0  0.96232  0.40038  0.70839  1.0000
  O   O11       1.0  0.80955  0.74629  0.20889  1.0000
  O   O12       1.0  0.03763  0.59959  0.29162  1.0000
  O   O13       1.0  0.00908  0.98265  0.84790  1.0000
  O   O14       1.0  0.63504  0.16068  0.65262  1.0000
  O   O15       1.0  0.99092  0.01735  0.15209  1.0000
  O   O16       1.0  0.36495  0.83931  0.34738  1.0000
