data_image0
_chemical_formula_structural       Tb4H16C24N36O8
_chemical_formula_sum              "Tb4 H16 C24 N36 O8"
_cell_length_a       7.36667
_cell_length_b       11.1505
_cell_length_c       14.1153
_cell_angle_alpha    90.0002
_cell_angle_beta     93.5008
_cell_angle_gamma    89.9993

_space_group_name_H-M_alt    "P 1"
_space_group_IT_number       1

loop_
  _space_group_symop_operation_xyz
  'x, y, z'

loop_
  _atom_site_type_symbol
  _atom_site_label
  _atom_site_symmetry_multiplicity
  _atom_site_fract_x
  _atom_site_fract_y
  _atom_site_fract_z
  _atom_site_occupancy
  Tb  Tb1       1.0  0.06270  0.25175  0.43468  1.0000
  Tb  Tb2       1.0  0.43731  0.75175  0.06532  1.0000
  Tb  Tb3       1.0  0.93730  0.74825  0.56532  1.0000
  Tb  Tb4       1.0  0.56269  0.24825  0.93469  1.0000
  H   H1        1.0  0.32658  0.44592  0.39994  1.0000
  H   H2        1.0  0.17342  0.94592  0.10007  1.0000
  H   H3        1.0  0.67343  0.55408  0.60007  1.0000
  H   H4        1.0  0.82658  0.05408  0.89994  1.0000
  H   H5        1.0  0.16611  0.50928  0.45038  1.0000
  H   H6        1.0  0.33389  0.00929  0.04962  1.0000
  H   H7        1.0  0.83389  0.49071  0.54962  1.0000
  H   H8        1.0  0.66611  0.99071  0.95038  1.0000
  H   H9        1.0  0.32049  0.10972  0.56336  1.0000
  H   H10       1.0  0.17952  0.60972  0.93664  1.0000
  H   H11       1.0  0.67951  0.89028  0.43664  1.0000
  H   H12       1.0  0.82048  0.39028  0.06336  1.0000
  H   H13       1.0  0.12656  0.05047  0.57540  1.0000
  H   H14       1.0  0.37345  0.55047  0.92460  1.0000
  H   H15       1.0  0.87344  0.94953  0.42460  1.0000
  H   H16       1.0  0.62655  0.44954  0.07540  1.0000
  C   C1        1.0  0.19328  0.36847  0.04735  1.0000
  C   C2        1.0  0.30672  0.86848  0.45266  1.0000
  C   C3        1.0  0.80672  0.63153  0.95265  1.0000
  C   C4        1.0  0.69327  0.13153  0.54734  1.0000
  C   C5        1.0  0.51465  0.14165  0.16893  1.0000
  C   C6        1.0  0.98535  0.64165  0.33107  1.0000
  C   C7        1.0  0.48535  0.85835  0.83107  1.0000
  C   C8        1.0  0.01465  0.35834  0.66893  1.0000
  C   C9        1.0  0.07431  0.34821  0.19060  1.0000
  C   C10       1.0  0.42569  0.84821  0.30940  1.0000
  C   C11       1.0  0.92568  0.65179  0.80940  1.0000
  C   C12       1.0  0.57430  0.15180  0.69061  1.0000
  C   C13       1.0  0.45041  0.17006  0.32490  1.0000
  C   C14       1.0  0.04960  0.67006  0.17510  1.0000
  C   C15       1.0  0.54959  0.82994  0.67510  1.0000
  C   C16       1.0  0.95040  0.32993  0.82489  1.0000
  C   C17       1.0  0.82972  0.92083  0.14557  1.0000
  C   C18       1.0  0.67028  0.42082  0.35443  1.0000
  C   C19       1.0  0.17028  0.07917  0.85443  1.0000
  C   C20       1.0  0.32972  0.57917  0.64558  1.0000
  C   C21       1.0  0.99316  0.02314  0.26222  1.0000
  C   C22       1.0  0.50683  0.52314  0.23778  1.0000
  C   C23       1.0  0.00684  0.97686  0.73779  1.0000
  C   C24       1.0  0.49317  0.47686  0.76222  1.0000
  N   N1        1.0  0.54831  0.13069  0.25890  1.0000
  N   N2        1.0  0.95169  0.63069  0.24111  1.0000
  N   N3        1.0  0.45169  0.86931  0.74110  1.0000
  N   N4        1.0  0.04831  0.36930  0.75889  1.0000
  N   N5        1.0  0.36980  0.20230  0.38991  1.0000
  N   N6        1.0  0.13020  0.70231  0.11009  1.0000
  N   N7        1.0  0.63020  0.79770  0.61008  1.0000
  N   N8        1.0  0.86979  0.29769  0.88990  1.0000
  N   N9        1.0  0.06017  0.38288  0.10230  1.0000
  N   N10       1.0  0.43982  0.88289  0.39770  1.0000
  N   N11       1.0  0.93983  0.61712  0.89770  1.0000
  N   N12       1.0  0.56017  0.11712  0.60230  1.0000
  N   N13       1.0  0.07382  0.31867  0.27039  1.0000
  N   N14       1.0  0.42617  0.81867  0.22962  1.0000
  N   N15       1.0  0.92617  0.68133  0.72961  1.0000
  N   N16       1.0  0.57382  0.18133  0.77038  1.0000
  N   N17       1.0  0.49534  0.14401  0.08505  1.0000
  N   N18       1.0  0.00467  0.64401  0.41495  1.0000
  N   N19       1.0  0.50467  0.85599  0.91495  1.0000
  N   N20       1.0  0.99533  0.35599  0.58504  1.0000
  N   N21       1.0  0.02231  0.06953  0.33669  1.0000
  N   N22       1.0  0.47769  0.56952  0.16331  1.0000
  N   N23       1.0  0.97769  0.93047  0.66331  1.0000
  N   N24       1.0  0.52231  0.43048  0.83669  1.0000
  N   N25       1.0  0.30862  0.35867  0.99390  1.0000
  N   N26       1.0  0.19137  0.85867  0.50610  1.0000
  N   N27       1.0  0.69138  0.64133  0.00610  1.0000
  N   N28       1.0  0.80863  0.14133  0.49391  1.0000
  N   N29       1.0  0.70408  0.87043  0.10927  1.0000
  N   N30       1.0  0.79593  0.37042  0.39073  1.0000
  N   N31       1.0  0.29593  0.12957  0.89073  1.0000
  N   N32       1.0  0.20407  0.62957  0.60927  1.0000
  N   N33       1.0  0.97753  0.97321  0.17930  1.0000
  N   N34       1.0  0.52248  0.47320  0.32070  1.0000
  N   N35       1.0  0.02248  0.02679  0.82070  1.0000
  N   N36       1.0  0.47752  0.52679  0.67930  1.0000
  O   O1        1.0  0.23363  0.43307  0.44657  1.0000
  O   O2        1.0  0.26637  0.93308  0.05344  1.0000
  O   O3        1.0  0.76636  0.56692  0.55343  1.0000
  O   O4        1.0  0.73363  0.06692  0.94657  1.0000
  O   O5        1.0  0.18743  0.12416  0.55662  1.0000
  O   O6        1.0  0.31258  0.62416  0.94339  1.0000
  O   O7        1.0  0.81257  0.87584  0.44339  1.0000
  O   O8        1.0  0.68742  0.37584  0.05661  1.0000
