data_image0
_chemical_formula_structural       Tm4H32C24O28
_chemical_formula_sum              "Tm4 H32 C24 O28"
_cell_length_a       7.56885
_cell_length_b       10.6268
_cell_length_c       12.5897
_cell_angle_alpha    72.1581
_cell_angle_beta     72.5134
_cell_angle_gamma    69.1496

_space_group_name_H-M_alt    "P 1"
_space_group_IT_number       1

loop_
  _space_group_symop_operation_xyz
  'x, y, z'

loop_
  _atom_site_type_symbol
  _atom_site_label
  _atom_site_symmetry_multiplicity
  _atom_site_fract_x
  _atom_site_fract_y
  _atom_site_fract_z
  _atom_site_occupancy
  Tm  Tm1       1.0  0.55460  0.68929  0.77034  1.0000
  Tm  Tm2       1.0  0.01421  0.81068  0.72969  1.0000
  Tm  Tm3       1.0  0.44541  0.31071  0.22966  1.0000
  Tm  Tm4       1.0  0.98579  0.18932  0.27031  1.0000
  H   H1        1.0  0.34497  0.63810  0.46736  1.0000
  H   H2        1.0  0.45034  0.86193  0.03253  1.0000
  H   H3        1.0  0.65504  0.36190  0.53264  1.0000
  H   H4        1.0  0.54966  0.13807  0.96747  1.0000
  H   H5        1.0  0.30029  0.50269  0.58150  1.0000
  H   H6        1.0  0.38463  0.99740  0.91836  1.0000
  H   H7        1.0  0.69971  0.49732  0.41849  1.0000
  H   H8        1.0  0.61537  0.00260  0.08164  1.0000
  H   H9        1.0  0.98700  0.86404  0.04075  1.0000
  H   H10       1.0  0.89177  0.63597  0.45923  1.0000
  H   H11       1.0  0.01300  0.13595  0.95925  1.0000
  H   H12       1.0  0.10823  0.36403  0.54077  1.0000
  H   H13       1.0  0.13284  0.74205  0.13752  1.0000
  H   H14       1.0  0.01241  0.75796  0.36246  1.0000
  H   H15       1.0  0.86716  0.25795  0.86248  1.0000
  H   H16       1.0  0.98759  0.24205  0.63754  1.0000
  H   H17       1.0  0.80735  0.70161  0.15096  1.0000
  H   H18       1.0  0.66000  0.79837  0.34890  1.0000
  H   H19       1.0  0.19265  0.29839  0.84904  1.0000
  H   H20       1.0  0.34000  0.20163  0.65110  1.0000
  H   H21       1.0  0.90238  0.66350  0.01536  1.0000
  H   H22       1.0  0.58129  0.83654  0.48448  1.0000
  H   H23       1.0  0.09762  0.33650  0.98464  1.0000
  H   H24       1.0  0.41871  0.16346  0.51552  1.0000
  H   H25       1.0  0.30608  0.50662  0.85146  1.0000
  H   H26       1.0  0.66416  0.99329  0.64856  1.0000
  H   H27       1.0  0.69392  0.49338  0.14854  1.0000
  H   H28       1.0  0.33584  0.00671  0.35144  1.0000
  H   H29       1.0  0.49251  0.42428  0.91188  1.0000
  H   H30       1.0  0.82866  0.07565  0.58819  1.0000
  H   H31       1.0  0.50749  0.57572  0.08812  1.0000
  H   H32       1.0  0.17134  0.92435  0.41181  1.0000
  C   C1        1.0  0.41498  0.55083  0.52938  1.0000
  C   C2        1.0  0.49523  0.94920  0.97056  1.0000
  C   C3        1.0  0.58502  0.44918  0.47061  1.0000
  C   C4        1.0  0.50477  0.05080  0.02944  1.0000
  C   C5        1.0  0.47066  0.60725  0.60614  1.0000
  C   C6        1.0  0.68412  0.89278  0.89388  1.0000
  C   C7        1.0  0.52934  0.39275  0.39386  1.0000
  C   C8        1.0  0.31587  0.10722  0.10612  1.0000
  C   C9        1.0  0.24147  0.73157  0.96267  1.0000
  C   C10       1.0  0.93565  0.76852  0.53728  1.0000
  C   C11       1.0  0.75853  0.26843  0.03733  1.0000
  C   C12       1.0  0.06436  0.23148  0.46272  1.0000
  C   C13       1.0  0.07436  0.75613  0.06355  1.0000
  C   C14       1.0  0.89400  0.74391  0.43641  1.0000
  C   C15       1.0  0.92564  0.24387  0.93645  1.0000
  C   C16       1.0  0.10600  0.25609  0.56359  1.0000
  C   C17       1.0  0.03512  0.51269  0.14698  1.0000
  C   C18       1.0  0.69491  0.98734  0.35292  1.0000
  C   C19       1.0  0.96488  0.48731  0.85302  1.0000
  C   C20       1.0  0.30509  0.01266  0.64708  1.0000
  C   C21       1.0  0.94414  0.66249  0.09214  1.0000
  C   C22       1.0  0.69878  0.83752  0.40773  1.0000
  C   C23       1.0  0.05587  0.33751  0.90786  1.0000
  C   C24       1.0  0.30122  0.16248  0.59227  1.0000
  O   O1        1.0  0.21205  0.76599  0.86081  1.0000
  O   O2        1.0  0.83876  0.73406  0.63915  1.0000
  O   O3        1.0  0.78795  0.23401  0.13920  1.0000
  O   O4        1.0  0.16124  0.26594  0.36085  1.0000
  O   O5        1.0  0.20425  0.48130  0.16207  1.0000
  O   O6        1.0  0.84779  0.01866  0.33779  1.0000
  O   O7        1.0  0.79575  0.51869  0.83793  1.0000
  O   O8        1.0  0.15221  0.98134  0.66222  1.0000
  O   O9        1.0  0.44613  0.49043  0.84369  1.0000
  O   O10       1.0  0.78023  0.00947  0.65636  1.0000
  O   O11       1.0  0.55387  0.50958  0.15631  1.0000
  O   O12       1.0  0.21977  0.99053  0.34364  1.0000
  O   O13       1.0  0.34012  0.69697  0.66053  1.0000
  O   O14       1.0  0.69775  0.80299  0.83951  1.0000
  O   O15       1.0  0.65988  0.30303  0.33947  1.0000
  O   O16       1.0  0.30225  0.19701  0.16049  1.0000
  O   O17       1.0  0.93464  0.42815  0.17412  1.0000
  O   O18       1.0  0.53698  0.07193  0.32593  1.0000
  O   O19       1.0  0.06536  0.57185  0.82588  1.0000
  O   O20       1.0  0.46302  0.92807  0.67407  1.0000
  O   O21       1.0  0.41587  0.67992  0.97428  1.0000
  O   O22       1.0  0.06994  0.82021  0.52572  1.0000
  O   O23       1.0  0.58413  0.32008  0.02572  1.0000
  O   O24       1.0  0.93006  0.17979  0.47428  1.0000
  O   O25       1.0  0.64218  0.56943  0.61925  1.0000
  O   O26       1.0  0.83088  0.93063  0.88083  1.0000
  O   O27       1.0  0.35782  0.43058  0.38075  1.0000
  O   O28       1.0  0.16912  0.06937  0.11917  1.0000
