data_image0
_chemical_formula_structural       Ag4H28C32N8O16
_chemical_formula_sum              "Ag4 H28 C32 N8 O16"
_cell_length_a       7.12511
_cell_length_b       10.3347
_cell_length_c       12.7583
_cell_angle_alpha    109.74
_cell_angle_beta     89.9999
_cell_angle_gamma    90.0004

_space_group_name_H-M_alt    "P 1"
_space_group_IT_number       1

loop_
  _space_group_symop_operation_xyz
  'x, y, z'

loop_
  _atom_site_type_symbol
  _atom_site_label
  _atom_site_symmetry_multiplicity
  _atom_site_fract_x
  _atom_site_fract_y
  _atom_site_fract_z
  _atom_site_occupancy
  Ag  Ag1       1.0  0.95055  0.42455  0.87864  1.0000
  Ag  Ag2       1.0  0.45054  0.57545  0.62136  1.0000
  Ag  Ag3       1.0  0.04945  0.57546  0.12136  1.0000
  Ag  Ag4       1.0  0.54946  0.42455  0.37864  1.0000
  H   H1        1.0  0.62424  0.63603  0.88905  1.0000
  H   H2        1.0  0.12424  0.36397  0.61095  1.0000
  H   H3        1.0  0.37574  0.36398  0.11095  1.0000
  H   H4        1.0  0.87576  0.63603  0.38905  1.0000
  H   H5        1.0  0.62953  0.21242  0.81507  1.0000
  H   H6        1.0  0.12953  0.78758  0.68493  1.0000
  H   H7        1.0  0.37048  0.78758  0.18493  1.0000
  H   H8        1.0  0.87048  0.21242  0.31507  1.0000
  H   H9        1.0  0.27699  0.20930  0.81772  1.0000
  H   H10       1.0  0.77699  0.79070  0.68228  1.0000
  H   H11       1.0  0.72301  0.79069  0.18228  1.0000
  H   H12       1.0  0.22302  0.20930  0.31772  1.0000
  H   H13       1.0  0.26916  0.63315  0.88735  1.0000
  H   H14       1.0  0.76916  0.36685  0.61265  1.0000
  H   H15       1.0  0.73082  0.36684  0.11265  1.0000
  H   H16       1.0  0.23084  0.63315  0.38735  1.0000
  H   H17       1.0  0.11640  0.06625  0.10653  1.0000
  H   H18       1.0  0.61639  0.93376  0.39347  1.0000
  H   H19       1.0  0.88361  0.93376  0.89348  1.0000
  H   H20       1.0  0.38361  0.06624  0.60652  1.0000
  H   H21       1.0  0.95952  0.09127  0.81654  1.0000
  H   H22       1.0  0.45951  0.90873  0.68346  1.0000
  H   H23       1.0  0.04048  0.90874  0.18346  1.0000
  H   H24       1.0  0.54048  0.09127  0.31654  1.0000
  H   H25       1.0  0.07493  0.88240  0.53739  1.0000
  H   H26       1.0  0.57493  0.11760  0.96261  1.0000
  H   H27       1.0  0.92508  0.11760  0.46261  1.0000
  H   H28       1.0  0.42508  0.88240  0.03739  1.0000
  C   C1        1.0  0.54504  0.54113  0.87346  1.0000
  C   C2        1.0  0.04504  0.45887  0.62654  1.0000
  C   C3        1.0  0.45495  0.45887  0.12654  1.0000
  C   C4        1.0  0.95496  0.54113  0.37346  1.0000
  C   C5        1.0  0.54876  0.30669  0.83349  1.0000
  C   C6        1.0  0.04876  0.69331  0.66651  1.0000
  C   C7        1.0  0.45123  0.69331  0.16650  1.0000
  C   C8        1.0  0.95124  0.30669  0.33349  1.0000
  C   C9        1.0  0.35382  0.30518  0.83405  1.0000
  C   C10       1.0  0.85382  0.69482  0.66595  1.0000
  C   C11       1.0  0.64618  0.69482  0.16595  1.0000
  C   C12       1.0  0.14618  0.30518  0.33405  1.0000
  C   C13       1.0  0.34956  0.53930  0.87292  1.0000
  C   C14       1.0  0.84956  0.46070  0.62708  1.0000
  C   C15       1.0  0.65043  0.46070  0.12708  1.0000
  C   C16       1.0  0.15045  0.53930  0.37292  1.0000
  C   C17       1.0  0.01158  0.19415  0.01328  1.0000
  C   C18       1.0  0.51158  0.80585  0.48672  1.0000
  C   C19       1.0  0.98842  0.80585  0.98673  1.0000
  C   C20       1.0  0.48843  0.19415  0.51327  1.0000
  C   C21       1.0  0.03604  0.06015  0.03239  1.0000
  C   C22       1.0  0.53603  0.93986  0.46761  1.0000
  C   C23       1.0  0.96397  0.93986  0.96761  1.0000
  C   C24       1.0  0.46397  0.06014  0.53239  1.0000
  C   C25       1.0  0.96135  0.07522  0.65764  1.0000
  C   C26       1.0  0.46135  0.92477  0.84236  1.0000
  C   C27       1.0  0.03865  0.92478  0.34236  1.0000
  C   C28       1.0  0.53865  0.07522  0.15764  1.0000
  C   C29       1.0  0.01283  0.98164  0.54506  1.0000
  C   C30       1.0  0.51283  0.01836  0.95494  1.0000
  C   C31       1.0  0.98717  0.01837  0.45495  1.0000
  C   C32       1.0  0.48717  0.98164  0.04505  1.0000
  N   N1        1.0  0.64446  0.42517  0.85620  1.0000
  N   N2        1.0  0.14446  0.57483  0.64380  1.0000
  N   N3        1.0  0.35553  0.57483  0.14380  1.0000
  N   N4        1.0  0.85554  0.42517  0.35620  1.0000
  N   N5        1.0  0.25396  0.42177  0.85599  1.0000
  N   N6        1.0  0.75396  0.57822  0.64401  1.0000
  N   N7        1.0  0.74603  0.57822  0.14400  1.0000
  N   N8        1.0  0.24604  0.42177  0.35600  1.0000
  O   O1        1.0  0.07212  0.30020  0.08775  1.0000
  O   O2        1.0  0.57212  0.69980  0.41225  1.0000
  O   O3        1.0  0.92788  0.69980  0.91226  1.0000
  O   O4        1.0  0.42788  0.30020  0.58774  1.0000
  O   O5        1.0  0.92803  0.19539  0.92349  1.0000
  O   O6        1.0  0.42803  0.80460  0.57651  1.0000
  O   O7        1.0  0.07197  0.80461  0.07652  1.0000
  O   O8        1.0  0.57197  0.19539  0.42348  1.0000
  O   O9        1.0  0.89709  0.19179  0.67529  1.0000
  O   O10       1.0  0.39709  0.80821  0.82471  1.0000
  O   O11       1.0  0.10291  0.80821  0.32471  1.0000
  O   O12       1.0  0.60290  0.19179  0.17529  1.0000
  O   O13       1.0  0.99330  0.02024  0.73646  1.0000
  O   O14       1.0  0.49329  0.97976  0.76354  1.0000
  O   O15       1.0  0.00671  0.97976  0.26354  1.0000
  O   O16       1.0  0.50670  0.02024  0.23646  1.0000
