data_image0
_chemical_formula_structural       Tb2H26C28N4O22
_chemical_formula_sum              "Tb2 H26 C28 N4 O22"
_cell_length_a       7.60424
_cell_length_b       9.79284
_cell_length_c       11.6693
_cell_angle_alpha    105.256
_cell_angle_beta     99.885
_cell_angle_gamma    102.208

_space_group_name_H-M_alt    "P 1"
_space_group_IT_number       1

loop_
  _space_group_symop_operation_xyz
  'x, y, z'

loop_
  _atom_site_type_symbol
  _atom_site_label
  _atom_site_symmetry_multiplicity
  _atom_site_fract_x
  _atom_site_fract_y
  _atom_site_fract_z
  _atom_site_occupancy
  Tb  Tb1       1.0  0.31370  0.88622  0.26302  1.0000
  Tb  Tb2       1.0  0.68630  0.11378  0.73698  1.0000
  H   H1        1.0  0.04808  0.85759  0.42991  1.0000
  H   H2        1.0  0.95191  0.14241  0.57009  1.0000
  H   H3        1.0  0.02946  0.98522  0.37483  1.0000
  H   H4        1.0  0.97054  0.01478  0.62518  1.0000
  H   H5        1.0  0.29595  0.91797  0.00437  1.0000
  H   H6        1.0  0.70405  0.08203  0.99564  1.0000
  H   H7        1.0  0.46306  0.84422  0.03116  1.0000
  H   H8        1.0  0.53694  0.15578  0.96884  1.0000
  H   H9        1.0  0.74036  0.05542  0.35377  1.0000
  H   H10       1.0  0.25964  0.94458  0.64623  1.0000
  H   H11       1.0  0.67712  0.00434  0.21211  1.0000
  H   H12       1.0  0.32288  0.99566  0.78789  1.0000
  H   H13       1.0  0.01964  0.67076  0.98698  1.0000
  H   H14       1.0  0.98036  0.32925  0.01302  1.0000
  H   H15       1.0  0.29754  0.61936  0.89394  1.0000
  H   H16       1.0  0.70246  0.38064  0.10607  1.0000
  H   H17       1.0  0.33863  0.44178  0.85612  1.0000
  H   H18       1.0  0.66138  0.55822  0.14388  1.0000
  H   H19       1.0  0.52791  0.75713  0.74553  1.0000
  H   H20       1.0  0.47209  0.24286  0.25447  1.0000
  H   H21       1.0  0.16164  0.32397  0.65150  1.0000
  H   H22       1.0  0.83835  0.67603  0.34850  1.0000
  H   H23       1.0  0.22763  0.53358  0.37241  1.0000
  H   H24       1.0  0.77238  0.46642  0.62759  1.0000
  H   H25       1.0  0.95608  0.18541  0.22821  1.0000
  H   H26       1.0  0.04392  0.81459  0.77178  1.0000
  C   C1        1.0  0.91829  0.94535  0.10281  1.0000
  C   C2        1.0  0.08171  0.05466  0.89719  1.0000
  C   C3        1.0  0.81141  0.79900  0.01754  1.0000
  C   C4        1.0  0.18859  0.20100  0.98246  1.0000
  C   C5        1.0  0.87818  0.67776  0.97058  1.0000
  C   C6        1.0  0.12182  0.32224  0.02942  1.0000
  C   C7        1.0  0.72218  0.56476  0.90209  1.0000
  C   C8        1.0  0.27781  0.43524  0.09791  1.0000
  C   C9        1.0  0.37751  0.55162  0.84672  1.0000
  C   C10       1.0  0.62249  0.44838  0.15329  1.0000
  C   C11       1.0  0.70773  0.40872  0.84048  1.0000
  C   C12       1.0  0.29226  0.59128  0.15952  1.0000
  C   C13       1.0  0.34311  0.54264  0.71311  1.0000
  C   C14       1.0  0.65689  0.45736  0.28689  1.0000
  C   C15       1.0  0.42905  0.66034  0.67797  1.0000
  C   C16       1.0  0.57095  0.33966  0.32203  1.0000
  C   C17       1.0  0.22260  0.41768  0.62407  1.0000
  C   C18       1.0  0.77739  0.58232  0.37593  1.0000
  C   C19       1.0  0.38803  0.65769  0.55575  1.0000
  C   C20       1.0  0.61197  0.34230  0.44425  1.0000
  C   C21       1.0  0.18272  0.41293  0.50079  1.0000
  C   C22       1.0  0.81728  0.58707  0.49921  1.0000
  C   C23       1.0  0.47507  0.79112  0.52414  1.0000
  C   C24       1.0  0.52496  0.20888  0.47588  1.0000
  C   C25       1.0  0.26269  0.53471  0.46711  1.0000
  C   C26       1.0  0.73732  0.46529  0.53289  1.0000
  C   C27       1.0  0.05701  0.27883  0.40632  1.0000
  C   C28       1.0  0.94298  0.72116  0.59368  1.0000
  N   N1        1.0  0.62454  0.76338  0.97809  1.0000
  N   N2        1.0  0.37546  0.23662  0.02191  1.0000
  N   N3        1.0  0.57224  0.62155  0.91063  1.0000
  N   N4        1.0  0.42776  0.37845  0.08937  1.0000
  O   O1        1.0  0.37826  0.11969  0.40123  1.0000
  O   O2        1.0  0.62174  0.88031  0.59877  1.0000
  O   O3        1.0  0.05043  0.88681  0.35485  1.0000
  O   O4        1.0  0.94957  0.11319  0.64515  1.0000
  O   O5        1.0  0.36395  0.88235  0.06544  1.0000
  O   O6        1.0  0.63605  0.11765  0.93456  1.0000
  O   O7        1.0  0.63154  0.99979  0.28577  1.0000
  O   O8        1.0  0.36846  0.00021  0.71423  1.0000
  O   O9        1.0  0.08647  0.96496  0.15191  1.0000
  O   O10       1.0  0.91353  0.03504  0.84808  1.0000
  O   O11       1.0  0.39426  0.80960  0.42732  1.0000
  O   O12       1.0  0.60574  0.19040  0.57267  1.0000
  O   O13       1.0  0.45028  0.68498  0.19388  1.0000
  O   O14       1.0  0.54973  0.31502  0.80612  1.0000
  O   O15       1.0  0.14358  0.62827  0.17296  1.0000
  O   O16       1.0  0.85642  0.37173  0.82704  1.0000
  O   O17       1.0  0.83418  0.04793  0.12426  1.0000
  O   O18       1.0  0.16582  0.95207  0.87574  1.0000
  O   O19       1.0  0.03600  0.28384  0.29375  1.0000
  O   O20       1.0  0.96400  0.71616  0.70625  1.0000
  O   O21       1.0  0.97645  0.16867  0.43242  1.0000
  O   O22       1.0  0.02355  0.83133  0.56758  1.0000
