data_image0
_chemical_formula_structural       Cu2H30C46N8O12
_chemical_formula_sum              "Cu2 H30 C46 N8 O12"
_cell_length_a       9.02224
_cell_length_b       9.00335
_cell_length_c       13.3868
_cell_angle_alpha    101.973
_cell_angle_beta     101.439
_cell_angle_gamma    106.181

_space_group_name_H-M_alt    "P 1"
_space_group_IT_number       1

loop_
  _space_group_symop_operation_xyz
  'x, y, z'

loop_
  _atom_site_type_symbol
  _atom_site_label
  _atom_site_symmetry_multiplicity
  _atom_site_fract_x
  _atom_site_fract_y
  _atom_site_fract_z
  _atom_site_occupancy
  Cu  Cu1       1.0  0.50000  0.00000  0.50000  1.0000
  Cu  Cu2       1.0  0.00000  0.00000  0.50000  1.0000
  H   H1        1.0  0.66885  0.73482  0.43560  1.0000
  H   H2        1.0  0.33115  0.26519  0.56441  1.0000
  H   H3        1.0  0.54841  0.46242  0.30426  1.0000
  H   H4        1.0  0.45158  0.53759  0.69574  1.0000
  H   H5        1.0  0.70468  0.36957  0.18537  1.0000
  H   H6        1.0  0.29532  0.63043  0.81463  1.0000
  H   H7        1.0  0.06673  0.83973  0.31829  1.0000
  H   H8        1.0  0.93327  0.16027  0.68172  1.0000
  H   H9        1.0  0.86953  0.16182  0.95606  1.0000
  H   H10       1.0  0.13046  0.83818  0.04394  1.0000
  H   H11       1.0  0.02662  0.03328  0.85643  1.0000
  H   H12       1.0  0.97338  0.96672  0.14357  1.0000
  H   H13       1.0  0.46119  0.40832  0.05229  1.0000
  H   H14       1.0  0.53881  0.59168  0.94771  1.0000
  H   H15       1.0  0.30312  0.53795  0.14979  1.0000
  H   H16       1.0  0.69688  0.46205  0.85021  1.0000
  H   H17       1.0  0.44451  0.14664  0.70331  1.0000
  H   H18       1.0  0.55550  0.85337  0.29670  1.0000
  H   H19       1.0  0.65484  0.93578  0.93007  1.0000
  H   H20       1.0  0.34515  0.06421  0.06993  1.0000
  H   H21       1.0  0.75281  0.79494  0.78774  1.0000
  H   H22       1.0  0.24718  0.20505  0.21226  1.0000
  H   H23       1.0  0.69394  0.84387  0.60933  1.0000
  H   H24       1.0  0.30607  0.15614  0.39067  1.0000
  H   H25       1.0  0.81812  0.52724  0.61433  1.0000
  H   H26       1.0  0.18187  0.47275  0.38567  1.0000
  H   H27       1.0  0.85635  0.35371  0.08580  1.0000
  H   H28       1.0  0.14365  0.64629  0.91420  1.0000
  H   H29       1.0  0.26138  0.03695  0.82235  1.0000
  H   H30       1.0  0.73863  0.96305  0.17766  1.0000
  C   C1        1.0  0.72973  0.69445  0.37820  1.0000
  C   C2        1.0  0.27027  0.30556  0.62180  1.0000
  C   C3        1.0  0.66442  0.54261  0.30533  1.0000
  C   C4        1.0  0.33558  0.45739  0.69467  1.0000
  C   C5        1.0  0.75170  0.49184  0.23801  1.0000
  C   C6        1.0  0.24829  0.50817  0.76198  1.0000
  C   C7        1.0  0.90038  0.59925  0.24273  1.0000
  C   C8        1.0  0.09962  0.40075  0.75727  1.0000
  C   C9        1.0  0.95283  0.75290  0.31397  1.0000
  C   C10       1.0  0.04717  0.24710  0.68603  1.0000
  C   C11       1.0  0.02268  0.56324  0.18908  1.0000
  C   C12       1.0  0.97731  0.43676  0.81092  1.0000
  C   C13       1.0  0.07505  0.35737  0.06052  1.0000
  C   C14       1.0  0.92494  0.64262  0.93948  1.0000
  C   C15       1.0  0.99948  0.21466  0.97746  1.0000
  C   C16       1.0  0.00052  0.78533  0.02254  1.0000
  C   C17       1.0  0.08710  0.14310  0.92163  1.0000
  C   C18       1.0  0.91289  0.85690  0.07838  1.0000
  C   C19       1.0  0.25496  0.21193  0.94778  1.0000
  C   C20       1.0  0.74504  0.78807  0.05222  1.0000
  C   C21       1.0  0.33154  0.35420  0.03090  1.0000
  C   C22       1.0  0.66846  0.64579  0.96910  1.0000
  C   C23       1.0  0.24308  0.42663  0.08666  1.0000
  C   C24       1.0  0.75692  0.57337  0.91334  1.0000
  C   C25       1.0  0.49360  0.14644  0.91347  1.0000
  C   C26       1.0  0.50640  0.85357  0.08653  1.0000
  C   C27       1.0  0.51259  0.07040  0.72558  1.0000
  C   C28       1.0  0.48742  0.92961  0.27442  1.0000
  C   C29       1.0  0.54307  0.05247  0.82786  1.0000
  C   C30       1.0  0.45694  0.94754  0.17214  1.0000
  C   C31       1.0  0.63052  0.95225  0.85109  1.0000
  C   C32       1.0  0.36948  0.04775  0.14891  1.0000
  C   C33       1.0  0.68454  0.87413  0.77224  1.0000
  C   C34       1.0  0.31546  0.12586  0.22776  1.0000
  C   C35       1.0  0.65072  0.89956  0.67247  1.0000
  C   C36       1.0  0.34929  0.10044  0.32753  1.0000
  C   C37       1.0  0.95359  0.18916  0.35575  1.0000
  C   C38       1.0  0.04641  0.81084  0.64425  1.0000
  C   C39       1.0  0.74942  0.22140  0.50274  1.0000
  C   C40       1.0  0.25058  0.77860  0.49726  1.0000
  C   C41       1.0  0.97779  0.34743  0.43334  1.0000
  C   C42       1.0  0.02221  0.65256  0.56665  1.0000
  C   C43       1.0  0.87588  0.36538  0.49874  1.0000
  C   C44       1.0  0.12413  0.63461  0.50126  1.0000
  C   C45       1.0  0.89796  0.51730  0.56377  1.0000
  C   C46       1.0  0.10204  0.48269  0.43622  1.0000
  N   N1        1.0  0.87274  0.79787  0.38219  1.0000
  N   N2        1.0  0.12726  0.20214  0.61781  1.0000
  N   N3        1.0  0.56653  0.99606  0.65013  1.0000
  N   N4        1.0  0.43348  0.00394  0.34987  1.0000
  N   N5        1.0  0.97568  0.42056  0.11228  1.0000
  N   N6        1.0  0.02432  0.57944  0.88772  1.0000
  N   N7        1.0  0.33600  0.13380  0.88676  1.0000
  N   N8        1.0  0.66401  0.86620  0.11325  1.0000
  O   O1        1.0  0.62549  0.23982  0.52995  1.0000
  O   O2        1.0  0.37451  0.76018  0.47004  1.0000
  O   O3        1.0  0.76674  0.08416  0.47862  1.0000
  O   O4        1.0  0.23326  0.91583  0.52138  1.0000
  O   O5        1.0  0.04145  0.10549  0.38365  1.0000
  O   O6        1.0  0.95854  0.89450  0.61635  1.0000
  O   O7        1.0  0.85859  0.15488  0.26556  1.0000
  O   O8        1.0  0.14141  0.84512  0.73444  1.0000
  O   O9        1.0  0.16179  0.66007  0.21909  1.0000
  O   O10       1.0  0.83821  0.33993  0.78091  1.0000
  O   O11       1.0  0.59381  0.22746  0.00001  1.0000
  O   O12       1.0  0.40620  0.77257  0.99999  1.0000
