data_image0
_chemical_formula_structural       Dy2H26C28N4O22
_chemical_formula_sum              "Dy2 H26 C28 N4 O22"
_cell_length_a       7.42812
_cell_length_b       10.0038
_cell_length_c       11.7304
_cell_angle_alpha    107.364
_cell_angle_beta     99.804
_cell_angle_gamma    101.28

_space_group_name_H-M_alt    "P 1"
_space_group_IT_number       1

loop_
  _space_group_symop_operation_xyz
  'x, y, z'

loop_
  _atom_site_type_symbol
  _atom_site_label
  _atom_site_symmetry_multiplicity
  _atom_site_fract_x
  _atom_site_fract_y
  _atom_site_fract_z
  _atom_site_occupancy
  Dy  Dy1       1.0  0.32121  0.88214  0.76614  1.0000
  Dy  Dy2       1.0  0.67879  0.11786  0.23387  1.0000
  H   H1        1.0  0.70720  0.86774  0.78526  1.0000
  H   H2        1.0  0.29281  0.13226  0.21474  1.0000
  H   H3        1.0  0.76530  0.03936  0.84007  1.0000
  H   H4        1.0  0.23470  0.96064  0.15992  1.0000
  H   H5        1.0  0.05013  0.99269  0.88940  1.0000
  H   H6        1.0  0.94987  0.00731  0.11060  1.0000
  H   H7        1.0  0.06325  0.86544  0.94249  1.0000
  H   H8        1.0  0.93675  0.13456  0.05751  1.0000
  H   H9        1.0  0.29325  0.92550  0.51716  1.0000
  H   H10       1.0  0.70675  0.07450  0.48284  1.0000
  H   H11       1.0  0.47143  0.85983  0.54063  1.0000
  H   H12       1.0  0.52857  0.14017  0.45937  1.0000
  H   H13       1.0  0.01760  0.66517  0.49105  1.0000
  H   H14       1.0  0.98240  0.33483  0.50895  1.0000
  H   H15       1.0  0.32017  0.45437  0.35505  1.0000
  H   H16       1.0  0.67983  0.54563  0.64495  1.0000
  H   H17       1.0  0.28433  0.63193  0.39173  1.0000
  H   H18       1.0  0.71566  0.36807  0.60827  1.0000
  H   H19       1.0  0.15040  0.32781  0.14352  1.0000
  H   H20       1.0  0.84960  0.67219  0.85648  1.0000
  H   H21       1.0  0.50708  0.76076  0.24776  1.0000
  H   H22       1.0  0.49291  0.23925  0.75224  1.0000
  H   H23       1.0  0.22595  0.52449  0.86770  1.0000
  H   H24       1.0  0.77405  0.47551  0.13230  1.0000
  H   H25       1.0  0.95401  0.17776  0.71248  1.0000
  H   H26       1.0  0.04599  0.82224  0.28752  1.0000
  C   C1        1.0  0.92127  0.94613  0.60262  1.0000
  C   C2        1.0  0.07873  0.05387  0.39738  1.0000
  C   C3        1.0  0.81021  0.80038  0.51647  1.0000
  C   C4        1.0  0.18978  0.19962  0.48352  1.0000
  C   C5        1.0  0.87480  0.67624  0.47265  1.0000
  C   C6        1.0  0.12520  0.32376  0.52735  1.0000
  C   C7        1.0  0.71373  0.56591  0.40381  1.0000
  C   C8        1.0  0.28627  0.43409  0.59619  1.0000
  C   C9        1.0  0.69798  0.41028  0.34421  1.0000
  C   C10       1.0  0.30202  0.58972  0.65580  1.0000
  C   C11       1.0  0.36367  0.56019  0.34477  1.0000
  C   C12       1.0  0.63633  0.43981  0.65524  1.0000
  C   C13       1.0  0.33030  0.54554  0.21022  1.0000
  C   C14       1.0  0.66970  0.45446  0.78978  1.0000
  C   C15       1.0  0.21423  0.41910  0.11835  1.0000
  C   C16       1.0  0.78577  0.58090  0.88165  1.0000
  C   C17       1.0  0.41359  0.66189  0.17757  1.0000
  C   C18       1.0  0.58641  0.33811  0.82243  1.0000
  C   C19       1.0  0.17855  0.41006  0.99437  1.0000
  C   C20       1.0  0.82145  0.58994  0.00562  1.0000
  C   C21       1.0  0.37634  0.65498  0.05483  1.0000
  C   C22       1.0  0.62366  0.34502  0.94517  1.0000
  C   C23       1.0  0.05487  0.27562  0.89624  1.0000
  C   C24       1.0  0.94513  0.72438  0.10376  1.0000
  C   C25       1.0  0.25772  0.52927  0.96307  1.0000
  C   C26       1.0  0.74228  0.47073  0.03693  1.0000
  C   C27       1.0  0.45804  0.78645  0.02518  1.0000
  C   C28       1.0  0.54197  0.21355  0.97482  1.0000
  N   N1        1.0  0.62023  0.76883  0.47498  1.0000
  N   N2        1.0  0.37977  0.23117  0.52501  1.0000
  N   N3        1.0  0.56302  0.62669  0.40953  1.0000
  N   N4        1.0  0.43698  0.37331  0.59047  1.0000
  O   O1        1.0  0.38361  0.79423  0.92313  1.0000
  O   O2        1.0  0.61639  0.20577  0.07687  1.0000
  O   O3        1.0  0.65671  0.95199  0.80887  1.0000
  O   O4        1.0  0.34329  0.04801  0.19113  1.0000
  O   O5        1.0  0.06001  0.89184  0.86741  1.0000
  O   O6        1.0  0.93999  0.10816  0.13259  1.0000
  O   O7        1.0  0.37139  0.89673  0.57851  1.0000
  O   O8        1.0  0.62861  0.10326  0.42149  1.0000
  O   O9        1.0  0.40499  0.11608  0.89309  1.0000
  O   O10       1.0  0.59501  0.88392  0.10691  1.0000
  O   O11       1.0  0.08212  0.95802  0.66680  1.0000
  O   O12       1.0  0.91788  0.04198  0.33320  1.0000
  O   O13       1.0  0.15064  0.62887  0.66823  1.0000
  O   O14       1.0  0.84936  0.37113  0.33177  1.0000
  O   O15       1.0  0.46340  0.68155  0.68994  1.0000
  O   O16       1.0  0.53660  0.31845  0.31006  1.0000
  O   O17       1.0  0.84830  0.05386  0.60971  1.0000
  O   O18       1.0  0.15170  0.94614  0.39028  1.0000
  O   O19       1.0  0.03444  0.27844  0.78476  1.0000
  O   O20       1.0  0.96556  0.72156  0.21524  1.0000
  O   O21       1.0  0.97499  0.16760  0.92120  1.0000
  O   O22       1.0  0.02501  0.83240  0.07880  1.0000
