data_image0
_chemical_formula_structural       MnH24C26S2N6O2
_chemical_formula_sum              "Mn1 H24 C26 S2 N6 O2"
_cell_length_a       5.64441
_cell_length_b       8.55923
_cell_length_c       12.9875
_cell_angle_alpha    87.1251
_cell_angle_beta     85.6132
_cell_angle_gamma    75.0588

_space_group_name_H-M_alt    "P 1"
_space_group_IT_number       1

loop_
  _space_group_symop_operation_xyz
  'x, y, z'

loop_
  _atom_site_type_symbol
  _atom_site_label
  _atom_site_symmetry_multiplicity
  _atom_site_fract_x
  _atom_site_fract_y
  _atom_site_fract_z
  _atom_site_occupancy
  Mn  Mn1       1.0  0.99998  0.00000  0.50001  1.0000
  H   H1        1.0  0.65566  0.78854  0.37581  1.0000
  H   H2        1.0  0.34432  0.21146  0.62419  1.0000
  H   H3        1.0  0.38053  0.64203  0.46955  1.0000
  H   H4        1.0  0.61946  0.35798  0.53045  1.0000
  H   H5        1.0  0.28281  0.39196  0.36244  1.0000
  H   H6        1.0  0.71720  0.60804  0.63756  1.0000
  H   H7        1.0  0.61092  0.54814  0.29259  1.0000
  H   H8        1.0  0.38908  0.45185  0.70741  1.0000
  H   H9        1.0  0.79244  0.36318  0.34236  1.0000
  H   H10       1.0  0.20757  0.63681  0.65764  1.0000
  H   H11       1.0  0.93679  0.54214  0.14514  1.0000
  H   H12       1.0  0.06321  0.45786  0.85486  1.0000
  H   H13       1.0  0.10839  0.35626  0.19350  1.0000
  H   H14       1.0  0.89161  0.64374  0.80650  1.0000
  H   H15       1.0  0.25397  0.19713  0.07604  1.0000
  H   H16       1.0  0.74605  0.80287  0.92396  1.0000
  H   H17       1.0  0.41315  0.05613  0.91269  1.0000
  H   H18       1.0  0.58687  0.94388  0.08730  1.0000
  H   H19       1.0  0.13484  0.06166  0.77331  1.0000
  H   H20       1.0  0.86517  0.93833  0.22669  1.0000
  H   H21       1.0  0.69506  0.21295  0.79468  1.0000
  H   H22       1.0  0.30495  0.78705  0.20532  1.0000
  H   H23       1.0  0.52953  0.34389  0.96217  1.0000
  H   H24       1.0  0.47049  0.65611  0.03782  1.0000
  C   C1        1.0  0.84091  0.71738  0.38801  1.0000
  C   C2        1.0  0.15908  0.28263  0.61199  1.0000
  C   C3        1.0  0.21645  0.63526  0.43365  1.0000
  C   C4        1.0  0.78354  0.36475  0.56634  1.0000
  C   C5        1.0  0.17090  0.51109  0.38189  1.0000
  C   C6        1.0  0.82910  0.48893  0.61811  1.0000
  C   C7        1.0  0.80003  0.47425  0.29735  1.0000
  C   C8        1.0  0.19997  0.52575  0.70265  1.0000
  C   C9        1.0  0.91944  0.43207  0.18986  1.0000
  C   C10       1.0  0.08056  0.56792  0.81014  1.0000
  C   C11       1.0  0.76851  0.35120  0.12937  1.0000
  C   C12       1.0  0.23151  0.64880  0.87063  1.0000
  C   C13       1.0  0.87914  0.27806  0.02957  1.0000
  C   C14       1.0  0.12086  0.72194  0.97043  1.0000
  C   C15       1.0  0.13023  0.20011  0.01496  1.0000
  C   C16       1.0  0.86977  0.79990  0.98504  1.0000
  C   C17       1.0  0.22012  0.12109  0.92316  1.0000
  C   C18       1.0  0.77989  0.87891  0.07684  1.0000
  C   C19       1.0  0.06343  0.12457  0.84444  1.0000
  C   C20       1.0  0.93659  0.87543  0.15556  1.0000
  C   C21       1.0  0.81560  0.20824  0.85699  1.0000
  C   C22       1.0  0.18441  0.79176  0.14301  1.0000
  C   C23       1.0  0.72323  0.28205  0.94977  1.0000
  C   C24       1.0  0.27678  0.71795  0.05023  1.0000
  C   C25       1.0  0.50341  0.09068  0.38125  1.0000
  C   C26       1.0  0.49659  0.90932  0.61876  1.0000
  S   S1        1.0  0.27019  0.06371  0.32536  1.0000
  S   S2        1.0  0.72978  0.93628  0.67465  1.0000
  N   N1        1.0  0.00947  0.76392  0.43696  1.0000
  N   N2        1.0  0.99052  0.23609  0.56304  1.0000
  N   N3        1.0  0.93211  0.56512  0.35351  1.0000
  N   N4        1.0  0.06789  0.43488  0.64649  1.0000
  N   N5        1.0  0.67535  0.10855  0.42238  1.0000
  N   N6        1.0  0.32462  0.89144  0.57763  1.0000
  O   O1        1.0  0.55569  0.35011  0.15944  1.0000
  O   O2        1.0  0.44431  0.64989  0.84055  1.0000
