data_image0
_chemical_formula_structural       Tm2H32C36N6O16
_chemical_formula_sum              "Tm2 H32 C36 N6 O16"
_cell_length_a       9.54941
_cell_length_b       11.4174
_cell_length_c       11.5477
_cell_angle_alpha    119.629
_cell_angle_beta     109.971
_cell_angle_gamma    89.9986

_space_group_name_H-M_alt    "P 1"
_space_group_IT_number       1

loop_
  _space_group_symop_operation_xyz
  'x, y, z'

loop_
  _atom_site_type_symbol
  _atom_site_label
  _atom_site_symmetry_multiplicity
  _atom_site_fract_x
  _atom_site_fract_y
  _atom_site_fract_z
  _atom_site_occupancy
  Tm  Tm1       1.0  0.75000  0.53206  0.00000  1.0000
  Tm  Tm2       1.0  0.25001  0.46794  1.00000  1.0000
  H   H1        1.0  0.85259  0.32206  0.07639  1.0000
  H   H2        1.0  0.64741  0.24568  0.92362  1.0000
  H   H3        1.0  0.14741  0.67795  0.92361  1.0000
  H   H4        1.0  0.35260  0.75433  0.07638  1.0000
  H   H5        1.0  0.00341  0.41759  0.11972  1.0000
  H   H6        1.0  0.49659  0.29787  0.88026  1.0000
  H   H7        1.0  0.99659  0.58241  0.88028  1.0000
  H   H8        1.0  0.50341  0.70213  0.11974  1.0000
  H   H9        1.0  0.09666  0.31922  0.61705  1.0000
  H   H10       1.0  0.40333  0.70216  0.38294  1.0000
  H   H11       1.0  0.90334  0.68077  0.38295  1.0000
  H   H12       1.0  0.59666  0.29784  0.61706  1.0000
  H   H13       1.0  0.92586  0.26343  0.36827  1.0000
  H   H14       1.0  0.57414  0.89515  0.63172  1.0000
  H   H15       1.0  0.07414  0.73658  0.63174  1.0000
  H   H16       1.0  0.42586  0.10486  0.36827  1.0000
  H   H17       1.0  0.26268  0.46052  0.33725  1.0000
  H   H18       1.0  0.23732  0.12328  0.66276  1.0000
  H   H19       1.0  0.73732  0.53948  0.66276  1.0000
  H   H20       1.0  0.76268  0.87672  0.33724  1.0000
  H   H21       1.0  0.44800  0.52492  0.58635  1.0000
  H   H22       1.0  0.05200  0.93858  0.41365  1.0000
  H   H23       1.0  0.55199  0.47507  0.41366  1.0000
  H   H24       1.0  0.94800  0.06141  0.58634  1.0000
  H   H25       1.0  0.85550  0.84151  0.84561  1.0000
  H   H26       1.0  0.64450  0.99591  0.15439  1.0000
  H   H27       1.0  0.14449  0.15848  0.15438  1.0000
  H   H28       1.0  0.35551  0.00410  0.84562  1.0000
  H   H29       1.0  0.85020  0.06569  0.85090  1.0000
  H   H30       1.0  0.64979  0.21480  0.14910  1.0000
  H   H31       1.0  0.14979  0.93430  0.14908  1.0000
  H   H32       1.0  0.35022  0.78520  0.85091  1.0000
  C   C1        1.0  0.39612  0.45060  0.76208  1.0000
  C   C2        1.0  0.10387  0.68852  0.23792  1.0000
  C   C3        1.0  0.60388  0.54939  0.23792  1.0000
  C   C4        1.0  0.89613  0.31148  0.76208  1.0000
  C   C5        1.0  0.28649  0.42385  0.61836  1.0000
  C   C6        1.0  0.21351  0.80549  0.38164  1.0000
  C   C7        1.0  0.71351  0.57615  0.38165  1.0000
  C   C8        1.0  0.78649  0.19450  0.61836  1.0000
  C   C9        1.0  0.13695  0.35155  0.55759  1.0000
  C   C10       1.0  0.36305  0.79395  0.44240  1.0000
  C   C11       1.0  0.86305  0.64845  0.44242  1.0000
  C   C12       1.0  0.63695  0.20605  0.55760  1.0000
  C   C13       1.0  0.04282  0.32132  0.41958  1.0000
  C   C14       1.0  0.45718  0.90173  0.58041  1.0000
  C   C15       1.0  0.95718  0.67869  0.58043  1.0000
  C   C16       1.0  0.54282  0.09827  0.41958  1.0000
  C   C17       1.0  0.22967  0.43147  0.40288  1.0000
  C   C18       1.0  0.27033  0.02860  0.59712  1.0000
  C   C19       1.0  0.77033  0.56852  0.59712  1.0000
  C   C20       1.0  0.72967  0.97140  0.40288  1.0000
  C   C21       1.0  0.33266  0.46660  0.54009  1.0000
  C   C22       1.0  0.16733  0.92652  0.45991  1.0000
  C   C23       1.0  0.66733  0.53339  0.45991  1.0000
  C   C24       1.0  0.83267  0.07348  0.54009  1.0000
  C   C25       1.0  0.74999  0.77259  0.00000  1.0000
  C   C26       1.0  0.25000  0.22741  1.00000  1.0000
  C   C27       1.0  0.75000  0.90389  0.00000  1.0000
  C   C28       1.0  0.25000  0.09612  0.00000  1.0000
  C   C29       1.0  0.80864  0.92250  0.91324  1.0000
  C   C30       1.0  0.69135  0.00926  0.08676  1.0000
  C   C31       1.0  0.19136  0.07751  0.08676  1.0000
  C   C32       1.0  0.30865  0.99074  0.91324  1.0000
  C   C33       1.0  0.80588  0.04588  0.91651  1.0000
  C   C34       1.0  0.69411  0.12937  0.08349  1.0000
  C   C35       1.0  0.19412  0.95412  0.08348  1.0000
  C   C36       1.0  0.30590  0.87063  0.91651  1.0000
  N   N1        1.0  0.08723  0.35797  0.34151  1.0000
  N   N2        1.0  0.41277  0.01646  0.65848  1.0000
  N   N3        1.0  0.91277  0.64203  0.65849  1.0000
  N   N4        1.0  0.58723  0.98355  0.34152  1.0000
  N   N5        1.0  0.74999  0.14773  0.00000  1.0000
  N   N6        1.0  0.25001  0.85227  1.00000  1.0000
  O   O1        1.0  0.53535  0.49746  0.80224  1.0000
  O   O2        1.0  0.96464  0.69523  0.19777  1.0000
  O   O3        1.0  0.46465  0.50253  0.19775  1.0000
  O   O4        1.0  0.03536  0.30477  0.80223  1.0000
  O   O5        1.0  0.34295  0.42001  0.83314  1.0000
  O   O6        1.0  0.15704  0.58687  0.16685  1.0000
  O   O7        1.0  0.65705  0.57999  0.16686  1.0000
  O   O8        1.0  0.84295  0.41313  0.83315  1.0000
  O   O9        1.0  0.89458  0.41343  0.09838  1.0000
  O   O10       1.0  0.60543  0.31506  0.90163  1.0000
  O   O11       1.0  0.10542  0.58658  0.90163  1.0000
  O   O12       1.0  0.39458  0.68495  0.09837  1.0000
  O   O13       1.0  0.67868  0.75092  0.06506  1.0000
  O   O14       1.0  0.82130  0.68585  0.93494  1.0000
  O   O15       1.0  0.32131  0.24908  0.93493  1.0000
  O   O16       1.0  0.17869  0.31414  0.06506  1.0000
