data_image0
_chemical_formula_structural       U2Cu2H24C24S2N4O26
_chemical_formula_sum              "U2 Cu2 H24 C24 S2 N4 O26"
_cell_length_a       8.73302
_cell_length_b       9.5043
_cell_length_c       11.4253
_cell_angle_alpha    88.1969
_cell_angle_beta     90.7476
_cell_angle_gamma    87.344

_space_group_name_H-M_alt    "P 1"
_space_group_IT_number       1

loop_
  _space_group_symop_operation_xyz
  'x, y, z'

loop_
  _atom_site_type_symbol
  _atom_site_label
  _atom_site_symmetry_multiplicity
  _atom_site_fract_x
  _atom_site_fract_y
  _atom_site_fract_z
  _atom_site_occupancy
  U   U1        1.0  0.06269  0.56660  0.75475  1.0000
  U   U2        1.0  0.93731  0.43341  0.24526  1.0000
  Cu  Cu1       1.0  0.61634  0.14033  0.19050  1.0000
  Cu  Cu2       1.0  0.38368  0.85967  0.80953  1.0000
  H   H1        1.0  0.40061  0.25070  0.04749  1.0000
  H   H2        1.0  0.59940  0.74928  0.95252  1.0000
  H   H3        1.0  0.55998  0.32647  0.03247  1.0000
  H   H4        1.0  0.44002  0.67355  0.96754  1.0000
  H   H5        1.0  0.81746  0.12472  0.02604  1.0000
  H   H6        1.0  0.18252  0.87528  0.97397  1.0000
  H   H7        1.0  0.74071  0.97244  0.03526  1.0000
  H   H8        1.0  0.25929  0.02756  0.96476  1.0000
  H   H9        1.0  0.37898  0.36922  0.25841  1.0000
  H   H10       1.0  0.62102  0.63078  0.74156  1.0000
  H   H11       1.0  0.48965  0.85733  0.20070  1.0000
  H   H12       1.0  0.51035  0.14268  0.79930  1.0000
  H   H13       1.0  0.38460  0.94287  0.10966  1.0000
  H   H14       1.0  0.61540  0.05714  0.89034  1.0000
  H   H15       1.0  0.60205  0.16224  0.62631  1.0000
  H   H16       1.0  0.39797  0.83776  0.37369  1.0000
  H   H17       1.0  0.88818  0.91789  0.19093  1.0000
  H   H18       1.0  0.11181  0.08213  0.80904  1.0000
  H   H19       1.0  0.74785  0.98146  0.60250  1.0000
  H   H20       1.0  0.25217  0.01855  0.39748  1.0000
  H   H21       1.0  0.02257  0.76644  0.34743  1.0000
  H   H22       1.0  0.97742  0.23357  0.65255  1.0000
  H   H23       1.0  0.28366  0.45980  0.44947  1.0000
  H   H24       1.0  0.71634  0.54019  0.55052  1.0000
  C   C1        1.0  0.96575  0.77493  0.58304  1.0000
  C   C2        1.0  0.03423  0.22507  0.41693  1.0000
  C   C3        1.0  0.71001  0.04759  0.42008  1.0000
  C   C4        1.0  0.28999  0.95242  0.57993  1.0000
  C   C5        1.0  0.42385  0.32550  0.34176  1.0000
  C   C6        1.0  0.57616  0.67450  0.65824  1.0000
  C   C7        1.0  0.59340  0.16104  0.43679  1.0000
  C   C8        1.0  0.40661  0.83896  0.56322  1.0000
  C   C9        1.0  0.89277  0.86442  0.48581  1.0000
  C   C10       1.0  0.10723  0.13556  0.51420  1.0000
  C   C11       1.0  0.54970  0.20842  0.54612  1.0000
  C   C12       1.0  0.45030  0.79159  0.45388  1.0000
  C   C13       1.0  0.43544  0.31542  0.55231  1.0000
  C   C14       1.0  0.56456  0.68459  0.44772  1.0000
  C   C15       1.0  0.85876  0.92886  0.28246  1.0000
  C   C16       1.0  0.14124  0.07114  0.71754  1.0000
  C   C17       1.0  0.37686  0.36007  0.67021  1.0000
  C   C18       1.0  0.62314  0.63991  0.32976  1.0000
  C   C19       1.0  0.78001  0.96705  0.51163  1.0000
  C   C20       1.0  0.22001  0.03294  0.48836  1.0000
  C   C21       1.0  0.93496  0.84607  0.36965  1.0000
  C   C22       1.0  0.06504  0.15391  0.63036  1.0000
  C   C23       1.0  0.37294  0.37598  0.44837  1.0000
  C   C24       1.0  0.62708  0.62402  0.55166  1.0000
  S   S1        1.0  0.89330  0.72017  0.01334  1.0000
  S   S2        1.0  0.10670  0.27983  0.98666  1.0000
  N   N1        1.0  0.74768  0.02531  0.30691  1.0000
  N   N2        1.0  0.25231  0.97471  0.69306  1.0000
  N   N3        1.0  0.52988  0.21945  0.33667  1.0000
  N   N4        1.0  0.47013  0.78053  0.66331  1.0000
  O   O1        1.0  0.91356  0.46465  0.69171  1.0000
  O   O2        1.0  0.08641  0.53537  0.30830  1.0000
  O   O3        1.0  0.20471  0.67594  0.82050  1.0000
  O   O4        1.0  0.79531  0.32405  0.17950  1.0000
  O   O5        1.0  0.90095  0.63373  0.90621  1.0000
  O   O6        1.0  0.09905  0.36627  0.09380  1.0000
  O   O7        1.0  0.25885  0.44719  0.66392  1.0000
  O   O8        1.0  0.74115  0.55277  0.33609  1.0000
  O   O9        1.0  0.49289  0.28586  0.09063  1.0000
  O   O10       1.0  0.50709  0.71415  0.90938  1.0000
  O   O11       1.0  0.91125  0.78272  0.68579  1.0000
  O   O12       1.0  0.08879  0.21727  0.31418  1.0000
  O   O13       1.0  0.07831  0.68941  0.56179  1.0000
  O   O14       1.0  0.92167  0.31058  0.43822  1.0000
  O   O15       1.0  0.88166  0.61939  0.11524  1.0000
  O   O16       1.0  0.11832  0.38061  0.88476  1.0000
  O   O17       1.0  0.71970  0.07721  0.04234  1.0000
  O   O18       1.0  0.28028  0.92280  0.95766  1.0000
  O   O19       1.0  0.74817  0.81011  0.00597  1.0000
  O   O20       1.0  0.25184  0.18989  0.99403  1.0000
  O   O21       1.0  0.02419  0.80848  0.02859  1.0000
  O   O22       1.0  0.97582  0.19150  0.97143  1.0000
  O   O23       1.0  0.43961  0.31132  0.76227  1.0000
  O   O24       1.0  0.56037  0.68869  0.23772  1.0000
  O   O25       1.0  0.44432  0.95352  0.18204  1.0000
  O   O26       1.0  0.55569  0.04649  0.81796  1.0000
