data_image0
_chemical_formula_structural       Zn2H24C44N4O16
_chemical_formula_sum              "Zn2 H24 C44 N4 O16"
_cell_length_a       5.75892
_cell_length_b       12.2369
_cell_length_c       13.7617
_cell_angle_alpha    116.086
_cell_angle_beta     89.9995
_cell_angle_gamma    90.0003

_space_group_name_H-M_alt    "P 1"
_space_group_IT_number       1

loop_
  _space_group_symop_operation_xyz
  'x, y, z'

loop_
  _atom_site_type_symbol
  _atom_site_label
  _atom_site_symmetry_multiplicity
  _atom_site_fract_x
  _atom_site_fract_y
  _atom_site_fract_z
  _atom_site_occupancy
  Zn  Zn1       1.0  0.00000  0.99999  0.00000  1.0000
  Zn  Zn2       1.0  0.50001  0.50000  0.50000  1.0000
  H   H1        1.0  0.66772  0.17542  0.14196  1.0000
  H   H2        1.0  0.16771  0.32459  0.35804  1.0000
  H   H3        1.0  0.33230  0.82458  0.85804  1.0000
  H   H4        1.0  0.83230  0.67543  0.64196  1.0000
  H   H5        1.0  0.98933  0.09448  0.46975  1.0000
  H   H6        1.0  0.48934  0.40551  0.03025  1.0000
  H   H7        1.0  0.01064  0.90553  0.53026  1.0000
  H   H8        1.0  0.51066  0.59447  0.96974  1.0000
  H   H9        1.0  0.65810  0.95195  0.44500  1.0000
  H   H10       1.0  0.15810  0.54804  0.05500  1.0000
  H   H11       1.0  0.34187  0.04807  0.55502  1.0000
  H   H12       1.0  0.84189  0.45192  0.94499  1.0000
  H   H13       1.0  0.35395  0.81676  0.32631  1.0000
  H   H14       1.0  0.85396  0.68324  0.17370  1.0000
  H   H15       1.0  0.64604  0.18324  0.67371  1.0000
  H   H16       1.0  0.14605  0.31675  0.82628  1.0000
  H   H17       1.0  0.33478  0.77457  0.13225  1.0000
  H   H18       1.0  0.83479  0.72543  0.36776  1.0000
  H   H19       1.0  0.66524  0.22541  0.86776  1.0000
  H   H20       1.0  0.16523  0.27458  0.63223  1.0000
  H   H21       1.0  0.63659  0.85638  0.05261  1.0000
  H   H22       1.0  0.13662  0.64362  0.44739  1.0000
  H   H23       1.0  0.36342  0.14360  0.94740  1.0000
  H   H24       1.0  0.86341  0.35640  0.55259  1.0000
  C   C1        1.0  0.32445  0.11453  0.16650  1.0000
  C   C2        1.0  0.82447  0.38548  0.33350  1.0000
  C   C3        1.0  0.67553  0.88547  0.83350  1.0000
  C   C4        1.0  0.17556  0.61454  0.66650  1.0000
  C   C5        1.0  0.14223  0.07692  0.22475  1.0000
  C   C6        1.0  0.64223  0.42308  0.27524  1.0000
  C   C7        1.0  0.85776  0.92308  0.77525  1.0000
  C   C8        1.0  0.35777  0.57693  0.72475  1.0000
  C   C9        1.0  0.14964  0.11610  0.33839  1.0000
  C   C10       1.0  0.64963  0.38390  0.16161  1.0000
  C   C11       1.0  0.85036  0.88391  0.66162  1.0000
  C   C12       1.0  0.35037  0.61610  0.83839  1.0000
  C   C13       1.0  0.31103  0.21286  0.41445  1.0000
  C   C14       1.0  0.81107  0.28715  0.08555  1.0000
  C   C15       1.0  0.68894  0.78715  0.58555  1.0000
  C   C16       1.0  0.18894  0.71285  0.91445  1.0000
  C   C17       1.0  0.99024  0.06650  0.38275  1.0000
  C   C18       1.0  0.49024  0.43350  0.11725  1.0000
  C   C19       1.0  0.00974  0.93352  0.61726  1.0000
  C   C20       1.0  0.50975  0.56648  0.88274  1.0000
  C   C21       1.0  0.82242  0.98273  0.31707  1.0000
  C   C22       1.0  0.32241  0.51726  0.18293  1.0000
  C   C23       1.0  0.17755  0.01728  0.68295  1.0000
  C   C24       1.0  0.67758  0.48272  0.81705  1.0000
  C   C25       1.0  0.65372  0.93110  0.35949  1.0000
  C   C26       1.0  0.15372  0.56891  0.14051  1.0000
  C   C27       1.0  0.34626  0.06891  0.64053  1.0000
  C   C28       1.0  0.84627  0.43109  0.85947  1.0000
  C   C29       1.0  0.48380  0.85601  0.29328  1.0000
  C   C30       1.0  0.98381  0.64399  0.20672  1.0000
  C   C31       1.0  0.51619  0.14399  0.70673  1.0000
  C   C32       1.0  0.01620  0.35600  0.79326  1.0000
  C   C33       1.0  0.47600  0.83026  0.18243  1.0000
  C   C34       1.0  0.97602  0.66974  0.31757  1.0000
  C   C35       1.0  0.52401  0.16973  0.81758  1.0000
  C   C36       1.0  0.02401  0.33027  0.68242  1.0000
  C   C37       1.0  0.64171  0.87588  0.13766  1.0000
  C   C38       1.0  0.14172  0.62411  0.36234  1.0000
  C   C39       1.0  0.35829  0.12411  0.86235  1.0000
  C   C40       1.0  0.85828  0.37589  0.63765  1.0000
  C   C41       1.0  0.81887  0.95309  0.20397  1.0000
  C   C42       1.0  0.31890  0.54691  0.29604  1.0000
  C   C43       1.0  0.18110  0.04691  0.79604  1.0000
  C   C44       1.0  0.68112  0.45309  0.70396  1.0000
  N   N1        1.0  0.98149  0.00096  0.16119  1.0000
  N   N2        1.0  0.48151  0.49904  0.33881  1.0000
  N   N3        1.0  0.01850  0.99904  0.83882  1.0000
  N   N4        1.0  0.51850  0.50097  0.66118  1.0000
  O   O1        1.0  0.28830  0.09137  0.06826  1.0000
  O   O2        1.0  0.78831  0.40863  0.43175  1.0000
  O   O3        1.0  0.71169  0.90862  0.93175  1.0000
  O   O4        1.0  0.21172  0.59139  0.56826  1.0000
  O   O5        1.0  0.50844  0.16393  0.21733  1.0000
  O   O6        1.0  0.00845  0.33607  0.28267  1.0000
  O   O7        1.0  0.49155  0.83607  0.78268  1.0000
  O   O8        1.0  0.99157  0.66393  0.71733  1.0000
  O   O9        1.0  0.28911  0.32236  0.41598  1.0000
  O   O10       1.0  0.78911  0.17764  0.08401  1.0000
  O   O11       1.0  0.71090  0.67765  0.58401  1.0000
  O   O12       1.0  0.21090  0.82236  0.91599  1.0000
  O   O13       1.0  0.43774  0.19566  0.47790  1.0000
  O   O14       1.0  0.93772  0.30435  0.02210  1.0000
  O   O15       1.0  0.56227  0.80435  0.52210  1.0000
  O   O16       1.0  0.06225  0.69564  0.97789  1.0000
