data_image0
_chemical_formula_structural       Ni2H28C24N4O8
_chemical_formula_sum              "Ni2 H28 C24 N4 O8"
_cell_length_a       6.80693
_cell_length_b       10.1274
_cell_length_c       10.2147
_cell_angle_alpha    107.708
_cell_angle_beta     89.9818
_cell_angle_gamma    109.636

_space_group_name_H-M_alt    "P 1"
_space_group_IT_number       1

loop_
  _space_group_symop_operation_xyz
  'x, y, z'

loop_
  _atom_site_type_symbol
  _atom_site_label
  _atom_site_symmetry_multiplicity
  _atom_site_fract_x
  _atom_site_fract_y
  _atom_site_fract_z
  _atom_site_occupancy
  Ni  Ni1       1.0  0.84539  0.00006  0.24999  1.0000
  Ni  Ni2       1.0  0.15461  0.99994  0.75001  1.0000
  H   H1        1.0  0.79193  0.05201  0.03926  1.0000
  H   H2        1.0  0.74002  0.94800  0.46074  1.0000
  H   H3        1.0  0.20807  0.94799  0.96074  1.0000
  H   H4        1.0  0.25998  0.05200  0.53926  1.0000
  H   H5        1.0  0.40544  0.80867  0.04161  1.0000
  H   H6        1.0  0.59690  0.19136  0.45844  1.0000
  H   H7        1.0  0.59456  0.19133  0.95839  1.0000
  H   H8        1.0  0.40310  0.80864  0.54156  1.0000
  H   H9        1.0  0.62635  0.79251  0.95420  1.0000
  H   H10       1.0  0.83382  0.20746  0.54590  1.0000
  H   H11       1.0  0.37365  0.20749  0.04580  1.0000
  H   H12       1.0  0.16618  0.79254  0.45410  1.0000
  H   H13       1.0  0.66149  0.21406  0.20651  1.0000
  H   H14       1.0  0.44774  0.78597  0.29346  1.0000
  H   H15       1.0  0.33851  0.78594  0.79348  1.0000
  H   H16       1.0  0.55226  0.21403  0.70654  1.0000
  H   H17       1.0  0.42415  0.06239  0.18880  1.0000
  H   H18       1.0  0.36207  0.93764  0.31116  1.0000
  H   H19       1.0  0.57585  0.93761  0.81120  1.0000
  H   H20       1.0  0.63793  0.06236  0.68884  1.0000
  H   H21       1.0  0.35228  0.33217  0.63824  1.0000
  H   H22       1.0  0.01983  0.66759  0.86154  1.0000
  H   H23       1.0  0.64772  0.66783  0.36176  1.0000
  H   H24       1.0  0.98016  0.33241  0.13846  1.0000
  H   H25       1.0  0.34231  0.43466  0.25894  1.0000
  H   H26       1.0  0.90760  0.56551  0.24109  1.0000
  H   H27       1.0  0.65769  0.56534  0.74106  1.0000
  H   H28       1.0  0.09240  0.43449  0.75891  1.0000
  C   C1        1.0  0.33036  0.36783  0.44132  1.0000
  C   C2        1.0  0.96243  0.63219  0.05860  1.0000
  C   C3        1.0  0.66964  0.63217  0.55868  1.0000
  C   C4        1.0  0.03757  0.36781  0.94140  1.0000
  C   C5        1.0  0.15139  0.22668  0.37827  1.0000
  C   C6        1.0  0.92448  0.77333  0.12160  1.0000
  C   C7        1.0  0.84860  0.77332  0.62173  1.0000
  C   C8        1.0  0.07552  0.22667  0.87840  1.0000
  C   C9        1.0  0.53336  0.86401  0.98952  1.0000
  C   C10       1.0  0.66936  0.13600  0.51055  1.0000
  C   C11       1.0  0.46664  0.13599  0.01048  1.0000
  C   C12       1.0  0.33064  0.86400  0.48946  1.0000
  C   C13       1.0  0.55462  0.10963  0.13401  1.0000
  C   C14       1.0  0.44521  0.89039  0.36596  1.0000
  C   C15       1.0  0.44538  0.89037  0.86598  1.0000
  C   C16       1.0  0.55479  0.10960  0.63404  1.0000
  C   C17       1.0  0.41905  0.40489  0.57737  1.0000
  C   C18       1.0  0.01397  0.59496  0.92250  1.0000
  C   C19       1.0  0.58095  0.59511  0.42263  1.0000
  C   C20       1.0  0.98602  0.40504  0.07750  1.0000
  C   C21       1.0  0.41186  0.46385  0.36456  1.0000
  C   C22       1.0  0.94802  0.53629  0.13545  1.0000
  C   C23       1.0  0.58814  0.53615  0.63544  1.0000
  C   C24       1.0  0.05198  0.46371  0.86455  1.0000
  N   N1        1.0  0.66963  0.00547  0.09057  1.0000
  N   N2        1.0  0.66430  0.99456  0.40946  1.0000
  N   N3        1.0  0.33037  0.99453  0.90942  1.0000
  N   N4        1.0  0.33570  0.00544  0.59054  1.0000
  O   O1        1.0  0.01330  0.22205  0.29001  1.0000
  O   O2        1.0  0.79090  0.77794  0.20983  1.0000
  O   O3        1.0  0.98669  0.77795  0.70999  1.0000
  O   O4        1.0  0.20910  0.22206  0.79017  1.0000
  O   O5        1.0  0.13453  0.11114  0.41022  1.0000
  O   O6        1.0  0.02327  0.88888  0.08968  1.0000
  O   O7        1.0  0.86547  0.88886  0.58978  1.0000
  O   O8        1.0  0.97673  0.11113  0.91032  1.0000
