data_image0
_chemical_formula_structural       Gd2CuH18C14S2N2O22
_chemical_formula_sum              "Gd2 Cu1 H18 C14 S2 N2 O22"
_cell_length_a       6.42948
_cell_length_b       9.8101
_cell_length_c       9.72968
_cell_angle_alpha    96.3
_cell_angle_beta     91.1986
_cell_angle_gamma    96.5323

_space_group_name_H-M_alt    "P 1"
_space_group_IT_number       1

loop_
  _space_group_symop_operation_xyz
  'x, y, z'

loop_
  _atom_site_type_symbol
  _atom_site_label
  _atom_site_symmetry_multiplicity
  _atom_site_fract_x
  _atom_site_fract_y
  _atom_site_fract_z
  _atom_site_occupancy
  Gd  Gd1       1.0  0.42930  0.53578  0.25505  1.0000
  Gd  Gd2       1.0  0.57069  0.46423  0.74495  1.0000
  Cu  Cu1       1.0  1.00000  1.00000  1.00000  1.0000
  H   H1        1.0  0.22048  0.83716  0.85560  1.0000
  H   H2        1.0  0.77958  0.16288  0.14441  1.0000
  H   H3        1.0  0.22260  0.78942  0.00642  1.0000
  H   H4        1.0  0.77741  0.21059  0.99358  1.0000
  H   H5        1.0  0.87825  0.53503  0.36362  1.0000
  H   H6        1.0  0.12174  0.46497  0.63639  1.0000
  H   H7        1.0  0.78076  0.37632  0.35357  1.0000
  H   H8        1.0  0.21924  0.62369  0.64644  1.0000
  H   H9        1.0  0.95974  0.45703  0.17983  1.0000
  H   H10       1.0  0.04026  0.54298  0.82019  1.0000
  H   H11       1.0  0.09167  0.41855  0.04310  1.0000
  H   H12       1.0  0.90832  0.58137  0.95694  1.0000
  H   H13       1.0  0.18150  0.20929  0.20845  1.0000
  H   H14       1.0  0.81854  0.79070  0.79153  1.0000
  H   H15       1.0  0.31461  0.01903  0.57308  1.0000
  H   H16       1.0  0.68540  0.98097  0.42692  1.0000
  H   H17       1.0  0.01791  0.78607  0.20558  1.0000
  H   H18       1.0  0.98207  0.21394  0.79442  1.0000
  C   C1        1.0  0.18007  0.11900  0.26374  1.0000
  C   C2        1.0  0.81995  0.88100  0.73625  1.0000
  C   C3        1.0  0.25942  0.13138  0.39944  1.0000
  C   C4        1.0  0.74059  0.86862  0.60055  1.0000
  C   C5        1.0  0.25599  0.01271  0.46643  1.0000
  C   C6        1.0  0.74402  0.98730  0.53357  1.0000
  C   C7        1.0  0.17449  0.88566  0.39574  1.0000
  C   C8        1.0  0.82550  0.11434  0.60427  1.0000
  C   C9        1.0  0.09210  0.88230  0.26116  1.0000
  C   C10       1.0  0.90790  0.11770  0.73885  1.0000
  C   C11       1.0  0.34099  0.27098  0.47031  1.0000
  C   C12       1.0  0.65901  0.72901  0.52968  1.0000
  C   C13       1.0  0.17916  0.75522  0.46302  1.0000
  C   C14       1.0  0.82083  0.24480  0.53698  1.0000
  S   S1        1.0  0.57899  0.72634  0.03606  1.0000
  S   S2        1.0  0.42100  0.27365  0.96394  1.0000
  N   N1        1.0  0.09716  0.99732  0.19666  1.0000
  N   N2        1.0  0.90284  0.00267  0.80335  1.0000
  O   O1        1.0  0.34294  0.37449  0.40243  1.0000
  O   O2        1.0  0.65706  0.62550  0.59756  1.0000
  O   O3        1.0  0.40060  0.27770  0.59644  1.0000
  O   O4        1.0  0.59942  0.72230  0.40354  1.0000
  O   O5        1.0  0.15743  0.64036  0.38387  1.0000
  O   O6        1.0  0.84257  0.35965  0.61615  1.0000
  O   O7        1.0  0.20702  0.76678  0.59285  1.0000
  O   O8        1.0  0.79298  0.23322  0.40715  1.0000
  O   O9        1.0  0.68366  0.86722  0.05176  1.0000
  O   O10       1.0  0.31637  0.13276  0.94823  1.0000
  O   O11       1.0  0.70011  0.62738  0.10283  1.0000
  O   O12       1.0  0.29985  0.37259  0.89716  1.0000
  O   O13       1.0  0.37308  0.71881  0.10967  1.0000
  O   O14       1.0  0.62692  0.28122  0.89034  1.0000
  O   O15       1.0  0.53333  0.67415  0.88750  1.0000
  O   O16       1.0  0.46663  0.32585  0.11250  1.0000
  O   O17       1.0  0.13376  0.82678  0.93596  1.0000
  O   O18       1.0  0.86627  0.17324  0.06403  1.0000
  O   O19       1.0  0.77590  0.46632  0.30981  1.0000
  O   O20       1.0  0.22409  0.53368  0.69019  1.0000
  O   O21       1.0  0.09836  0.46815  0.13620  1.0000
  O   O22       1.0  0.90162  0.53190  0.86378  1.0000
