data_image0
_chemical_formula_structural       Cu2H16C24N4Cl4
_chemical_formula_sum              "Cu2 H16 C24 N4 Cl4"
_cell_length_a       6.02244
_cell_length_b       6.95549
_cell_length_c       12.9807
_cell_angle_alpha    90.0092
_cell_angle_beta     90.001
_cell_angle_gamma    90.0029

_space_group_name_H-M_alt    "P 1"
_space_group_IT_number       1

loop_
  _space_group_symop_operation_xyz
  'x, y, z'

loop_
  _atom_site_type_symbol
  _atom_site_label
  _atom_site_symmetry_multiplicity
  _atom_site_fract_x
  _atom_site_fract_y
  _atom_site_fract_z
  _atom_site_occupancy
  Cu  Cu1       1.0  0.00003  0.50000  0.99999  1.0000
  Cu  Cu2       1.0  0.50001  0.49999  0.50000  1.0000
  H   H1        1.0  0.32738  0.35878  0.10735  1.0000
  H   H2        1.0  0.67262  0.35868  0.89269  1.0000
  H   H3        1.0  0.82739  0.64128  0.39271  1.0000
  H   H4        1.0  0.17261  0.64131  0.60734  1.0000
  H   H5        1.0  0.67271  0.64121  0.89263  1.0000
  H   H6        1.0  0.32741  0.64131  0.10730  1.0000
  H   H7        1.0  0.17265  0.35877  0.60733  1.0000
  H   H8        1.0  0.82728  0.35873  0.39264  1.0000
  H   H9        1.0  0.61722  0.18165  0.19904  1.0000
  H   H10       1.0  0.38280  0.18150  0.80097  1.0000
  H   H11       1.0  0.11713  0.81842  0.30098  1.0000
  H   H12       1.0  0.88282  0.81847  0.69902  1.0000
  H   H13       1.0  0.38285  0.81835  0.80095  1.0000
  H   H14       1.0  0.61722  0.81850  0.19902  1.0000
  H   H15       1.0  0.88279  0.18159  0.69903  1.0000
  H   H16       1.0  0.11710  0.18156  0.30096  1.0000
  C   C1        1.0  0.15728  0.10438  0.05210  1.0000
  C   C2        1.0  0.84276  0.10434  0.94788  1.0000
  C   C3        1.0  0.65727  0.89564  0.44791  1.0000
  C   C4        1.0  0.34274  0.89564  0.55211  1.0000
  C   C5        1.0  0.84277  0.89566  0.94787  1.0000
  C   C6        1.0  0.15725  0.89567  0.05212  1.0000
  C   C7        1.0  0.34272  0.10433  0.55212  1.0000
  C   C8        1.0  0.65725  0.10432  0.44788  1.0000
  C   C9        1.0  0.32658  0.20241  0.10688  1.0000
  C   C10       1.0  0.67338  0.20239  0.89313  1.0000
  C   C11       1.0  0.82659  0.79760  0.39314  1.0000
  C   C12       1.0  0.17338  0.79762  0.60691  1.0000
  C   C13       1.0  0.67344  0.79760  0.89309  1.0000
  C   C14       1.0  0.32663  0.79763  0.10686  1.0000
  C   C15       1.0  0.17335  0.20242  0.60688  1.0000
  C   C16       1.0  0.82660  0.20238  0.39313  1.0000
  C   C17       1.0  0.48765  0.10218  0.15882  1.0000
  C   C18       1.0  0.51238  0.10209  0.84118  1.0000
  C   C19       1.0  0.98760  0.89780  0.34121  1.0000
  C   C20       1.0  0.01237  0.89783  0.65882  1.0000
  C   C21       1.0  0.51239  0.89779  0.84115  1.0000
  C   C22       1.0  0.48766  0.89790  0.15882  1.0000
  C   C23       1.0  0.01234  0.10214  0.65884  1.0000
  C   C24       1.0  0.98760  0.10208  0.34117  1.0000
  N   N1        1.0  0.00001  0.20264  0.00001  1.0000
  N   N2        1.0  0.49997  0.79737  0.50001  1.0000
  N   N3        1.0  0.00002  0.79737  0.99998  1.0000
  N   N4        1.0  0.49995  0.20267  0.50001  1.0000
  Cl  Cl1       1.0  0.15668  0.49994  0.84451  1.0000
  Cl  Cl2       1.0  0.84337  0.50006  0.15547  1.0000
  Cl  Cl3       1.0  0.65667  0.49999  0.65549  1.0000
  Cl  Cl4       1.0  0.34333  0.49999  0.34452  1.0000
