data_image0
_chemical_formula_structural       Mo2H12C12N8O6
_chemical_formula_sum              "Mo2 H12 C12 N8 O6"
_cell_length_a       3.86498
_cell_length_b       8.94819
_cell_length_c       14.4888
_cell_angle_alpha    90.0012
_cell_angle_beta     89.9995
_cell_angle_gamma    101.595

_space_group_name_H-M_alt    "P 1"
_space_group_IT_number       1

loop_
  _space_group_symop_operation_xyz
  'x, y, z'

loop_
  _atom_site_type_symbol
  _atom_site_label
  _atom_site_symmetry_multiplicity
  _atom_site_fract_x
  _atom_site_fract_y
  _atom_site_fract_z
  _atom_site_occupancy
  Mo  Mo1       1.0  0.34121  0.00164  0.30591  1.0000
  Mo  Mo2       1.0  0.65879  0.99836  0.80591  1.0000
  H   H1        1.0  0.49895  0.38793  0.40064  1.0000
  H   H2        1.0  0.50106  0.61206  0.90064  1.0000
  H   H3        1.0  0.89956  0.38725  0.89391  1.0000
  H   H4        1.0  0.10044  0.61275  0.39391  1.0000
  H   H5        1.0  0.28130  0.42924  0.58151  1.0000
  H   H6        1.0  0.71873  0.57076  0.08151  1.0000
  H   H7        1.0  0.16759  0.43292  0.07323  1.0000
  H   H8        1.0  0.83244  0.56707  0.57322  1.0000
  H   H9        1.0  0.03414  0.16642  0.64391  1.0000
  H   H10       1.0  0.96587  0.83359  0.14391  1.0000
  H   H11       1.0  0.13797  0.17064  0.14133  1.0000
  H   H12       1.0  0.86203  0.82936  0.64133  1.0000
  C   C1        1.0  0.19162  0.08087  0.51322  1.0000
  C   C2        1.0  0.80837  0.91913  0.01322  1.0000
  C   C3        1.0  0.89147  0.08300  0.01197  1.0000
  C   C4        1.0  0.10851  0.91701  0.51196  1.0000
  C   C5        1.0  0.38841  0.30516  0.45274  1.0000
  C   C6        1.0  0.61159  0.69484  0.95274  1.0000
  C   C7        1.0  0.92554  0.30582  0.94756  1.0000
  C   C8        1.0  0.07446  0.69418  0.44755  1.0000
  C   C9        1.0  0.28116  0.32688  0.54177  1.0000
  C   C10       1.0  0.71885  0.67311  0.04176  1.0000
  C   C11       1.0  0.05980  0.32946  0.03581  1.0000
  C   C12       1.0  0.94021  0.67054  0.53580  1.0000
  N   N1        1.0  0.33203  0.15151  0.43592  1.0000
  N   N2        1.0  0.66796  0.84849  0.93593  1.0000
  N   N3        1.0  0.81999  0.15197  0.93376  1.0000
  N   N4        1.0  0.17999  0.84803  0.43375  1.0000
  N   N5        1.0  0.15748  0.18462  0.57867  1.0000
  N   N6        1.0  0.84252  0.81539  0.07868  1.0000
  N   N7        1.0  0.03690  0.18804  0.07530  1.0000
  N   N8        1.0  0.96308  0.81196  0.57529  1.0000
  O   O1        1.0  0.79297  0.00196  0.32780  1.0000
  O   O2        1.0  0.20701  0.99804  0.82780  1.0000
  O   O3        1.0  0.35818  0.16140  0.23498  1.0000
  O   O4        1.0  0.64181  0.83859  0.73497  1.0000
  O   O5        1.0  0.78951  0.15794  0.73478  1.0000
  O   O6        1.0  0.21049  0.84206  0.23477  1.0000
