data_image0
_chemical_formula_structural       Co2H28C48S2N4O12
_chemical_formula_sum              "Co2 H28 C48 S2 N4 O12"
_cell_length_a       7.71384
_cell_length_b       12.4573
_cell_length_c       12.4571
_cell_angle_alpha    112.615
_cell_angle_beta     101.368
_cell_angle_gamma    101.368

_space_group_name_H-M_alt    "P 1"
_space_group_IT_number       1

loop_
  _space_group_symop_operation_xyz
  'x, y, z'

loop_
  _atom_site_type_symbol
  _atom_site_label
  _atom_site_symmetry_multiplicity
  _atom_site_fract_x
  _atom_site_fract_y
  _atom_site_fract_z
  _atom_site_occupancy
  Co  Co1       1.0  0.12815  0.20157  0.38965  1.0000
  Co  Co2       1.0  0.62816  0.38967  0.20158  1.0000
  H   H1        1.0  0.13550  0.64401  0.42032  1.0000
  H   H2        1.0  0.63551  0.42033  0.64401  1.0000
  H   H3        1.0  0.38199  0.81870  0.59675  1.0000
  H   H4        1.0  0.88199  0.59676  0.81871  1.0000
  H   H5        1.0  0.10721  0.43490  0.62424  1.0000
  H   H6        1.0  0.60722  0.62424  0.43489  1.0000
  H   H7        1.0  0.61060  0.96769  0.78434  1.0000
  H   H8        1.0  0.11061  0.78435  0.96770  1.0000
  H   H9        1.0  0.83478  0.09853  0.99108  1.0000
  H   H10       1.0  0.33477  0.99108  0.09853  1.0000
  H   H11       1.0  0.67914  0.81908  0.10620  1.0000
  H   H12       1.0  0.17914  0.10620  0.81907  1.0000
  H   H13       1.0  0.46356  0.14741  0.31526  1.0000
  H   H14       1.0  0.96354  0.31527  0.14743  1.0000
  H   H15       1.0  0.58904  0.97122  0.26065  1.0000
  H   H16       1.0  0.08905  0.26066  0.97123  1.0000
  H   H17       1.0  0.17811  0.80181  0.38624  1.0000
  H   H18       1.0  0.67811  0.38624  0.80181  1.0000
  H   H19       1.0  0.07815  0.98663  0.44146  1.0000
  H   H20       1.0  0.57814  0.44146  0.98663  1.0000
  H   H21       1.0  0.74110  0.84728  0.32114  1.0000
  H   H22       1.0  0.24109  0.32115  0.84727  1.0000
  H   H23       1.0  0.82469  0.65323  0.26340  1.0000
  H   H24       1.0  0.32467  0.26340  0.65323  1.0000
  H   H25       1.0  0.27870  0.44677  0.16259  1.0000
  H   H26       1.0  0.77869  0.16258  0.44677  1.0000
  H   H27       1.0  0.16901  0.63023  0.21170  1.0000
  H   H28       1.0  0.66902  0.21170  0.63024  1.0000
  C   C1        1.0  0.95889  0.42679  0.40329  1.0000
  C   C2        1.0  0.45892  0.40329  0.42679  1.0000
  C   C3        1.0  0.10897  0.52918  0.51070  1.0000
  C   C4        1.0  0.60900  0.51070  0.52917  1.0000
  C   C5        1.0  0.18646  0.63771  0.50489  1.0000
  C   C6        1.0  0.68647  0.50490  0.63772  1.0000
  C   C7        1.0  0.32274  0.73568  0.60384  1.0000
  C   C8        1.0  0.82274  0.60384  0.73569  1.0000
  C   C9        1.0  0.38084  0.72613  0.71241  1.0000
  C   C10       1.0  0.88084  0.71241  0.72613  1.0000
  C   C11       1.0  0.30105  0.61696  0.71721  1.0000
  C   C12       1.0  0.80105  0.71722  0.61697  1.0000
  C   C13       1.0  0.16797  0.51832  0.61893  1.0000
  C   C14       1.0  0.66799  0.61894  0.51832  1.0000
  C   C15       1.0  0.51787  0.81794  0.82763  1.0000
  C   C16       1.0  0.01787  0.82763  0.81794  1.0000
  C   C17       1.0  0.62328  0.93498  0.85407  1.0000
  C   C18       1.0  0.12328  0.85407  0.93498  1.0000
  C   C19       1.0  0.74945  0.00808  0.96962  1.0000
  C   C20       1.0  0.24944  0.96962  0.00808  1.0000
  C   C21       1.0  0.76927  0.96811  0.06096  1.0000
  C   C22       1.0  0.26926  0.06095  0.96812  1.0000
  C   C23       1.0  0.66338  0.85079  0.03569  1.0000
  C   C24       1.0  0.16338  0.03569  0.85079  1.0000
  C   C25       1.0  0.54145  0.77823  0.91960  1.0000
  C   C26       1.0  0.04145  0.91960  0.77823  1.0000
  C   C27       1.0  0.89829  0.05119  0.18554  1.0000
  C   C28       1.0  0.39829  0.18553  0.05119  1.0000
  C   C29       1.0  0.40586  0.06916  0.33081  1.0000
  C   C30       1.0  0.90585  0.33082  0.06917  1.0000
  C   C31       1.0  0.47256  0.96894  0.29805  1.0000
  C   C32       1.0  0.97257  0.29805  0.96895  1.0000
  C   C33       1.0  0.38852  0.86709  0.31294  1.0000
  C   C34       1.0  0.88852  0.31295  0.86709  1.0000
  C   C35       1.0  0.24459  0.87459  0.36652  1.0000
  C   C36       1.0  0.74459  0.36652  0.87460  1.0000
  C   C37       1.0  0.18827  0.97858  0.39889  1.0000
  C   C38       1.0  0.68826  0.39889  0.97859  1.0000
  C   C39       1.0  0.44689  0.75606  0.27433  1.0000
  C   C40       1.0  0.94688  0.27433  0.75606  1.0000
  C   C41       1.0  0.63315  0.76043  0.28458  1.0000
  C   C42       1.0  0.13314  0.28458  0.76043  1.0000
  C   C43       1.0  0.68072  0.65277  0.25260  1.0000
  C   C44       1.0  0.18071  0.25260  0.65277  1.0000
  C   C45       1.0  0.37499  0.53740  0.19734  1.0000
  C   C46       1.0  0.87498  0.19734  0.53739  1.0000
  C   C47       1.0  0.31658  0.64050  0.22688  1.0000
  C   C48       1.0  0.81658  0.22687  0.64050  1.0000
  S   S1        1.0  0.39454  0.62634  0.86433  1.0000
  S   S2        1.0  0.89455  0.86433  0.62633  1.0000
  N   N1        1.0  0.26407  0.07385  0.37913  1.0000
  N   N2        1.0  0.76407  0.37913  0.07386  1.0000
  N   N3        1.0  0.55498  0.54275  0.21193  1.0000
  N   N4        1.0  0.05497  0.21193  0.54274  1.0000
  O   O1        1.0  0.93733  0.31773  0.38478  1.0000
  O   O2        1.0  0.43735  0.38479  0.31772  1.0000
  O   O3        1.0  0.85750  0.46181  0.33613  1.0000
  O   O4        1.0  0.35750  0.33612  0.46180  1.0000
  O   O5        1.0  0.03143  0.14079  0.20142  1.0000
  O   O6        1.0  0.53142  0.20140  0.14079  1.0000
  O   O7        1.0  0.87465  0.03270  0.27621  1.0000
  O   O8        1.0  0.37464  0.27620  0.03271  1.0000
  O   O9        1.0  0.25384  0.62165  0.92627  1.0000
  O   O10       1.0  0.75383  0.92627  0.62165  1.0000
  O   O11       1.0  0.50371  0.54267  0.85925  1.0000
  O   O12       1.0  0.00369  0.85924  0.54267  1.0000
