data_image0
_chemical_formula_structural       CdH32Au2C28N10O4
_chemical_formula_sum              "Cd1 H32 Au2 C28 N10 O4"
_cell_length_a       7.2256
_cell_length_b       9.38183
_cell_length_c       12.6894
_cell_angle_alpha    77.0128
_cell_angle_beta     86.2761
_cell_angle_gamma    69.8516

_space_group_name_H-M_alt    "P 1"
_space_group_IT_number       1

loop_
  _space_group_symop_operation_xyz
  'x, y, z'

loop_
  _atom_site_type_symbol
  _atom_site_label
  _atom_site_symmetry_multiplicity
  _atom_site_fract_x
  _atom_site_fract_y
  _atom_site_fract_z
  _atom_site_occupancy
  Cd  Cd1       1.0  1.00000  1.00000  1.00000  1.0000
  H   H1        1.0  0.34636  0.09456  0.88299  1.0000
  H   H2        1.0  0.65363  0.90544  0.11701  1.0000
  H   H3        1.0  0.45108  0.20622  0.70087  1.0000
  H   H4        1.0  0.54892  0.79378  0.29913  1.0000
  H   H5        1.0  0.92802  0.18123  0.56792  1.0000
  H   H6        1.0  0.07199  0.81876  0.43208  1.0000
  H   H7        1.0  0.84704  0.07127  0.75531  1.0000
  H   H8        1.0  0.15295  0.92873  0.24469  1.0000
  H   H9        1.0  0.31187  0.09289  0.34362  1.0000
  H   H10       1.0  0.68813  0.90711  0.65638  1.0000
  H   H11       1.0  0.31386  0.19454  0.20623  1.0000
  H   H12       1.0  0.68616  0.80546  0.79377  1.0000
  H   H13       1.0  0.08655  0.20889  0.27173  1.0000
  H   H14       1.0  0.91346  0.79111  0.72826  1.0000
  H   H15       1.0  0.99064  0.49297  0.21664  1.0000
  H   H16       1.0  0.00937  0.50702  0.78336  1.0000
  H   H17       1.0  0.22346  0.49348  0.16365  1.0000
  H   H18       1.0  0.77654  0.50651  0.83635  1.0000
  H   H19       1.0  0.11731  0.59732  0.26639  1.0000
  H   H20       1.0  0.88268  0.40268  0.73360  1.0000
  H   H21       1.0  0.33368  0.55824  0.40789  1.0000
  H   H22       1.0  0.66632  0.44176  0.59212  1.0000
  H   H23       1.0  0.45908  0.55721  0.28189  1.0000
  H   H24       1.0  0.54092  0.44279  0.71811  1.0000
  H   H25       1.0  0.59639  0.47197  0.40484  1.0000
  H   H26       1.0  0.40360  0.52804  0.59515  1.0000
  H   H27       1.0  0.61241  0.29858  0.21766  1.0000
  H   H28       1.0  0.38761  0.70142  0.78234  1.0000
  H   H29       1.0  0.62212  0.12141  0.30918  1.0000
  H   H30       1.0  0.37789  0.87859  0.69082  1.0000
  H   H31       1.0  0.75488  0.23664  0.33903  1.0000
  H   H32       1.0  0.24513  0.76336  0.66097  1.0000
  Au  Au1       1.0  0.67600  0.55213  0.05429  1.0000
  Au  Au2       1.0  0.32399  0.44787  0.94570  1.0000
  C   C1        1.0  0.46222  0.74978  0.05621  1.0000
  C   C2        1.0  0.53776  0.25022  0.94379  1.0000
  C   C3        1.0  0.88552  0.35225  0.04968  1.0000
  C   C4        1.0  0.11448  0.64774  0.95032  1.0000
  C   C5        1.0  0.25823  0.11650  0.81090  1.0000
  C   C6        1.0  0.74176  0.88350  0.18910  1.0000
  C   C7        1.0  0.31610  0.17852  0.70961  1.0000
  C   C8        1.0  0.68389  0.82148  0.29040  1.0000
  C   C9        1.0  0.19779  0.20411  0.61901  1.0000
  C   C10       1.0  0.80221  0.79589  0.38099  1.0000
  C   C11       1.0  0.02585  0.16385  0.63485  1.0000
  C   C12       1.0  0.97415  0.83614  0.36516  1.0000
  C   C13       1.0  0.97976  0.10249  0.73924  1.0000
  C   C14       1.0  0.02024  0.89751  0.26076  1.0000
  C   C15       1.0  0.25432  0.26528  0.51110  1.0000
  C   C16       1.0  0.74568  0.73471  0.48891  1.0000
  C   C17       1.0  0.23761  0.34572  0.32099  1.0000
  C   C18       1.0  0.76239  0.65428  0.67901  1.0000
  C   C19       1.0  0.23912  0.20030  0.28404  1.0000
  C   C20       1.0  0.76089  0.79970  0.71596  1.0000
  C   C21       1.0  0.13599  0.49186  0.23766  1.0000
  C   C22       1.0  0.86401  0.50814  0.76234  1.0000
  C   C23       1.0  0.44309  0.33260  0.36118  1.0000
  C   C24       1.0  0.55692  0.66740  0.63882  1.0000
  C   C25       1.0  0.45759  0.49064  0.36485  1.0000
  C   C26       1.0  0.54241  0.50936  0.63514  1.0000
  C   C27       1.0  0.61862  0.24041  0.30338  1.0000
  C   C28       1.0  0.38139  0.75959  0.69662  1.0000
  N   N1        1.0  0.33288  0.86716  0.05518  1.0000
  N   N2        1.0  0.66712  0.13283  0.94482  1.0000
  N   N3        1.0  0.00295  0.23165  0.04406  1.0000
  N   N4        1.0  0.99704  0.76835  0.95594  1.0000
  N   N5        1.0  0.09293  0.07982  0.82570  1.0000
  N   N6        1.0  0.90706  0.92019  0.17430  1.0000
  N   N7        1.0  0.12632  0.34398  0.42640  1.0000
  N   N8        1.0  0.87367  0.65602  0.57360  1.0000
  N   N9        1.0  0.44154  0.24550  0.47724  1.0000
  N   N10       1.0  0.55848  0.75450  0.52277  1.0000
  O   O1        1.0  0.93839  0.39162  0.42982  1.0000
  O   O2        1.0  0.06162  0.60839  0.57018  1.0000
  O   O3        1.0  0.60004  0.17218  0.53393  1.0000
  O   O4        1.0  0.39996  0.82781  0.46607  1.0000
