data_image0
_chemical_formula_structural       Ag6H8C10N14
_chemical_formula_sum              "Ag6 H8 C10 N14"
_cell_length_a       8.20029
_cell_length_b       8.44194
_cell_length_c       8.76796
_cell_angle_alpha    64.6474
_cell_angle_beta     63.8656
_cell_angle_gamma    62.9436

_space_group_name_H-M_alt    "P 1"
_space_group_IT_number       1

loop_
  _space_group_symop_operation_xyz
  'x, y, z'

loop_
  _atom_site_type_symbol
  _atom_site_label
  _atom_site_symmetry_multiplicity
  _atom_site_fract_x
  _atom_site_fract_y
  _atom_site_fract_z
  _atom_site_occupancy
  Ag  Ag1       1.0  0.65808  0.39146  0.74864  1.0000
  Ag  Ag2       1.0  0.34193  0.60854  0.25136  1.0000
  Ag  Ag3       1.0  0.17230  0.74379  0.96048  1.0000
  Ag  Ag4       1.0  0.82770  0.25621  0.03952  1.0000
  Ag  Ag5       1.0  0.71855  0.20680  0.48275  1.0000
  Ag  Ag6       1.0  0.28145  0.79320  0.51725  1.0000
  H   H1        1.0  0.74686  0.78316  0.93992  1.0000
  H   H2        1.0  0.25314  0.21684  0.06008  1.0000
  H   H3        1.0  0.82887  0.76774  0.48000  1.0000
  H   H4        1.0  0.17113  0.23226  0.52000  1.0000
  H   H5        1.0  0.00002  0.46078  0.34769  1.0000
  H   H6        1.0  0.99997  0.53922  0.65231  1.0000
  H   H7        1.0  0.36818  0.05933  0.83043  1.0000
  H   H8        1.0  0.63182  0.94068  0.16957  1.0000
  C   C1        1.0  0.86853  0.13878  0.74062  1.0000
  C   C2        1.0  0.13147  0.86122  0.25936  1.0000
  C   C3        1.0  0.77492  0.68374  0.06226  1.0000
  C   C4        1.0  0.22508  0.31626  0.93774  1.0000
  C   C5        1.0  0.70091  0.80221  0.58920  1.0000
  C   C6        1.0  0.29909  0.19779  0.41080  1.0000
  C   C7        1.0  0.90393  0.52075  0.26892  1.0000
  C   C8        1.0  0.09606  0.47925  0.73108  1.0000
  C   C9        1.0  0.46748  0.95199  0.76547  1.0000
  C   C10       1.0  0.53251  0.04802  0.23454  1.0000
  N   N1        1.0  0.66834  0.57608  0.18066  1.0000
  N   N2        1.0  0.33166  0.42392  0.81934  1.0000
  N   N3        1.0  0.98746  0.99110  0.74547  1.0000
  N   N4        1.0  0.01255  0.00890  0.25452  1.0000
  N   N5        1.0  0.59625  0.69084  0.70108  1.0000
  N   N6        1.0  0.40375  0.30915  0.29892  1.0000
  N   N7        1.0  0.44505  0.78841  0.81482  1.0000
  N   N8        1.0  0.55495  0.21159  0.18518  1.0000
  N   N9        1.0  0.62612  0.96686  0.62498  1.0000
  N   N10       1.0  0.37388  0.03314  0.37502  1.0000
  N   N11       1.0  0.75288  0.47010  0.31405  1.0000
  N   N12       1.0  0.24712  0.52990  0.68595  1.0000
  N   N13       1.0  0.92389  0.65403  0.11239  1.0000
  N   N14       1.0  0.07611  0.34597  0.88762  1.0000
