data_image0
_chemical_formula_structural       Cu4H44C32S4N12
_chemical_formula_sum              "Cu4 H44 C32 S4 N12"
_cell_length_a       5.71929
_cell_length_b       9.3867
_cell_length_c       17.7075
_cell_angle_alpha    92.6608
_cell_angle_beta     89.9991
_cell_angle_gamma    90.0007

_space_group_name_H-M_alt    "P 1"
_space_group_IT_number       1

loop_
  _space_group_symop_operation_xyz
  'x, y, z'

loop_
  _atom_site_type_symbol
  _atom_site_label
  _atom_site_symmetry_multiplicity
  _atom_site_fract_x
  _atom_site_fract_y
  _atom_site_fract_z
  _atom_site_occupancy
  Cu  Cu1       1.0  0.62517  0.37073  0.95953  1.0000
  Cu  Cu2       1.0  0.12521  0.12928  0.54048  1.0000
  Cu  Cu3       1.0  0.37482  0.62927  0.04048  1.0000
  Cu  Cu4       1.0  0.87482  0.87073  0.45952  1.0000
  H   H1        1.0  0.47444  0.85771  0.77645  1.0000
  H   H2        1.0  0.97443  0.64230  0.72355  1.0000
  H   H3        1.0  0.52556  0.14228  0.22355  1.0000
  H   H4        1.0  0.02556  0.35771  0.27645  1.0000
  H   H5        1.0  0.18157  0.88701  0.74888  1.0000
  H   H6        1.0  0.68156  0.61300  0.75112  1.0000
  H   H7        1.0  0.81842  0.11298  0.25112  1.0000
  H   H8        1.0  0.31843  0.38700  0.24888  1.0000
  H   H9        1.0  0.24578  0.83452  0.84236  1.0000
  H   H10       1.0  0.74579  0.66549  0.65763  1.0000
  H   H11       1.0  0.75421  0.16548  0.15764  1.0000
  H   H12       1.0  0.25421  0.33451  0.34237  1.0000
  H   H13       1.0  0.83565  0.09074  0.89731  1.0000
  H   H14       1.0  0.33567  0.40928  0.60268  1.0000
  H   H15       1.0  0.16434  0.90926  0.10269  1.0000
  H   H16       1.0  0.66433  0.59073  0.39731  1.0000
  H   H17       1.0  0.67929  0.92841  0.87953  1.0000
  H   H18       1.0  0.17931  0.57160  0.62047  1.0000
  H   H19       1.0  0.32070  0.07158  0.12048  1.0000
  H   H20       1.0  0.82068  0.42841  0.37953  1.0000
  H   H21       1.0  0.02592  0.16211  0.76404  1.0000
  H   H22       1.0  0.52592  0.33789  0.73596  1.0000
  H   H23       1.0  0.97407  0.83788  0.23597  1.0000
  H   H24       1.0  0.47408  0.66211  0.26404  1.0000
  H   H25       1.0  0.20501  0.49460  0.89528  1.0000
  H   H26       1.0  0.70502  0.00541  0.60471  1.0000
  H   H27       1.0  0.79497  0.50540  0.10471  1.0000
  H   H28       1.0  0.29500  0.99459  0.39529  1.0000
  H   H29       1.0  0.98557  0.43816  0.82969  1.0000
  H   H30       1.0  0.48558  0.06185  0.67031  1.0000
  H   H31       1.0  0.01442  0.56183  0.17031  1.0000
  H   H32       1.0  0.51444  0.93816  0.32969  1.0000
  H   H33       1.0  0.26111  0.49740  0.79672  1.0000
  H   H34       1.0  0.76113  0.00261  0.70328  1.0000
  H   H35       1.0  0.73888  0.50259  0.20328  1.0000
  H   H36       1.0  0.23889  0.99740  0.29672  1.0000
  H   H37       1.0  0.75390  0.95171  0.01297  1.0000
  H   H38       1.0  0.25390  0.54831  0.48703  1.0000
  H   H39       1.0  0.24609  0.04829  0.98704  1.0000
  H   H40       1.0  0.74610  0.45170  0.51297  1.0000
  H   H41       1.0  0.65457  0.13023  0.01996  1.0000
  H   H42       1.0  0.15459  0.36978  0.48004  1.0000
  H   H43       1.0  0.34541  0.86976  0.98004  1.0000
  H   H44       1.0  0.84541  0.63023  0.51996  1.0000
  C   C1        1.0  0.11023  0.34861  0.03000  1.0000
  C   C2        1.0  0.61029  0.15139  0.46999  1.0000
  C   C3        1.0  0.88975  0.65138  0.96999  1.0000
  C   C4        1.0  0.38974  0.84861  0.53000  1.0000
  C   C5        1.0  0.31904  0.05424  0.82021  1.0000
  C   C6        1.0  0.81905  0.44578  0.67979  1.0000
  C   C7        1.0  0.68096  0.94576  0.17980  1.0000
  C   C8        1.0  0.18096  0.55423  0.32020  1.0000
  C   C9        1.0  0.26137  0.28864  0.84168  1.0000
  C   C10       1.0  0.76138  0.21137  0.65832  1.0000
  C   C11       1.0  0.73862  0.71135  0.15832  1.0000
  C   C12       1.0  0.23863  0.78864  0.34168  1.0000
  C   C13       1.0  0.30498  0.90023  0.79613  1.0000
  C   C14       1.0  0.80499  0.59978  0.70386  1.0000
  C   C15       1.0  0.69501  0.09976  0.20387  1.0000
  C   C16       1.0  0.19501  0.40023  0.29613  1.0000
  C   C17       1.0  0.66932  0.03567  0.90683  1.0000
  C   C18       1.0  0.16935  0.46434  0.59317  1.0000
  C   C19       1.0  0.33067  0.96433  0.09317  1.0000
  C   C20       1.0  0.83066  0.53567  0.40683  1.0000
  C   C21       1.0  0.17435  0.16675  0.80200  1.0000
  C   C22       1.0  0.67436  0.33325  0.69800  1.0000
  C   C23       1.0  0.82564  0.83324  0.19800  1.0000
  C   C24       1.0  0.32565  0.66675  0.30200  1.0000
  C   C25       1.0  0.17400  0.43765  0.84085  1.0000
  C   C26       1.0  0.67401  0.06236  0.65915  1.0000
  C   C27       1.0  0.82599  0.56235  0.15915  1.0000
  C   C28       1.0  0.32601  0.93764  0.34085  1.0000
  C   C29       1.0  0.62293  0.02560  0.99141  1.0000
  C   C30       1.0  0.12294  0.47441  0.50859  1.0000
  C   C31       1.0  0.37705  0.97439  0.00859  1.0000
  C   C32       1.0  0.87706  0.52560  0.49141  1.0000
  S   S1        1.0  0.36525  0.38243  0.06976  1.0000
  S   S2        1.0  0.86530  0.11757  0.43024  1.0000
  S   S3        1.0  0.63474  0.61757  0.93024  1.0000
  S   S4        1.0  0.13474  0.88244  0.56976  1.0000
  N   N1        1.0  0.92575  0.32985  0.00102  1.0000
  N   N2        1.0  0.42578  0.17016  0.49898  1.0000
  N   N3        1.0  0.07425  0.67014  0.99898  1.0000
  N   N4        1.0  0.57425  0.82985  0.50102  1.0000
  N   N5        1.0  0.45150  0.25372  0.88212  1.0000
  N   N6        1.0  0.95152  0.24630  0.61788  1.0000
  N   N7        1.0  0.54850  0.74628  0.11789  1.0000
  N   N8        1.0  0.04850  0.75371  0.38211  1.0000
  N   N9        1.0  0.48537  0.11068  0.86794  1.0000
  N   N10       1.0  0.98539  0.38933  0.63206  1.0000
  N   N11       1.0  0.51462  0.88932  0.13206  1.0000
  N   N12       1.0  0.01462  0.61067  0.36794  1.0000
