data_image0
_chemical_formula_structural       Zn4H28C40N4O20
_chemical_formula_sum              "Zn4 H28 C40 N4 O20"
_cell_length_a       6.64871
_cell_length_b       9.6144
_cell_length_c       16.208
_cell_angle_alpha    95.0384
_cell_angle_beta     90
_cell_angle_gamma    89.9995

_space_group_name_H-M_alt    "P 1"
_space_group_IT_number       1

loop_
  _space_group_symop_operation_xyz
  'x, y, z'

loop_
  _atom_site_type_symbol
  _atom_site_label
  _atom_site_symmetry_multiplicity
  _atom_site_fract_x
  _atom_site_fract_y
  _atom_site_fract_z
  _atom_site_occupancy
  Zn  Zn1       1.0  0.61875  0.48303  0.33957  1.0000
  Zn  Zn2       1.0  0.11875  0.01697  0.16043  1.0000
  Zn  Zn3       1.0  0.38125  0.51697  0.66042  1.0000
  Zn  Zn4       1.0  0.88125  0.98303  0.83958  1.0000
  H   H1        1.0  0.97330  0.45625  0.26676  1.0000
  H   H2        1.0  0.47330  0.04375  0.23324  1.0000
  H   H3        1.0  0.02670  0.54375  0.73324  1.0000
  H   H4        1.0  0.52670  0.95625  0.76676  1.0000
  H   H5        1.0  0.00925  0.51657  0.36199  1.0000
  H   H6        1.0  0.50926  0.98343  0.13801  1.0000
  H   H7        1.0  0.99074  0.48343  0.63800  1.0000
  H   H8        1.0  0.49074  0.01657  0.86199  1.0000
  H   H9        1.0  0.57591  0.92602  0.35353  1.0000
  H   H10       1.0  0.07590  0.57398  0.14647  1.0000
  H   H11       1.0  0.42409  0.07397  0.64647  1.0000
  H   H12       1.0  0.92409  0.42602  0.85353  1.0000
  H   H13       1.0  0.56189  0.70019  0.22725  1.0000
  H   H14       1.0  0.06188  0.79981  0.27275  1.0000
  H   H15       1.0  0.43812  0.29981  0.77274  1.0000
  H   H16       1.0  0.93812  0.20019  0.72726  1.0000
  H   H17       1.0  0.53168  0.72138  0.07735  1.0000
  H   H18       1.0  0.03168  0.77861  0.42264  1.0000
  H   H19       1.0  0.46833  0.27862  0.92264  1.0000
  H   H20       1.0  0.96833  0.22138  0.57736  1.0000
  H   H21       1.0  0.50489  0.26981  0.04244  1.0000
  H   H22       1.0  0.00489  0.23019  0.45757  1.0000
  H   H23       1.0  0.49510  0.73019  0.95756  1.0000
  H   H24       1.0  0.99510  0.76981  0.54244  1.0000
  H   H25       1.0  0.53787  0.26892  0.19481  1.0000
  H   H26       1.0  0.03787  0.23108  0.30519  1.0000
  H   H27       1.0  0.46212  0.73108  0.80518  1.0000
  H   H28       1.0  0.96212  0.76892  0.69482  1.0000
  C   C1        1.0  0.58224  0.70949  0.44271  1.0000
  C   C2        1.0  0.08224  0.79051  0.05728  1.0000
  C   C3        1.0  0.41776  0.29051  0.55728  1.0000
  C   C4        1.0  0.91776  0.20949  0.94272  1.0000
  C   C5        1.0  0.45315  0.79743  0.62148  1.0000
  C   C6        1.0  0.95314  0.70257  0.87852  1.0000
  C   C7        1.0  0.54685  0.20257  0.37852  1.0000
  C   C8        1.0  0.04685  0.29743  0.12148  1.0000
  C   C9        1.0  0.52825  0.85667  0.47462  1.0000
  C   C10       1.0  0.02825  0.64333  0.02538  1.0000
  C   C11       1.0  0.47175  0.14333  0.52538  1.0000
  C   C12       1.0  0.97174  0.35667  0.97462  1.0000
  C   C13       1.0  0.48559  0.89981  0.55808  1.0000
  C   C14       1.0  0.98559  0.60019  0.94192  1.0000
  C   C15       1.0  0.51441  0.10018  0.44192  1.0000
  C   C16       1.0  0.01441  0.39981  0.05808  1.0000
  C   C17       1.0  0.53985  0.95797  0.41798  1.0000
  C   C18       1.0  0.03984  0.54203  0.08201  1.0000
  C   C19       1.0  0.46016  0.04203  0.58201  1.0000
  C   C20       1.0  0.96015  0.45797  0.91798  1.0000
  C   C21       1.0  0.54971  0.60741  0.18383  1.0000
  C   C22       1.0  0.04971  0.89259  0.31617  1.0000
  C   C23       1.0  0.45030  0.39259  0.81616  1.0000
  C   C24       1.0  0.95030  0.10741  0.68384  1.0000
  C   C25       1.0  0.53234  0.61801  0.09940  1.0000
  C   C26       1.0  0.03233  0.88199  0.40060  1.0000
  C   C27       1.0  0.46767  0.38200  0.90059  1.0000
  C   C28       1.0  0.96767  0.11800  0.59940  1.0000
  C   C29       1.0  0.51167  0.49676  0.04509  1.0000
  C   C30       1.0  0.01167  0.00324  0.45491  1.0000
  C   C31       1.0  0.48834  0.50324  0.95491  1.0000
  C   C32       1.0  0.98833  0.99676  0.54509  1.0000
  C   C33       1.0  0.51372  0.36861  0.08019  1.0000
  C   C34       1.0  0.01372  0.13139  0.41981  1.0000
  C   C35       1.0  0.48627  0.63140  0.91981  1.0000
  C   C36       1.0  0.98627  0.86860  0.58019  1.0000
  C   C37       1.0  0.53427  0.36594  0.16504  1.0000
  C   C38       1.0  0.03427  0.13406  0.33496  1.0000
  C   C39       1.0  0.46572  0.63406  0.83496  1.0000
  C   C40       1.0  0.96572  0.86595  0.66504  1.0000
  N   N1        1.0  0.55109  0.48311  0.21661  1.0000
  N   N2        1.0  0.05110  0.01689  0.28339  1.0000
  N   N3        1.0  0.44891  0.51689  0.78339  1.0000
  N   N4        1.0  0.94891  0.98311  0.71662  1.0000
  O   O1        1.0  0.47371  0.65607  0.38126  1.0000
  O   O2        1.0  0.97371  0.84393  0.11874  1.0000
  O   O3        1.0  0.52631  0.34393  0.61874  1.0000
  O   O4        1.0  0.02629  0.15607  0.88126  1.0000
  O   O5        1.0  0.73454  0.65126  0.46922  1.0000
  O   O6        1.0  0.23454  0.84874  0.03077  1.0000
  O   O7        1.0  0.26546  0.34874  0.53077  1.0000
  O   O8        1.0  0.76546  0.15126  0.96923  1.0000
  O   O9        1.0  0.40577  0.67289  0.59237  1.0000
  O   O10       1.0  0.90578  0.82712  0.90764  1.0000
  O   O11       1.0  0.59422  0.32711  0.40763  1.0000
  O   O12       1.0  0.09422  0.17289  0.09237  1.0000
  O   O13       1.0  0.46564  0.83567  0.69772  1.0000
  O   O14       1.0  0.96564  0.66433  0.80228  1.0000
  O   O15       1.0  0.53436  0.16433  0.30228  1.0000
  O   O16       1.0  0.03436  0.33567  0.19772  1.0000
  O   O17       1.0  0.92021  0.52065  0.31462  1.0000
  O   O18       1.0  0.42021  0.97935  0.18538  1.0000
  O   O19       1.0  0.07978  0.47935  0.68538  1.0000
  O   O20       1.0  0.57979  0.02065  0.81462  1.0000
