data_image0
_chemical_formula_structural       Cd2H16C24S4N8Cl4
_chemical_formula_sum              "Cd2 H16 C24 S4 N8 Cl4"
_cell_length_a       5.78498
_cell_length_b       9.46621
_cell_length_c       14.7535
_cell_angle_alpha    99.9819
_cell_angle_beta     89.9971
_cell_angle_gamma    90.0003

_space_group_name_H-M_alt    "P 1"
_space_group_IT_number       1

loop_
  _space_group_symop_operation_xyz
  'x, y, z'

loop_
  _atom_site_type_symbol
  _atom_site_label
  _atom_site_symmetry_multiplicity
  _atom_site_fract_x
  _atom_site_fract_y
  _atom_site_fract_z
  _atom_site_occupancy
  Cd  Cd1       1.0  0.49999  0.50000  0.50000  1.0000
  Cd  Cd2       1.0  0.00001  0.00000  0.00000  1.0000
  H   H1        1.0  0.73692  0.81174  0.53811  1.0000
  H   H2        1.0  0.23691  0.68826  0.96189  1.0000
  H   H3        1.0  0.26306  0.18826  0.46188  1.0000
  H   H4        1.0  0.76310  0.31174  0.03812  1.0000
  H   H5        1.0  0.33527  0.12503  0.72049  1.0000
  H   H6        1.0  0.83529  0.37498  0.77952  1.0000
  H   H7        1.0  0.66473  0.87497  0.27951  1.0000
  H   H8        1.0  0.16472  0.62503  0.22049  1.0000
  H   H9        1.0  0.05624  0.92820  0.73703  1.0000
  H   H10       1.0  0.55625  0.57180  0.76298  1.0000
  H   H11       1.0  0.94376  0.07179  0.26297  1.0000
  H   H12       1.0  0.44375  0.42821  0.23702  1.0000
  H   H13       1.0  0.12981  0.68100  0.64910  1.0000
  H   H14       1.0  0.62982  0.81901  0.85091  1.0000
  H   H15       1.0  0.87018  0.31900  0.35090  1.0000
  H   H16       1.0  0.37019  0.18099  0.14910  1.0000
  C   C1        1.0  0.99377  0.57099  0.39949  1.0000
  C   C2        1.0  0.49375  0.92902  0.10050  1.0000
  C   C3        1.0  0.00620  0.42902  0.60051  1.0000
  C   C4        1.0  0.50627  0.07098  0.89949  1.0000
  C   C5        1.0  0.58848  0.84069  0.58314  1.0000
  C   C6        1.0  0.08848  0.65931  0.91686  1.0000
  C   C7        1.0  0.41151  0.15931  0.41686  1.0000
  C   C8        1.0  0.91154  0.34069  0.08314  1.0000
  C   C9        1.0  0.55605  0.98156  0.62845  1.0000
  C   C10       1.0  0.05605  0.51844  0.87155  1.0000
  C   C11       1.0  0.44394  0.01844  0.37155  1.0000
  C   C12       1.0  0.94396  0.48156  0.12845  1.0000
  C   C13       1.0  0.36349  0.01576  0.68484  1.0000
  C   C14       1.0  0.86350  0.48425  0.81517  1.0000
  C   C15       1.0  0.63651  0.98424  0.31516  1.0000
  C   C16       1.0  0.13650  0.51575  0.18484  1.0000
  C   C17       1.0  0.20843  0.90610  0.69332  1.0000
  C   C18       1.0  0.70844  0.59390  0.80668  1.0000
  C   C19       1.0  0.79157  0.09389  0.30668  1.0000
  C   C20       1.0  0.29156  0.40610  0.19333  1.0000
  C   C21       1.0  0.24972  0.76848  0.64520  1.0000
  C   C22       1.0  0.74973  0.73153  0.85481  1.0000
  C   C23       1.0  0.75027  0.23152  0.35480  1.0000
  C   C24       1.0  0.25027  0.26847  0.14521  1.0000
  S   S1        1.0  0.73926  0.62586  0.37319  1.0000
  S   S2        1.0  0.23925  0.87411  0.12680  1.0000
  S   S3        1.0  0.26073  0.37414  0.62681  1.0000
  S   S4        1.0  0.76077  0.12588  0.87319  1.0000
  N   N1        1.0  0.17809  0.52802  0.41610  1.0000
  N   N2        1.0  0.67812  0.97196  0.08388  1.0000
  N   N3        1.0  0.82186  0.47199  0.58389  1.0000
  N   N4        1.0  0.32191  0.02804  0.91610  1.0000
  N   N5        1.0  0.43669  0.73650  0.59116  1.0000
  N   N6        1.0  0.93670  0.76350  0.90885  1.0000
  N   N7        1.0  0.56329  0.26350  0.40884  1.0000
  N   N8        1.0  0.06331  0.23650  0.09116  1.0000
  Cl  Cl1       1.0  0.75477  0.11120  0.61285  1.0000
  Cl  Cl2       1.0  0.25477  0.38880  0.88715  1.0000
  Cl  Cl3       1.0  0.24523  0.88880  0.38714  1.0000
  Cl  Cl4       1.0  0.74524  0.61119  0.11286  1.0000
